# generated using pymatgen
data_V85Zn86O256
_symmetry_space_group_name_H-M   'P 1'
_cell_length_a   16.91126787
_cell_length_b   16.91506751
_cell_length_c   16.91487690
_cell_angle_alpha   90.01980589
_cell_angle_beta   90.03592036
_cell_angle_gamma   89.96729484
_symmetry_Int_Tables_number   1
_chemical_formula_structural   V85Zn86O256
_chemical_formula_sum   'V85 Zn86 O256'
_cell_volume   4838.58710475
_cell_formula_units_Z   1
loop_
 _symmetry_equiv_pos_site_id
 _symmetry_equiv_pos_as_xyz
  1  'x, y, z'
loop_
 _atom_site_type_symbol
 _atom_site_label
 _atom_site_symmetry_multiplicity
 _atom_site_fract_x
 _atom_site_fract_y
 _atom_site_fract_z
 _atom_site_occupancy
  V  V0  1  0.13535313  0.88143329  0.75013034  1
  V  V1  1  0.74346592  0.75371711  0.49544024  1
  V  V2  1  0.00140716  0.01510805  0.00550046  1
  V  V3  1  0.87691760  0.62857590  0.25772319  1
  V  V4  1  0.62828377  0.11991216  0.00346829  1
  V  V5  1  0.24672390  -0.00424961  0.24992940  1
  V  V6  1  0.37117200  0.12284065  0.74587300  1
  V  V7  1  0.00381332  0.85825610  0.37866722  1
  V  V8  1  0.62345550  0.25057923  0.87488475  1
  V  V9  1  0.38745475  0.62997909  0.25297718  1
  V  V10  1  0.24516064  0.37743136  0.62185487  1
  V  V11  1  0.50150633  0.37287615  0.37293829  1
  V  V12  1  0.87530421  0.38453164  0.49309441  1
  V  V13  1  0.37347590  0.37516660  -0.00039848  1
  V  V14  1  0.24472800  0.24229314  0.00194120  1
  V  V15  1  -0.00157160  0.63102624  0.12629768  1
  V  V16  1  0.12630139  0.75330209  0.87965286  1
  V  V17  1  0.12713744  0.62810226  -0.00044303  1
  V  V18  1  0.74133583  0.62724387  0.37418153  1
  V  V19  1  0.62478419  0.87686630  0.74957229  1
  V  V20  1  0.49958812  0.87647934  0.87641238  1
  V  V21  1  0.62748517  0.75136897  0.87564997  1
  V  V22  1  0.87486387  0.26662381  0.12117068  1
  V  V23  1  0.87626557  -0.00213834  0.88048896  1
  V  V24  1  0.12840618  0.12848831  0.50001051  1
  V  V25  1  0.75931935  0.49638186  0.25265708  1
  V  V26  1  0.36289207  0.75703460  0.62623138  1
  V  V27  1  0.37495542  0.62208354  0.74678310  1
  V  V28  1  0.75617315  0.75528341  -0.00003980  1
  V  V29  1  0.37261650  0.00171407  0.87276664  1
  V  V30  1  0.87925621  0.75102553  0.62542360  1
  V  V31  1  0.49967210  0.00399798  0.50156601  1
  V  V32  1  0.11951311  0.25238465  0.87813444  1
  V  V33  1  0.87776420  0.12166918  0.23761965  1
  V  V34  1  0.20353673  0.55805731  0.30517971  1
  V  V35  1  0.25190371  0.37935631  0.12776274  1
  V  V36  1  0.62027611  0.00747427  0.62556454  1
  V  V37  1  0.73986609  -0.00097961  0.24865217  1
  V  V38  1  0.12821429  0.50283634  0.12270059  1
  V  V39  1  0.25025310  0.62756273  0.87824927  1
  V  V40  1  0.63116281  0.37375507  0.24422770  1
  V  V41  1  0.00187211  0.24507614  0.24781835  1
  V  V42  1  0.62171090  0.85801888  0.24820219  1
  V  V43  1  0.49820897  0.24635546  0.74414315  1
  V  V44  1  0.50055166  0.75025566  0.74689488  1
  V  V45  1  0.24488407  0.74837419  0.48053050  1
  V  V46  1  0.50230105  0.24908838  0.24750848  1
  V  V47  1  0.50542802  0.86187941  0.37677146  1
  V  V48  1  0.37607414  0.12118236  0.24863893  1
  V  V49  1  -0.00129855  0.87559459  0.88279984  1
  V  V50  1  -0.00124945  0.25440014  0.75223656  1
  V  V51  1  0.75180838  0.26312948  0.00349584  1
  V  V52  1  0.50541491  0.11576702  0.12553518  1
  V  V53  1  0.24357319  0.12267377  0.87305144  1
  V  V54  1  -0.00234268  0.48800184  -0.00194991  1
  V  V55  1  0.37332226  0.49955275  0.87520250  1
  V  V56  1  0.75141089  0.87568785  0.62361677  1
  V  V57  1  0.74945540  0.24908439  0.49848445  1
  V  V58  1  0.12796667  0.37314698  0.25237496  1
  V  V59  1  0.87799706  0.75699883  0.12720572  1
  V  V60  1  0.37164646  0.24447880  0.61904803  1
  V  V61  1  0.37652827  0.24834445  0.12355961  1
  V  V62  1  0.75637799  0.62555632  0.87760179  1
  V  V63  1  0.12163617  0.38054118  0.74794478  1
  V  V64  1  0.87420111  0.25123529  0.62281175  1
  V  V65  1  0.87722058  0.48374099  0.87853423  1
  V  V66  1  0.11594666  0.86429488  0.24768552  1
  V  V67  1  0.74859254  0.88100861  0.12204201  1
  V  V68  1  0.50789299  0.49756928  0.50739801  1
  V  V69  1  0.37653728  0.50239525  0.36895065  1
  V  V70  1  0.14117211  -0.00636867  0.62287915  1
  V  V71  1  0.12279770  0.01409344  0.12358915  1
  V  V72  1  0.75078543  0.00207930  0.75081020  1
  V  V73  1  0.75080822  0.12082975  0.37523507  1
  V  V74  1  -0.00155170  0.11206812  0.61934836  1
  V  V75  1  0.63330232  0.49951569  0.12389527  1
  V  V76  1  0.37776409  0.75060831  0.12445018  1
  V  V77  1  0.50146065  0.50147313  0.00160815  1
  V  V78  1  0.37552433  -0.00470459  0.37375319  1
  V  V79  1  0.74359534  0.50042256  0.74503614  1
  V  V80  1  0.00813058  0.61677215  0.62466476  1
  V  V81  1  0.88667493  0.00035631  0.37766324  1
  V  V82  1  0.36814829  0.36943427  0.49647809  1
  V  V83  1  0.36640256  0.86992344  -0.00188414  1
  V  V84  1  0.87542766  0.12491245  0.75034577  1
  Zn  Zn85  1  0.74175148  0.38227011  0.61945990  1
  Zn  Zn86  1  0.87760526  0.62498063  0.75029723  1
  Zn  Zn87  1  0.00139870  0.75238764  0.74929244  1
  Zn  Zn88  1  0.00755886  0.50027470  0.49644806  1
  Zn  Zn89  1  0.50549882  0.62291510  0.62674724  1
  Zn  Zn90  1  0.88264555  0.88070110  0.50358845  1
  Zn  Zn91  1  0.62671518  0.62676800  0.00191234  1
  Zn  Zn92  1  0.13670499  0.62054860  0.50307838  1
  Zn  Zn93  1  0.24375081  0.50141836  0.74474244  1
  Zn  Zn94  1  0.50633351  0.63154206  0.12887187  1
  Zn  Zn95  1  0.49774274  0.37401228  0.87331649  1
  Zn  Zn96  1  0.62556280  0.62654640  0.50494963  1
  Zn  Zn97  1  0.62642966  0.24687262  0.37382695  1
  Zn  Zn98  1  -0.00596919  0.37840889  0.36979604  1
  Zn  Zn99  1  0.75213124  0.12719410  0.87814886  1
  Zn  Zn100  1  0.25303694  0.12731166  0.38159423  1
  Zn  Zn101  1  0.12973049  0.25250772  0.38157506  1
  Zn  Zn102  1  0.24486387  0.87207903  0.11876021  1
  Zn  Zn103  1  0.61812651  0.37917332  0.74336850  1
  Zn  Zn104  1  0.50270891  -0.00245568  0.00280418  1
  Zn  Zn105  1  0.62191571  0.12685501  0.50202315  1
  Zn  Zn106  1  0.36787797  0.87668459  0.50489392  1
  Zn  Zn107  1  0.19227573  0.18720596  0.19432022  1
  Zn  Zn108  1  0.18765149  0.18928122  0.68593993  1
  Zn  Zn109  1  0.19338010  0.69476666  0.17854006  1
  Zn  Zn110  1  0.18574507  0.69006125  0.69362113  1
  Zn  Zn111  1  0.69158950  0.18810998  0.18493853  1
  Zn  Zn112  1  0.68757556  0.18918602  0.68780958  1
  Zn  Zn113  1  0.69202774  0.68525323  0.18455122  1
  Zn  Zn114  1  0.68707655  0.68458002  0.68424775  1
  Zn  Zn115  1  0.31065937  0.30883236  0.31294683  1
  Zn  Zn116  1  0.30856858  0.31109812  0.81047992  1
  Zn  Zn117  1  0.31464276  0.81299207  0.30806563  1
  Zn  Zn118  1  0.31099351  0.81011845  0.81392831  1
  Zn  Zn119  1  0.81255802  0.30862393  0.31063897  1
  Zn  Zn120  1  0.80786610  0.31300659  0.81210488  1
  Zn  Zn121  1  0.81445290  0.81287864  0.31230030  1
  Zn  Zn122  1  0.81538218  0.81528915  0.81068138  1
  Zn  Zn123  1  0.18243200  0.43545598  0.44538081  1
  Zn  Zn124  1  0.18576760  0.43594677  0.93631251  1
  Zn  Zn125  1  0.18450173  0.93441121  0.43984991  1
  Zn  Zn126  1  0.18450784  0.94295888  0.93815562  1
  Zn  Zn127  1  0.69061725  0.43673872  0.43098212  1
  Zn  Zn128  1  0.68589648  0.43650351  0.93252144  1
  Zn  Zn129  1  0.68672126  0.93589059  0.43639639  1
  Zn  Zn130  1  0.68907995  0.93907604  0.93790492  1
  Zn  Zn131  1  0.31213698  0.05844154  0.06145431  1
  Zn  Zn132  1  0.31212283  0.06083847  0.56119880  1
  Zn  Zn133  1  0.31358110  0.56622091  0.06534854  1
  Zn  Zn134  1  0.31497938  0.56168409  0.55938569  1
  Zn  Zn135  1  0.81194683  0.06258551  0.06003665  1
  Zn  Zn136  1  0.81276433  0.06113229  0.56096447  1
  Zn  Zn137  1  0.81426128  0.56225727  0.06251582  1
  Zn  Zn138  1  0.81342520  0.56923967  0.56369493  1
  Zn  Zn139  1  0.44030465  0.44109433  0.18682813  1
  Zn  Zn140  1  0.43369031  0.43178409  0.68670505  1
  Zn  Zn141  1  0.44050270  0.93161082  0.18819448  1
  Zn  Zn142  1  0.43521167  0.93883467  0.68884039  1
  Zn  Zn143  1  0.94279593  0.44091214  0.18774584  1
  Zn  Zn144  1  0.93034984  0.43689948  0.68744572  1
  Zn  Zn145  1  0.93711449  0.93872988  0.18758320  1
  Zn  Zn146  1  0.94138113  0.93390872  0.69411366  1
  Zn  Zn147  1  0.06306495  0.06189183  0.31154926  1
  Zn  Zn148  1  0.06242621  0.06406163  0.80937411  1
  Zn  Zn149  1  0.03794256  0.56543019  0.32126896  1
  Zn  Zn150  1  0.05705680  0.56389738  0.81187231  1
  Zn  Zn151  1  0.56287243  0.05834551  0.31501257  1
  Zn  Zn152  1  0.55934877  0.06647158  0.81357182  1
  Zn  Zn153  1  0.56576138  0.56003424  0.31430047  1
  Zn  Zn154  1  0.56296352  0.56546882  0.81707513  1
  Zn  Zn155  1  0.43692150  0.18526879  0.43585662  1
  Zn  Zn156  1  0.43817855  0.18608429  0.93737508  1
  Zn  Zn157  1  0.43082968  0.68371352  0.44245824  1
  Zn  Zn158  1  0.43870979  0.68844942  0.93895325  1
  Zn  Zn159  1  0.94155016  0.18810843  0.43527511  1
  Zn  Zn160  1  0.93601886  0.19024042  0.93836295  1
  Zn  Zn161  1  0.93440063  0.68800016  0.44433791  1
  Zn  Zn162  1  0.93856546  0.68769798  0.94155744  1
  Zn  Zn163  1  0.06280842  0.30744844  0.06749088  1
  Zn  Zn164  1  0.05876235  0.30987714  0.56494637  1
  Zn  Zn165  1  0.06115394  0.81796957  0.06119357  1
  Zn  Zn166  1  0.06894296  0.80937527  0.55964331  1
  Zn  Zn167  1  0.56366061  0.31228522  0.06167063  1
  Zn  Zn168  1  0.56179243  0.31203239  0.56496216  1
  Zn  Zn169  1  0.56238963  0.81329130  0.06257483  1
  Zn  Zn170  1  0.56017043  0.81379609  0.56398253  1
  O  O171  1  0.12812383  0.11363443  0.13087247  1
  O  O172  1  0.11998808  0.11590523  0.61957475  1
  O  O173  1  0.12042893  0.62438531  0.11833958  1
  O  O174  1  0.11112149  0.62919440  0.63022688  1
  O  O175  1  0.61717339  0.13116642  0.11714460  1
  O  O176  1  0.62855169  0.11140122  0.62396955  1
  O  O177  1  0.62441620  0.61601574  0.12250412  1
  O  O178  1  0.61880303  0.62618390  0.61960349  1
  O  O179  1  0.38143719  0.37824196  0.37763190  1
  O  O180  1  0.37123853  0.38105768  0.88214109  1
  O  O181  1  0.38709210  0.88280287  0.37173032  1
  O  O182  1  0.37878601  0.88090217  0.87867355  1
  O  O183  1  0.87266619  0.36687944  0.39035638  1
  O  O184  1  0.87309508  0.38522005  0.87741529  1
  O  O185  1  0.88867318  0.88286848  0.37114539  1
  O  O186  1  0.88261667  0.88913927  0.87063682  1
  O  O187  1  0.25827722  -0.00070024  0.36898384  1
  O  O188  1  0.25468353  0.01501697  0.88018499  1
  O  O189  1  0.25718505  0.49725390  0.37048008  1
  O  O190  1  0.25452844  0.51085503  0.87410260  1
  O  O191  1  0.75782927  0.00306442  0.36704745  1
  O  O192  1  0.75946173  0.00233438  0.87079875  1
  O  O193  1  0.75031494  0.50996236  0.36316925  1
  O  O194  1  0.76007467  0.50700765  0.87305065  1
  O  O195  1  0.24267275  0.49030017  0.11684176  1
  O  O196  1  0.26057797  0.48286453  0.62649290  1
  O  O197  1  0.24176807  0.99530346  0.13069647  1
  O  O198  1  0.23997481  0.99691022  0.62665017  1
  O  O199  1  0.74015215  0.50363974  0.13147733  1
  O  O200  1  0.75700693  0.50365706  0.64242279  1
  O  O201  1  0.75614045  0.98920495  0.13246851  1
  O  O202  1  0.74418602  0.99399483  0.62965048  1
  O  O203  1  0.01060440  0.36855955  0.24773724  1
  O  O204  1  0.00405781  0.36237949  0.74021774  1
  O  O205  1  0.01012792  0.87695894  0.25595743  1
  O  O206  1  0.01073181  0.87527559  0.76570060  1
  O  O207  1  0.50651857  0.37072394  0.25573062  1
  O  O208  1  0.49671131  0.36102245  0.75302989  1
  O  O209  1  0.51418195  0.87629232  0.25920852  1
  O  O210  1  0.50429139  0.87004647  0.75753946  1
  O  O211  1  0.49786996  0.12809411  0.24451171  1
  O  O212  1  0.48540175  0.13601743  0.75524097  1
  O  O213  1  0.49163508  0.62066235  0.24981609  1
  O  O214  1  0.48905230  0.63108537  0.75382881  1
  O  O215  1  0.99090944  0.13293988  0.25453348  1
  O  O216  1  0.99446682  0.13548990  0.74168386  1
  O  O217  1  0.99180654  0.62392258  0.23549878  1
  O  O218  1  0.99693530  0.63014100  0.73981990  1
  O  O219  1  0.36801906  0.25570862  0.00455300  1
  O  O220  1  0.38047913  0.25627169  0.50602617  1
  O  O221  1  0.37765340  0.76055424  0.00340792  1
  O  O222  1  0.36711358  0.75168226  0.51296075  1
  O  O223  1  0.86968843  0.24785140  0.01341786  1
  O  O224  1  0.86701975  0.25263491  0.50528827  1
  O  O225  1  0.86376003  0.74876594  0.00903674  1
  O  O226  1  0.86558007  0.75497694  0.51189827  1
  O  O227  1  0.12134608  0.23376466  0.50239345  1
  O  O228  1  0.13254727  0.25382160  0.99262969  1
  O  O229  1  0.14000920  0.74153791  0.49826150  1
  O  O230  1  0.12134128  0.74441018  0.98914464  1
  O  O231  1  0.63689561  0.24728638  0.49736420  1
  O  O232  1  0.63098769  0.24382603  0.99457070  1
  O  O233  1  0.63943299  0.75336351  0.50454654  1
  O  O234  1  0.63669347  0.75100176  0.99378482  1
  O  O235  1  0.49472991  0.24161491  0.12831691  1
  O  O236  1  0.48621837  0.25002519  0.63228682  1
  O  O237  1  0.48712739  0.74773444  0.11840897  1
  O  O238  1  0.48993554  0.74959164  0.63259417  1
  O  O239  1  0.98663436  0.25084248  0.13364529  1
  O  O240  1  0.98759580  0.24049405  0.63035968  1
  O  O241  1  0.99003813  0.74430304  0.11595647  1
  O  O242  1  0.99394566  0.74582285  0.62538440  1
  O  O243  1  0.00483553  0.25530253  0.36183975  1
  O  O244  1  0.00658961  0.24633804  0.86577479  1
  O  O245  1  -0.00494225  0.75965411  0.37262836  1
  O  O246  1  0.00567332  0.75823998  0.87665795  1
  O  O247  1  0.50173257  0.25901801  0.36934668  1
  O  O248  1  0.50648950  0.25099287  0.86922104  1
  O  O249  1  0.49500877  0.76349307  0.38483571  1
  O  O250  1  0.50576649  0.75594822  0.86829889  1
  O  O251  1  0.23385084  0.12098181  0.50142119  1
  O  O252  1  0.25495247  0.13648819  0.99368102  1
  O  O253  1  0.25492764  0.64154663  0.50484786  1
  O  O254  1  0.23585165  0.62067174  0.99443354  1
  O  O255  1  0.74971925  0.13077538  0.49140573  1
  O  O256  1  0.74250984  0.13401170  1.00021725  1
  O  O257  1  0.75157808  0.63315770  0.49068039  1
  O  O258  1  0.74972554  0.63445595  0.99404200  1
  O  O259  1  0.25208867  0.36527613  0.00939833  1
  O  O260  1  0.26089175  0.37293070  0.50373876  1
  O  O261  1  0.26243461  0.88137797  -0.00250119  1
  O  O262  1  0.25148344  0.85741066  0.49424802  1
  O  O263  1  0.74351348  0.36255147  -0.00052881  1
  O  O264  1  0.75746701  0.36665857  0.49818081  1
  O  O265  1  0.74523098  0.86987080  0.01104029  1
  O  O266  1  0.75444213  0.87098482  0.50527010  1
  O  O267  1  0.13474397  0.49825586  0.24713932  1
  O  O268  1  0.12192151  0.48437098  0.75820022  1
  O  O269  1  0.13036451  0.99444096  0.24367045  1
  O  O270  1  0.12014216  0.99583931  0.73515978  1
  O  O271  1  0.63455254  0.49352183  0.24315011  1
  O  O272  1  0.63996038  0.49956133  0.76167003  1
  O  O273  1  0.63721487  0.99360744  0.25245712  1
  O  O274  1  0.62825427  0.99783054  0.74530655  1
  O  O275  1  0.36846641  -0.00139415  0.25507396  1
  O  O276  1  0.37758653  0.00752463  0.76229682  1
  O  O277  1  0.37837891  0.50515287  0.26103298  1
  O  O278  1  0.37502304  0.50763088  0.75621866  1
  O  O279  1  0.86742176  0.00558268  0.25766312  1
  O  O280  1  0.87141849  0.00585810  0.75764909  1
  O  O281  1  0.86524062  0.51019551  0.23922011  1
  O  O282  1  0.86724948  0.50127740  0.76445746  1
  O  O283  1  0.12870743  0.37415627  0.36058387  1
  O  O284  1  0.13143472  0.36006387  0.86551885  1
  O  O285  1  0.11113270  0.88034300  0.36266650  1
  O  O286  1  0.12022238  0.87026908  0.87354587  1
  O  O287  1  0.61780644  0.37266154  0.36306182  1
  O  O288  1  0.62177896  0.36163185  0.86978809  1
  O  O289  1  0.61432968  0.87686385  0.36470469  1
  O  O290  1  0.62024348  0.87182689  0.86976034  1
  O  O291  1  0.38207144  0.12800429  0.12933357  1
  O  O292  1  0.36866641  0.13003606  0.63350160  1
  O  O293  1  0.37888226  0.63153122  0.13303267  1
  O  O294  1  0.37953082  0.63302299  0.63389386  1
  O  O295  1  0.87157389  0.12842539  0.13601087  1
  O  O296  1  0.88098618  0.12904267  0.62855358  1
  O  O297  1  0.88179856  0.63330373  0.12971479  1
  O  O298  1  0.88364970  0.63539383  0.62789149  1
  O  O299  1  0.25549984  0.25418933  0.11866699  1
  O  O300  1  0.26335107  0.25963701  0.62951636  1
  O  O301  1  0.26771158  0.75658488  0.12132210  1
  O  O302  1  0.26199133  0.74952506  0.62984166  1
  O  O303  1  0.76515456  0.24906160  0.11958452  1
  O  O304  1  0.76150589  0.24465827  0.61665039  1
  O  O305  1  0.75561703  0.75855398  0.11746473  1
  O  O306  1  0.75773381  0.75870636  0.62140350  1
  O  O307  1  0.24168317  0.23835442  0.36193493  1
  O  O308  1  0.24407439  0.24209881  0.88313898  1
  O  O309  1  0.25657341  0.74639876  0.38192213  1
  O  O310  1  0.24283437  0.73627691  0.87396417  1
  O  O311  1  0.75118469  0.23829474  0.38120928  1
  O  O312  1  0.74297072  0.24796359  0.88254506  1
  O  O313  1  0.75689688  0.74272022  0.38396887  1
  O  O314  1  0.75015844  0.74701790  0.88142677  1
  O  O315  1  0.00134021  0.11392437  -0.00265634  1
  O  O316  1  0.00937243  0.12683046  0.50921695  1
  O  O317  1  0.00941296  0.61894043  0.00801206  1
  O  O318  1  0.00140569  0.62614243  0.51425423  1
  O  O319  1  0.50803116  0.12522007  0.00896385  1
  O  O320  1  0.50356497  0.10937081  0.49210787  1
  O  O321  1  0.50318448  0.61192986  -0.00083300  1
  O  O322  1  0.49968270  0.60715772  0.49704506  1
  O  O323  1  0.49187835  0.38019070  0.49173272  1
  O  O324  1  0.49407671  0.38520650  0.99950769  1
  O  O325  1  0.49931570  0.88356070  0.48902662  1
  O  O326  1  0.49373534  0.87770955  0.99118679  1
  O  O327  1  0.98405845  0.37233230  0.50266725  1
  O  O328  1  1.00702643  0.38896638  1.00682894  1
  O  O329  1  1.00205782  0.87031505  0.48343033  1
  O  O330  1  1.00270433  0.88682599  0.98768462  1
  O  O331  1  0.49508476  0.48800173  0.37930936  1
  O  O332  1  0.49315752  0.49737994  0.88283075  1
  O  O333  1  0.49362178  0.99075579  0.38003513  1
  O  O334  1  0.49139387  0.99406175  0.87605556  1
  O  O335  1  0.98915790  0.49128930  0.38225499  1
  O  O336  1  0.98464729  0.50451033  0.88204405  1
  O  O337  1  0.98845979  0.99420046  0.36991863  1
  O  O338  1  0.99636035  0.99800829  0.88386334  1
  O  O339  1  0.00382902  -0.00185853  0.11252787  1
  O  O340  1  -0.00042064  0.01031956  0.62822348  1
  O  O341  1  0.00750562  0.50984597  0.11785506  1
  O  O342  1  -0.00877463  0.51465687  0.62491779  1
  O  O343  1  0.49675938  0.01194059  0.12470781  1
  O  O344  1  0.50802365  -0.00749685  0.61571266  1
  O  O345  1  0.51210317  0.50196766  0.11798973  1
  O  O346  1  0.49109773  0.49690259  0.60937020  1
  O  O347  1  0.24541199  0.37017447  0.23512036  1
  O  O348  1  0.24026832  0.37621803  0.74157797  1
  O  O349  1  0.23926042  0.88406137  0.25046753  1
  O  O350  1  0.23505261  0.87651430  0.76050253  1
  O  O351  1  0.74343202  0.38310599  0.25569317  1
  O  O352  1  0.74936842  0.39074133  0.75073731  1
  O  O353  1  0.73939555  0.87949968  0.24679630  1
  O  O354  1  0.74452897  0.88303600  0.74486652  1
  O  O355  1  0.25853097  0.10916543  0.24914062  1
  O  O356  1  0.26110827  0.13260990  0.75979562  1
  O  O357  1  0.25847223  0.61995486  0.24460754  1
  O  O358  1  0.25877840  0.62172419  0.75705072  1
  O  O359  1  0.75631859  0.11752662  0.25529478  1
  O  O360  1  0.75761753  0.11954659  0.75254507  1
  O  O361  1  0.75681627  0.61873801  0.25566069  1
  O  O362  1  0.75334995  0.61631238  0.75908582  1
  O  O363  1  0.37690884  0.11111956  0.36742752  1
  O  O364  1  0.36812453  0.11851669  0.87044815  1
  O  O365  1  0.37710206  0.61543896  0.36674357  1
  O  O366  1  0.36707037  0.62228101  0.87023184  1
  O  O367  1  0.86842040  0.11714381  0.36766896  1
  O  O368  1  0.87567879  0.11549642  0.86907122  1
  O  O369  1  0.87101328  0.63188634  0.36154581  1
  O  O370  1  0.86528856  0.62513573  0.87423803  1
  O  O371  1  0.13134581  0.38162518  0.13453487  1
  O  O372  1  0.13387284  0.36571500  0.63297985  1
  O  O373  1  0.12338687  0.88343435  0.13557000  1
  O  O374  1  0.11897391  0.88719583  0.63274362  1
  O  O375  1  0.62071047  0.38141586  0.13726031  1
  O  O376  1  0.63058763  0.36848626  0.63132176  1
  O  O377  1  0.63129841  0.87213987  0.13898774  1
  O  O378  1  0.63065334  0.88409906  0.63174479  1
  O  O379  1  0.11633352  0.25797092  0.24388302  1
  O  O380  1  0.11594991  0.25619551  0.75490523  1
  O  O381  1  0.12891679  0.76594397  0.24361134  1
  O  O382  1  0.12293303  0.75871189  0.76374626  1
  O  O383  1  0.62168986  0.25681172  0.25001016  1
  O  O384  1  0.61512443  0.24467366  0.75780178  1
  O  O385  1  0.62953806  0.75950676  0.25016175  1
  O  O386  1  0.62165523  0.75684009  0.75595967  1
  O  O387  1  0.38337513  0.24310673  0.24252753  1
  O  O388  1  0.37937168  0.24317952  0.74367559  1
  O  O389  1  0.37489049  0.74098324  0.24152329  1
  O  O390  1  0.37803058  0.74348319  0.74307748  1
  O  O391  1  0.87979478  0.24347987  0.24038662  1
  O  O392  1  0.87822248  0.24682544  0.74370021  1
  O  O393  1  0.86785076  0.74144939  0.23641325  1
  O  O394  1  0.87693943  0.75117865  0.73785460  1
  O  O395  1  0.38204269  0.49083156  0.48705182  1
  O  O396  1  0.38172278  0.49603327  0.99680394  1
  O  O397  1  0.38034584  0.99601066  0.49264622  1
  O  O398  1  0.37830768  0.99441298  0.98778219  1
  O  O399  1  0.86955289  0.48500788  0.50556534  1
  O  O400  1  0.88126313  0.50395712  0.98787566  1
  O  O401  1  0.87046907  0.99864070  0.48233775  1
  O  O402  1  0.88704582  1.00436139  0.99287971  1
  O  O403  1  0.11232319  -0.00076498  0.00882131  1
  O  O404  1  0.12577225  0.00565416  0.51574042  1
  O  O405  1  0.11770179  0.50760543  0.00163070  1
  O  O406  1  0.12270362  0.50861401  0.50035143  1
  O  O407  1  0.62364976  0.01526467  -0.00474912  1
  O  O408  1  0.61856953  -0.00052739  0.50805986  1
  O  O409  1  0.61987129  0.49877590  0.00626872  1
  O  O410  1  0.60973929  0.49419468  0.49348764  1
  O  O411  1  0.36915778  0.37158795  0.12059248  1
  O  O412  1  0.36942394  0.36547580  0.61422141  1
  O  O413  1  0.37611669  0.87057497  0.11494602  1
  O  O414  1  0.37639187  0.86136597  0.62646306  1
  O  O415  1  0.87573202  0.36497182  0.12853511  1
  O  O416  1  0.86720037  0.36561488  0.61580560  1
  O  O417  1  0.86405888  0.86723894  0.13271102  1
  O  O418  1  0.87102928  0.87175413  0.62444030  1
  O  O419  1  0.12239755  0.11887853  0.39218360  1
  O  O420  1  0.13313335  0.13709468  0.86681538  1
  O  O421  1  0.13860627  0.61489977  0.35715251  1
  O  O422  1  0.12868074  0.63162963  0.87983531  1
  O  O423  1  0.63921811  0.12358785  0.37493341  1
  O  O424  1  0.62526142  0.13562391  0.88304452  1
  O  O425  1  0.63731069  0.62389079  0.37891951  1
  O  O426  1  0.63867091  0.63307739  0.87757048  1
