# generated using pymatgen
data_V85Zn86O256
_symmetry_space_group_name_H-M   'P 1'
_cell_length_a   16.95113062
_cell_length_b   16.95616694
_cell_length_c   16.95365935
_cell_angle_alpha   89.91119751
_cell_angle_beta   89.93868908
_cell_angle_gamma   89.91313755
_symmetry_Int_Tables_number   1
_chemical_formula_structural   V85Zn86O256
_chemical_formula_sum   'V85 Zn86 O256'
_cell_volume   4872.91166229
_cell_formula_units_Z   1
loop_
 _symmetry_equiv_pos_site_id
 _symmetry_equiv_pos_as_xyz
  1  'x, y, z'
loop_
 _atom_site_type_symbol
 _atom_site_label
 _atom_site_symmetry_multiplicity
 _atom_site_fract_x
 _atom_site_fract_y
 _atom_site_fract_z
 _atom_site_occupancy
  V  V0  1  0.49890341  0.75384148  0.74160870  1
  V  V1  1  0.87143978  0.36254914  0.00254241  1
  V  V2  1  0.64475135  0.12613763  -0.00302654  1
  V  V3  1  0.63104776  0.50040151  0.11732053  1
  V  V4  1  0.62116399  0.37705871  0.75339508  1
  V  V5  1  -0.00397918  0.63005514  0.62076406  1
  V  V6  1  0.00915556  0.63197660  0.13051087  1
  V  V7  1  0.00676949  0.00200481  0.49892220  1
  V  V8  1  0.74801505  0.37753243  0.62595102  1
  V  V9  1  0.24738453  0.50378274  0.75617903  1
  V  V10  1  -0.00352656  0.37938997  0.37114277  1
  V  V11  1  0.49279375  0.49671427  0.00041433  1
  V  V12  1  0.87164670  0.63369080  0.74513006  1
  V  V13  1  0.62168984  0.12565258  0.50879928  1
  V  V14  1  0.49708007  0.00440157  0.49746994  1
  V  V15  1  0.36193495  0.36259859  0.50834881  1
  V  V16  1  0.12674295  0.37722030  0.23986164  1
  V  V17  1  0.75195749  0.87373654  0.12650365  1
  V  V18  1  -0.00287173  0.87452191  0.86862373  1
  V  V19  1  0.49691390  0.12573878  0.11462929  1
  V  V20  1  -0.00659404  0.50332569  0.49486429  1
  V  V21  1  0.24514157  0.00305031  0.75733723  1
  V  V22  1  0.62622423  0.87634601  0.25113405  1
  V  V23  1  0.50281055  0.74535831  0.25147691  1
  V  V24  1  0.75361919  0.36199371  0.12101392  1
  V  V25  1  0.87449647  0.24934284  0.62501967  1
  V  V26  1  0.49883927  0.37332998  0.37806224  1
  V  V27  1  0.12903217  0.36476923  0.74794158  1
  V  V28  1  0.75179668  0.62694698  0.87915043  1
  V  V29  1  0.74863798  0.25079614  0.50054012  1
  V  V30  1  0.62392045  0.62705647  0.50212209  1
  V  V31  1  0.87476026  0.12980174  0.24619449  1
  V  V32  1  0.12963916  0.49421581  0.61965334  1
  V  V33  1  -0.00377375  0.75491058  0.74316419  1
  V  V34  1  -0.00119881  0.12490243  0.62231963  1
  V  V35  1  0.00435274  0.00178358  -0.00186593  1
  V  V36  1  0.87858861  0.74706329  0.14003366  1
  V  V37  1  0.23946941  0.26516098  0.00411342  1
  V  V38  1  0.37677647  0.11475713  0.25037584  1
  V  V39  1  0.17121105  0.81412689  0.80813563  1
  V  V40  1  0.75088162  0.12546134  0.37563681  1
  V  V41  1  0.12498164  -0.00282040  0.12503165  1
  V  V42  1  0.62448712  0.74653953  0.87901285  1
  V  V43  1  0.75345036  0.75343738  0.51242243  1
  V  V44  1  0.74821451  0.00212798  0.74620263  1
  V  V45  1  0.25156249  0.49947657  0.23933254  1
  V  V46  1  -0.00110237  0.36807135  0.87144739  1
  V  V47  1  0.87338177  0.87330871  0.51299930  1
  V  V48  1  0.49365153  0.24401550  0.74220777  1
  V  V49  1  0.38180414  0.62569593  0.25113529  1
  V  V50  1  0.63635796  0.24690364  0.87708481  1
  V  V51  1  0.74831360  0.50207902  0.75081105  1
  V  V52  1  0.87662523  -0.00091870  0.37722322  1
  V  V53  1  0.87613317  0.86927041  0.00008634  1
  V  V54  1  -0.00005142  0.87165076  0.36951875  1
  V  V55  1  0.75117536  -0.00057019  0.25112627  1
  V  V56  1  0.86504667  0.00827902  0.87740169  1
  V  V57  1  0.12455746  0.74966810  0.36874176  1
  V  V58  1  0.00268273  0.12715790  0.12196433  1
  V  V59  1  0.87338335  0.50146720  0.87611225  1
  V  V60  1  0.62692965  0.37371050  0.24594449  1
  V  V61  1  0.22765306  0.13132095  0.88678864  1
  V  V62  1  0.37717038  0.75391918  0.11202777  1
  V  V63  1  0.37203612  0.88207130  0.49760966  1
  V  V64  1  0.49284817  0.87888318  0.37299284  1
  V  V65  1  0.25322332  0.12623456  0.37863452  1
  V  V66  1  0.24888378  0.87325921  0.62285313  1
  V  V67  1  -0.00154272  0.25066581  0.24568046  1
  V  V68  1  0.49735773  0.49945767  0.50695755  1
  V  V69  1  -0.00033181  0.50271298  0.00327780  1
  V  V70  1  0.62360457  -0.00736143  0.62431870  1
  V  V71  1  0.13333879  0.24799956  0.37410834  1
  V  V72  1  0.75074850  0.74158225  0.00260340  1
  V  V73  1  0.48871549  0.37197121  0.88173263  1
  V  V74  1  0.25196939  0.62413222  0.37496618  1
  V  V75  1  0.49754816  0.24768304  0.24514758  1
  V  V76  1  0.25743428  0.74659112  0.50249503  1
  V  V77  1  0.37732850  0.49876586  0.37603026  1
  V  V78  1  0.12526626  -0.00491945  0.63046328  1
  V  V79  1  0.25029530  -0.00301954  0.25340572  1
  V  V80  1  0.49921932  0.87415330  0.88373877  1
  V  V81  1  0.50842379  0.62360905  0.11910074  1
  V  V82  1  0.62531112  0.24751210  0.37544752  1
  V  V83  1  0.87401921  0.37775940  0.49713366  1
  V  V84  1  0.37270504  0.00224438  0.88928567  1
  Zn  Zn85  1  0.48905674  0.63102642  0.62586767  1
  Zn  Zn86  1  0.37128078  0.26867569  0.10773548  1
  Zn  Zn87  1  0.36811142  0.62990617  0.75082315  1
  Zn  Zn88  1  0.76106828  0.62286415  0.37622254  1
  Zn  Zn89  1  0.62501897  0.00119780  0.12236654  1
  Zn  Zn90  1  0.86777927  0.12984266  0.75485882  1
  Zn  Zn91  1  0.13165630  0.50070047  0.11588861  1
  Zn  Zn92  1  0.26055100  0.87821941  0.11973078  1
  Zn  Zn93  1  0.75728476  0.50085273  0.25461010  1
  Zn  Zn94  1  0.12562359  0.62338203  0.49799026  1
  Zn  Zn95  1  0.24037066  0.75152988  -0.01069407  1
  Zn  Zn96  1  0.62045418  0.50410363  0.63053038  1
  Zn  Zn97  1  0.35772047  0.50333654  0.88948753  1
  Zn  Zn98  1  0.12444636  0.86976359  0.24578701  1
  Zn  Zn99  1  -0.00160676  0.24614763  0.75229681  1
  Zn  Zn100  1  0.50054677  -0.00257669  0.00148456  1
  Zn  Zn101  1  0.17346203  0.17130849  0.53784657  1
  Zn  Zn102  1  0.37294509  0.13033296  0.75408835  1
  Zn  Zn103  1  0.14813136  0.62376417  -0.03622915  1
  Zn  Zn104  1  0.63074233  0.87368684  0.75085747  1
  Zn  Zn105  1  0.88184783  0.60661923  0.26191586  1
  Zn  Zn106  1  0.62884293  0.75257464  0.37833789  1
  Zn  Zn107  1  0.18736573  0.18596878  0.18462214  1
  Zn  Zn108  1  0.18737400  0.18432690  0.69862695  1
  Zn  Zn109  1  0.19134971  0.68644126  0.18578549  1
  Zn  Zn110  1  0.18830345  0.67940294  0.67781002  1
  Zn  Zn111  1  0.68572678  0.18526615  0.18393329  1
  Zn  Zn112  1  0.68482712  0.18598105  0.69163523  1
  Zn  Zn113  1  0.69075803  0.68421477  0.19108208  1
  Zn  Zn114  1  0.68046464  0.68718069  0.68766871  1
  Zn  Zn115  1  0.32201245  0.31899599  0.28444229  1
  Zn  Zn116  1  0.30900861  0.31036559  0.81738090  1
  Zn  Zn117  1  0.31403728  0.81321132  0.30863899  1
  Zn  Zn118  1  0.33425111  0.82676144  0.80543891  1
  Zn  Zn119  1  0.81461018  0.31558551  0.30938948  1
  Zn  Zn120  1  0.81302671  0.31454401  0.81202091  1
  Zn  Zn121  1  0.81081831  0.80806790  0.32303088  1
  Zn  Zn122  1  0.81106467  0.81666078  0.81109990  1
  Zn  Zn123  1  0.18461626  0.43579367  0.43033757  1
  Zn  Zn124  1  0.17885517  0.43156070  0.93417259  1
  Zn  Zn125  1  0.18617128  0.94014209  0.43608677  1
  Zn  Zn126  1  0.19237165  0.93743310  0.94851933  1
  Zn  Zn127  1  0.68484246  0.43979782  0.43912014  1
  Zn  Zn128  1  0.68626457  0.43590755  0.93825220  1
  Zn  Zn129  1  0.68819135  0.93498093  0.43849977  1
  Zn  Zn130  1  0.68718252  0.93677558  0.93783548  1
  Zn  Zn131  1  0.30970767  0.07174231  0.06494962  1
  Zn  Zn132  1  0.33923191  0.19345465  0.58714039  1
  Zn  Zn133  1  0.31490956  0.57302054  0.05982990  1
  Zn  Zn134  1  0.31613498  0.55912517  0.56792764  1
  Zn  Zn135  1  0.81791293  0.05955504  0.06636806  1
  Zn  Zn136  1  0.81139734  0.06101606  0.56394915  1
  Zn  Zn137  1  0.81925648  0.56063401  0.07020983  1
  Zn  Zn138  1  0.81097066  0.56472395  0.56156554  1
  Zn  Zn139  1  0.43870547  0.43715604  0.18543381  1
  Zn  Zn140  1  0.43115199  0.42963725  0.68670163  1
  Zn  Zn141  1  0.44079558  0.93784466  0.18422392  1
  Zn  Zn142  1  0.39582009  0.99676650  0.64540459  1
  Zn  Zn143  1  0.93727987  0.43914661  0.18300537  1
  Zn  Zn144  1  0.93767831  0.44098719  0.68542890  1
  Zn  Zn145  1  0.93759659  0.93826793  0.18785574  1
  Zn  Zn146  1  0.93390411  0.94187066  0.68991720  1
  Zn  Zn147  1  0.06636175  0.06293839  0.31153940  1
  Zn  Zn148  1  0.05720567  0.06067104  0.80860275  1
  Zn  Zn149  1  0.06389069  0.56282391  0.31067622  1
  Zn  Zn150  1  0.05807627  0.55266171  0.80351769  1
  Zn  Zn151  1  0.56362954  0.06170802  0.31335010  1
  Zn  Zn152  1  0.56324882  0.06186533  0.81680985  1
  Zn  Zn153  1  0.59132432  0.55022909  0.32456756  1
  Zn  Zn154  1  0.55567448  0.56713679  0.81942226  1
  Zn  Zn155  1  0.43527150  0.18371901  0.42859958  1
  Zn  Zn156  1  0.43032473  0.19084592  0.93488387  1
  Zn  Zn157  1  0.43898494  0.68996063  0.43930191  1
  Zn  Zn158  1  0.43581545  0.67796795  0.93189511  1
  Zn  Zn159  1  0.94095611  0.18941423  0.43555393  1
  Zn  Zn160  1  0.93901164  0.18642245  0.93950791  1
  Zn  Zn161  1  0.93489958  0.69092917  0.43526912  1
  Zn  Zn162  1  0.98153909  0.67232719  0.92111837  1
  Zn  Zn163  1  0.06364191  0.31078274  0.05901622  1
  Zn  Zn164  1  0.06217329  0.31452299  0.56080076  1
  Zn  Zn165  1  0.06923210  0.80936261  0.05497168  1
  Zn  Zn166  1  0.06604950  0.81150991  0.55511283  1
  Zn  Zn167  1  0.56594927  0.30828541  0.05904944  1
  Zn  Zn168  1  0.55983152  0.31385575  0.56534377  1
  Zn  Zn169  1  0.56680436  0.81052238  0.06305296  1
  Zn  Zn170  1  0.56419363  0.81734585  0.56078376  1
  O  O171  1  0.11021937  0.11206909  0.13358849  1
  O  O172  1  0.11501232  0.11211766  0.62354895  1
  O  O173  1  0.11405268  0.62310796  0.12755034  1
  O  O174  1  0.11444125  0.61283901  0.61884206  1
  O  O175  1  0.61846738  0.12583830  0.11146317  1
  O  O176  1  0.62772524  0.11869689  0.61248354  1
  O  O177  1  0.61752257  0.61498531  0.12918428  1
  O  O178  1  0.61542264  0.62376441  0.61471901  1
  O  O179  1  0.38871734  0.37701292  0.37454617  1
  O  O180  1  0.38719431  0.38192398  0.87215211  1
  O  O181  1  0.38331873  0.87369148  0.38023680  1
  O  O182  1  0.38701261  0.88713055  0.88156391  1
  O  O183  1  0.88884806  0.36671031  0.38138123  1
  O  O184  1  0.87528681  0.38170013  0.88417654  1
  O  O185  1  0.88264722  0.88088136  0.38310570  1
  O  O186  1  0.87918369  0.88539756  0.88273559  1
  O  O187  1  0.24191390  0.00700582  0.35886709  1
  O  O188  1  0.25142795  0.00731282  0.87550345  1
  O  O189  1  0.25497807  0.51191348  0.37106146  1
  O  O190  1  0.24313381  0.49652350  0.86101509  1
  O  O191  1  0.75556366  0.00567965  0.37102925  1
  O  O192  1  0.75662017  -0.00125968  0.86755590  1
  O  O193  1  0.70655806  0.51581566  0.36087195  1
  O  O194  1  0.75491782  0.50676727  0.87280812  1
  O  O195  1  0.25222977  0.50780147  0.13607507  1
  O  O196  1  0.23302360  0.49907134  0.62811966  1
  O  O197  1  0.24035195  1.00225390  0.13188582  1
  O  O198  1  0.23778411  0.99168042  0.63921097  1
  O  O199  1  0.74245436  0.48983404  0.12525438  1
  O  O200  1  0.74626756  0.49371991  0.63146737  1
  O  O201  1  0.75063284  0.99136724  0.13382062  1
  O  O202  1  0.74123821  1.00360868  0.63563657  1
  O  O203  1  0.00526677  0.36809241  0.25372839  1
  O  O204  1  0.00315647  0.37507584  0.75623552  1
  O  O205  1  0.00076347  0.88200953  0.26616824  1
  O  O206  1  -0.00496581  0.86961441  0.75458099  1
  O  O207  1  0.51190921  0.36555447  0.25678149  1
  O  O208  1  0.50471802  0.36998154  0.75978363  1
  O  O209  1  0.50719488  0.87045855  0.25507748  1
  O  O210  1  0.50855377  0.86005614  0.76840064  1
  O  O211  1  0.49886914  0.12755736  0.24036258  1
  O  O212  1  0.50314704  0.14275189  0.75950539  1
  O  O213  1  0.50238497  0.63230988  0.24509042  1
  O  O214  1  0.51168033  0.64459883  0.74733068  1
  O  O215  1  0.99309081  0.13140062  0.24627107  1
  O  O216  1  0.99280133  0.12522424  0.73593753  1
  O  O217  1  0.99964279  0.62034043  0.23451935  1
  O  O218  1  0.98927538  0.63160473  0.73776781  1
  O  O219  1  0.35425692  0.24614222  -0.00214270  1
  O  O220  1  0.38131373  0.25723973  0.49845351  1
  O  O221  1  0.38358139  0.74490391  0.01199543  1
  O  O222  1  0.36386375  0.76210212  0.49528659  1
  O  O223  1  0.87601629  0.26404269  -0.00245140  1
  O  O224  1  0.87016615  0.25558073  0.50829067  1
  O  O225  1  0.86896160  0.76334144  0.00809554  1
  O  O226  1  0.86310612  0.75907107  0.50082598  1
  O  O227  1  0.11488790  0.25164049  0.47957599  1
  O  O228  1  0.13717138  0.25246321  0.99667813  1
  O  O229  1  0.14087808  0.74893572  0.48722964  1
  O  O230  1  0.12384222  0.73685554  0.99489437  1
  O  O231  1  0.62712976  0.24340148  0.49736507  1
  O  O232  1  0.62555628  0.23621846  0.99203400  1
  O  O233  1  0.63447162  0.74720817  0.50276875  1
  O  O234  1  0.64175316  0.75280431  0.99580024  1
  O  O235  1  0.49759347  0.24446371  0.13097745  1
  O  O236  1  0.50176351  0.25383678  0.64304779  1
  O  O237  1  0.49823766  0.74167712  0.13021107  1
  O  O238  1  0.50529067  0.75773830  0.63934733  1
  O  O239  1  1.00564724  0.24204982  0.13618291  1
  O  O240  1  0.99126689  0.24195216  0.62187858  1
  O  O241  1  0.99375905  0.73834117  0.12178205  1
  O  O242  1  1.00703974  0.73790623  0.62423825  1
  O  O243  1  0.00700040  0.25387373  0.36182957  1
  O  O244  1  -0.01043019  0.26331433  0.87145927  1
  O  O245  1  0.01253076  0.76039237  0.38471065  1
  O  O246  1  -0.01232140  0.76967871  0.86342426  1
  O  O247  1  0.50798701  0.25509807  0.36862181  1
  O  O248  1  0.50634842  0.26235500  0.87260069  1
  O  O249  1  0.50127659  0.76165642  0.36718702  1
  O  O250  1  0.51008558  0.75386485  0.87728967  1
  O  O251  1  0.25538749  0.11632186  0.47893979  1
  O  O252  1  0.24274007  0.12387408  0.98826854  1
  O  O253  1  0.25218552  0.63096707  0.49318417  1
  O  O254  1  0.25600742  0.63597509  0.99087687  1
  O  O255  1  0.74320514  0.13139669  0.49520606  1
  O  O256  1  0.74310099  0.12371199  1.00579216  1
  O  O257  1  0.74065117  0.63292706  0.50048063  1
  O  O258  1  0.76274042  0.63553478  0.99796108  1
  O  O259  1  0.24667911  0.36581947  -0.00353507  1
  O  O260  1  0.26524581  0.37526534  0.48675255  1
  O  O261  1  0.24699601  0.86367065  0.00897988  1
  O  O262  1  0.25485094  0.87169857  0.50341586  1
  O  O263  1  0.76284515  0.37821056  0.00564256  1
  O  O264  1  0.75219702  0.37133349  0.50365809  1
  O  O265  1  0.75786314  0.87036669  0.00790245  1
  O  O266  1  0.75770427  0.86378061  0.49831648  1
  O  O267  1  0.13431488  0.49438617  0.24730688  1
  O  O268  1  0.13033591  0.48976259  0.74021006  1
  O  O269  1  0.13216435  0.99606948  0.24205142  1
  O  O270  1  0.13086159  0.99918668  0.74335494  1
  O  O271  1  0.61712702  0.48454991  0.23227792  1
  O  O272  1  0.62797507  0.49304704  0.75269319  1
  O  O273  1  0.63280750  0.99298945  0.24830071  1
  O  O274  1  0.63048347  1.00155779  0.74244099  1
  O  O275  1  0.36785110  0.00672990  0.24255527  1
  O  O276  1  0.35236120  -0.00908680  0.76074864  1
  O  O277  1  0.37116960  0.50772062  0.25815176  1
  O  O278  1  0.34870186  0.48575090  0.74431753  1
  O  O279  1  0.87055032  0.00764141  0.25763713  1
  O  O280  1  0.86371422  0.00335455  0.75820084  1
  O  O281  1  0.87031534  0.49024268  0.25283797  1
  O  O282  1  0.86778051  0.50730235  0.75603327  1
  O  O283  1  0.11298150  0.36803672  0.36556877  1
  O  O284  1  0.11062795  0.37950068  0.85794475  1
  O  O285  1  0.11825467  0.86763923  0.37414907  1
  O  O286  1  0.11744646  0.87736595  0.87096566  1
  O  O287  1  0.61573520  0.36739095  0.36835255  1
  O  O288  1  0.62012234  0.36777953  0.86723372  1
  O  O289  1  0.61901312  0.87392655  0.36395727  1
  O  O290  1  0.62324186  0.86296546  0.87595029  1
  O  O291  1  0.38335503  0.13037190  0.13381140  1
  O  O292  1  0.37811220  0.10801647  0.64318829  1
  O  O293  1  0.39057892  0.63291184  0.13308553  1
  O  O294  1  0.37667903  0.62047398  0.63684859  1
  O  O295  1  0.88622110  0.11907015  0.13850935  1
  O  O296  1  0.87877249  0.13444095  0.62472062  1
  O  O297  1  0.88445559  0.63382089  0.13375667  1
  O  O298  1  0.88362121  0.61924255  0.63317327  1
  O  O299  1  0.24814117  0.24401422  0.10859617  1
  O  O300  1  0.23687602  0.23181725  0.61136440  1
  O  O301  1  0.27275399  0.74618595  0.13057813  1
  O  O302  1  0.24217302  0.75937276  0.61431026  1
  O  O303  1  0.74897858  0.26262039  0.12884688  1
  O  O304  1  0.75455395  0.25598946  0.62012191  1
  O  O305  1  0.75832792  0.75415258  0.11978522  1
  O  O306  1  0.74760422  0.74526992  0.61190136  1
  O  O307  1  0.24228977  0.24089475  0.36039750  1
  O  O308  1  0.24736626  0.23694948  0.88237725  1
  O  O309  1  0.24951831  0.73930896  0.37805218  1
  O  O310  1  0.24315267  0.76412644  0.85787317  1
  O  O311  1  0.74495279  0.24654306  0.38086738  1
  O  O312  1  0.73564383  0.25175610  0.86732982  1
  O  O313  1  0.74538584  0.74505374  0.39023030  1
  O  O314  1  0.74815794  0.74668018  0.88390449  1
  O  O315  1  -0.00736933  0.11579625  0.01127095  1
  O  O316  1  -0.00749054  0.11572613  0.51033162  1
  O  O317  1  -0.01324599  0.61322841  0.01879043  1
  O  O318  1  0.00135574  0.61817878  0.50442208  1
  O  O319  1  0.49995727  0.12773658  0.00946776  1
  O  O320  1  0.50995431  0.11558189  0.48763178  1
  O  O321  1  0.50203945  0.61323236  0.01062387  1
  O  O322  1  0.49962945  0.61609395  0.50549659  1
  O  O323  1  0.49502745  0.37901929  0.49294713  1
  O  O324  1  0.50224136  0.37700899  0.98919460  1
  O  O325  1  0.49271751  0.87804359  0.49096241  1
  O  O326  1  0.51149050  0.87807672  0.98930829  1
  O  O327  1  0.99438601  0.38211052  0.49072344  1
  O  O328  1  0.99030275  0.38030174  0.99489097  1
  O  O329  1  0.99348576  0.88276656  0.49219036  1
  O  O330  1  0.99264481  0.88159208  0.99209126  1
  O  O331  1  0.50012903  0.49056654  0.38524798  1
  O  O332  1  0.50982575  0.48421536  0.88616578  1
  O  O333  1  0.50771354  0.98767507  0.38324000  1
  O  O334  1  0.49173170  0.99303497  0.87705516  1
  O  O335  1  1.00785676  0.49028471  0.38321604  1
  O  O336  1  0.98757490  0.48707200  0.87983423  1
  O  O337  1  0.99782685  0.99698461  0.38291127  1
  O  O338  1  0.99286401  0.99219464  0.88042023  1
  O  O339  1  0.00311226  0.00592852  0.11784389  1
  O  O340  1  0.00382530  0.00525319  0.61933107  1
  O  O341  1  0.00434209  0.50715354  0.11648123  1
  O  O342  1  0.00580537  0.50821290  0.61598336  1
  O  O343  1  0.50406762  0.01020485  0.12156933  1
  O  O344  1  0.50886262  -0.00323756  0.60549968  1
  O  O345  1  0.50523521  0.50409856  0.11920058  1
  O  O346  1  0.49851704  0.49297418  0.61487173  1
  O  O347  1  0.23523519  0.39089520  0.26624024  1
  O  O348  1  0.23265883  0.37691604  0.75448423  1
  O  O349  1  0.25030127  0.88319695  0.24142703  1
  O  O350  1  0.23851536  0.87400722  0.74707808  1
  O  O351  1  0.73794406  0.37295677  0.24484174  1
  O  O352  1  0.74145516  0.38232093  0.74679181  1
  O  O353  1  0.74345284  0.87733163  0.24876711  1
  O  O354  1  0.74819604  0.89336168  0.75332183  1
  O  O355  1  0.26022681  0.11753420  0.25081422  1
  O  O356  1  0.24688954  0.11652233  0.76855373  1
  O  O357  1  0.25823129  0.61846835  0.25776344  1
  O  O358  1  0.24429736  0.60769643  0.74844770  1
  O  O359  1  0.75718709  0.12186181  0.25316315  1
  O  O360  1  0.74992631  0.11093415  0.74941895  1
  O  O361  1  0.75763573  0.62231125  0.25385070  1
  O  O362  1  0.75496367  0.62117106  0.75444237  1
  O  O363  1  0.36692168  0.11932076  0.36298643  1
  O  O364  1  0.36961455  0.11446725  0.87059991  1
  O  O365  1  0.37152998  0.62011855  0.37111428  1
  O  O366  1  0.39341438  0.60621521  0.85932543  1
  O  O367  1  0.87075076  0.12060657  0.36723363  1
  O  O368  1  0.88097921  0.11178921  0.87478093  1
  O  O369  1  0.87582078  0.62200309  0.37535057  1
  O  O370  1  0.87358101  0.61881639  0.86519213  1
  O  O371  1  0.12010894  0.37936447  0.13659688  1
  O  O372  1  0.11327786  0.38200314  0.63783107  1
  O  O373  1  0.11742415  0.88775012  0.12774826  1
  O  O374  1  0.13273821  0.88632070  0.61590027  1
  O  O375  1  0.63162752  0.37631662  0.12923668  1
  O  O376  1  0.62906015  0.37532675  0.63901340  1
  O  O377  1  0.63062214  0.87624204  0.13731150  1
  O  O378  1  0.62549282  0.88977774  0.62617539  1
  O  O379  1  0.11943572  0.25792192  0.25412285  1
  O  O380  1  0.11681227  0.26174291  0.74780220  1
  O  O381  1  0.13362355  0.75117061  0.26360930  1
  O  O382  1  0.11916497  0.75063334  0.74603692  1
  O  O383  1  0.61559176  0.25199809  0.25288711  1
  O  O384  1  0.61576460  0.25688663  0.75716660  1
  O  O385  1  0.61590998  0.75743761  0.24952255  1
  O  O386  1  0.62225654  0.75417735  0.76077245  1
  O  O387  1  0.39381380  0.23008773  0.26319597  1
  O  O388  1  0.38839247  0.25228476  0.75607655  1
  O  O389  1  0.39002452  0.74536739  0.24641972  1
  O  O390  1  0.39461608  0.74940112  0.75219563  1
  O  O391  1  0.88413464  0.24050328  0.25404451  1
  O  O392  1  0.87436261  0.25072606  0.73668116  1
  O  O393  1  0.87379377  0.75796682  0.23976912  1
  O  O394  1  0.87601826  0.73981296  0.75028231  1
  O  O395  1  0.38082651  0.48839563  0.49329476  1
  O  O396  1  0.38809486  0.49779330  1.00504275  1
  O  O397  1  0.38549979  0.98688618  0.49919926  1
  O  O398  1  0.37514761  1.00602516  0.99251077  1
  O  O399  1  0.88590314  0.49341308  0.50462830  1
  O  O400  1  0.88340951  0.49287052  0.99500861  1
  O  O401  1  0.88210186  0.99467387  0.49513346  1
  O  O402  1  0.88183946  0.99082278  0.99541697  1
  O  O403  1  0.11023909  -0.00245895  0.00666153  1
  O  O404  1  0.11227176  -0.00169491  0.50596670  1
  O  O405  1  0.11193213  0.50375070  -0.00299517  1
  O  O406  1  0.11448401  0.49634006  0.50445349  1
  O  O407  1  0.62505351  0.01470671  0.00041282  1
  O  O408  1  0.62267287  0.00643264  0.50518202  1
  O  O409  1  0.61538940  0.49111059  0.01268749  1
  O  O410  1  0.61339314  0.50721649  0.50614689  1
  O  O411  1  0.36650868  0.35516967  0.17776944  1
  O  O412  1  0.37065222  0.37204943  0.60715288  1
  O  O413  1  0.38341245  0.85686156  0.12679926  1
  O  O414  1  0.35606105  0.88608280  0.61673625  1
  O  O415  1  0.86913157  0.37619635  0.11024088  1
  O  O416  1  0.86939022  0.36880508  0.61844343  1
  O  O417  1  0.87330188  0.86988291  0.11875824  1
  O  O418  1  0.87868576  0.88037399  0.61175538  1
  O  O419  1  0.13660759  0.13576976  0.36550594  1
  O  O420  1  0.12930079  0.12217158  0.87515467  1
  O  O421  1  0.13425547  0.63051323  0.37679170  1
  O  O422  1  0.08007534  0.63074966  0.87597689  1
  O  O423  1  0.63284793  0.12932347  0.38205843  1
  O  O424  1  0.62288701  0.13155031  0.88999244  1
  O  O425  1  0.60907825  0.63702092  0.39622258  1
  O  O426  1  0.63580835  0.63788593  0.87507236  1
