# generated using pymatgen
data_V85Zn86O256
_symmetry_space_group_name_H-M   'P 1'
_cell_length_a   16.90955102
_cell_length_b   16.90165573
_cell_length_c   16.90497352
_cell_angle_alpha   90.02544583
_cell_angle_beta   90.04439355
_cell_angle_gamma   89.96029875
_symmetry_Int_Tables_number   1
_chemical_formula_structural   V85Zn86O256
_chemical_formula_sum   'V85 Zn86 O256'
_cell_volume   4831.42836988
_cell_formula_units_Z   1
loop_
 _symmetry_equiv_pos_site_id
 _symmetry_equiv_pos_as_xyz
  1  'x, y, z'
loop_
 _atom_site_type_symbol
 _atom_site_label
 _atom_site_symmetry_multiplicity
 _atom_site_fract_x
 _atom_site_fract_y
 _atom_site_fract_z
 _atom_site_occupancy
  V  V0  1  -0.00546736  0.50670140  0.49448591  1
  V  V1  1  0.00152309  0.49915981  0.00258648  1
  V  V2  1  0.87897354  0.25164865  0.13357461  1
  V  V3  1  0.51404476  0.24943891  0.25133434  1
  V  V4  1  0.25313276  0.38136920  0.13292553  1
  V  V5  1  0.50028563  0.12210893  0.12397362  1
  V  V6  1  0.74536480  0.50818245  0.74986811  1
  V  V7  1  0.62103483  0.76237412  0.87577407  1
  V  V8  1  0.25038067  0.49643627  0.75498654  1
  V  V9  1  0.62259254  0.38292069  0.74741789  1
  V  V10  1  0.37571448  0.24855281  0.12453797  1
  V  V11  1  0.37340165  0.37658666  -0.00974405  1
  V  V12  1  -0.00154117  0.13473288  0.62999615  1
  V  V13  1  0.12369713  0.12803618  0.49670892  1
  V  V14  1  0.87104834  0.87999381  0.49759503  1
  V  V15  1  -0.00189923  0.87393610  0.86331291  1
  V  V16  1  0.62664960  -0.00205988  0.12489406  1
  V  V17  1  0.51629518  0.37143608  0.36931255  1
  V  V18  1  0.37461128  -0.01668780  0.87876186  1
  V  V19  1  0.24907509  0.24351145  -0.00304079  1
  V  V20  1  0.61846373  0.01068164  0.62765004  1
  V  V21  1  0.75389928  -0.00229422  0.26103374  1
  V  V22  1  0.11943002  0.50568450  0.62339028  1
  V  V23  1  0.62447986  0.62410743  0.00647597  1
  V  V24  1  0.25587452  0.62183863  0.87716314  1
  V  V25  1  0.74345950  0.00383376  0.75361613  1
  V  V26  1  0.24859359  0.74757325  0.49693656  1
  V  V27  1  0.11193185  0.37506273  0.24922684  1
  V  V28  1  -0.00684617  0.00375504  0.49451198  1
  V  V29  1  0.37265893  0.87908233  0.49613744  1
  V  V30  1  0.25163247  0.11989027  0.37291740  1
  V  V31  1  0.37923115  0.75602484  0.12103837  1
  V  V32  1  0.12290122  0.75030800  0.86703822  1
  V  V33  1  0.49687157  0.00559568  0.50108502  1
  V  V34  1  0.25449516  0.76647601  0.00252667  1
  V  V35  1  0.12677885  0.62488264  0.00055668  1
  V  V36  1  0.37714757  0.61896178  0.75164556  1
  V  V37  1  0.25527171  -0.00945483  0.24882119  1
  V  V38  1  0.75148660  0.74809169  0.00009536  1
  V  V39  1  0.87769911  0.12290809  0.26108850  1
  V  V40  1  0.62428955  0.74724958  0.37791986  1
  V  V41  1  0.12195215  0.86745263  0.24767349  1
  V  V42  1  0.24989288  0.62019293  0.36655335  1
  V  V43  1  0.75340242  0.87492611  0.12749889  1
  V  V44  1  0.12423975  0.24262114  0.86709632  1
  V  V45  1  0.75145468  0.24477302  -0.00171359  1
  V  V46  1  0.88555916  0.74914868  0.13051451  1
  V  V47  1  0.75606651  0.62043019  0.37685976  1
  V  V48  1  0.37504289  0.74860500  0.62507241  1
  V  V49  1  0.50115315  0.76172913  0.75453270  1
  V  V50  1  -0.00225297  0.87030653  0.37282645  1
  V  V51  1  0.74962771  0.74992439  0.50426750  1
  V  V52  1  0.49697097  -0.01398461  -0.00397101  1
  V  V53  1  0.88788078  0.75183948  0.63044793  1
  V  V54  1  0.12401768  0.00054625  0.62528128  1
  V  V55  1  0.50275969  0.24514486  0.74531453  1
  V  V56  1  0.74888665  0.49761197  0.25214710  1
  V  V57  1  0.00311834  0.12841049  0.13035152  1
  V  V58  1  0.00097362  0.00047335  0.00041167  1
  V  V59  1  0.37548729  0.37574241  0.49530201  1
  V  V60  1  0.87477604  0.37502477  0.00082808  1
  V  V61  1  0.89236496  0.62940295  0.74964574  1
  V  V62  1  0.87693043  0.87455469  -0.00058484  1
  V  V63  1  0.88462101  0.62404268  0.25492431  1
  V  V64  1  0.73926557  0.37462714  0.12808366  1
  V  V65  1  0.62494990  0.12254928  -0.00682782  1
  V  V66  1  0.24920470  0.37460661  0.62228678  1
  V  V67  1  0.13069184  -0.00502173  0.12437756  1
  V  V68  1  0.87008822  0.00721409  0.87572142  1
  V  V69  1  0.50046040  0.73761465  0.24750485  1
  V  V70  1  0.50693818  0.61729153  0.62557261  1
  V  V71  1  0.74399523  0.24982807  0.49532673  1
  V  V72  1  0.49647782  0.87740846  0.37331486  1
  V  V73  1  0.37729807  0.11927851  0.25310986  1
  V  V74  1  0.37782369  0.24164153  0.62242964  1
  V  V75  1  0.49331982  0.50723752  -0.00036379  1
  V  V76  1  0.62790458  0.24916511  0.87270165  1
  V  V77  1  0.24846407  0.00364786  0.75366935  1
  V  V78  1  0.37453308  0.12650773  0.76177809  1
  V  V79  1  0.37266760  0.49554287  0.36243126  1
  V  V80  1  0.87346682  0.13322978  0.75388304  1
  V  V81  1  0.87503971  0.37697567  0.49442334  1
  V  V82  1  -0.00009022  0.37227580  0.86676367  1
  V  V83  1  0.74820681  0.38090427  0.62496582  1
  V  V84  1  0.74007478  0.87627487  0.63003763  1
  Zn  Zn85  1  0.12161257  0.74398076  0.36880091  1
  Zn  Zn86  1  0.37488814  0.61844987  0.23998814  1
  Zn  Zn87  1  0.24907643  0.87513818  0.62481773  1
  Zn  Zn88  1  0.24901875  0.25023762  0.49397867  1
  Zn  Zn89  1  0.74984206  0.62631323  0.87492339  1
  Zn  Zn90  1  0.11721782  0.24467973  0.36065206  1
  Zn  Zn91  1  0.11858052  0.37040525  0.74473050  1
  Zn  Zn92  1  0.87400978  0.50248281  0.87560811  1
  Zn  Zn93  1  0.62476335  0.87266582  0.25006431  1
  Zn  Zn94  1  0.61902843  0.50325056  0.13044387  1
  Zn  Zn95  1  0.12286825  0.87203888  0.74513059  1
  Zn  Zn96  1  0.87665180  0.25584447  0.63059357  1
  Zn  Zn97  1  0.74316990  0.12676571  0.37598563  1
  Zn  Zn98  1  0.61405255  0.13303899  0.49608919  1
  Zn  Zn99  1  -0.00691991  0.37074648  0.37236902  1
  Zn  Zn100  1  0.50478515  0.49694249  0.50085702  1
  Zn  Zn101  1  0.63094326  0.61784846  0.50719635  1
  Zn  Zn102  1  0.49682403  0.38010268  0.87245458  1
  Zn  Zn103  1  0.12316373  0.62587887  0.49999268  1
  Zn  Zn104  1  0.13224855  0.50458746  0.12941463  1
  Zn  Zn105  1  0.00691869  0.62817163  0.13302669  1
  Zn  Zn106  1  0.12891619  0.12368039  -0.00125084  1
  Zn  Zn107  1  0.18964609  0.18871064  0.18570867  1
  Zn  Zn108  1  0.19067968  0.18586295  0.68673329  1
  Zn  Zn109  1  0.19441425  0.68952832  0.18353996  1
  Zn  Zn110  1  0.18954766  0.68526040  0.68609495  1
  Zn  Zn111  1  0.69225681  0.18201539  0.18435030  1
  Zn  Zn112  1  0.69044085  0.18853287  0.68335026  1
  Zn  Zn113  1  0.69195439  0.68694710  0.18986680  1
  Zn  Zn114  1  0.68605371  0.69360145  0.69160820  1
  Zn  Zn115  1  0.31338444  0.30460679  0.31135093  1
  Zn  Zn116  1  0.30840481  0.30914199  0.81154537  1
  Zn  Zn117  1  0.31391451  0.80894019  0.31063359  1
  Zn  Zn118  1  0.30852623  0.81050066  0.80908624  1
  Zn  Zn119  1  0.81058716  0.31376128  0.31320313  1
  Zn  Zn120  1  0.80885999  0.31660627  0.81494853  1
  Zn  Zn121  1  0.81427116  0.80890462  0.31432766  1
  Zn  Zn122  1  0.80959617  0.81415984  0.81176834  1
  Zn  Zn123  1  0.18528645  0.43823326  0.43421002  1
  Zn  Zn124  1  0.18612643  0.43273317  0.93800281  1
  Zn  Zn125  1  0.18567887  0.93834933  0.43410839  1
  Zn  Zn126  1  0.18589966  0.94110877  0.93127596  1
  Zn  Zn127  1  0.68741882  0.44234050  0.44075396  1
  Zn  Zn128  1  0.68575888  0.43866892  0.93622115  1
  Zn  Zn129  1  0.68135416  0.93844275  0.44004351  1
  Zn  Zn130  1  0.68970046  0.93719495  0.93816259  1
  Zn  Zn131  1  0.31333129  0.05844715  0.06254509  1
  Zn  Zn132  1  0.31165610  0.06213277  0.56325941  1
  Zn  Zn133  1  0.31689093  0.56589088  0.06265581  1
  Zn  Zn134  1  0.31411295  0.56021248  0.55978094  1
  Zn  Zn135  1  0.81392266  0.06440046  0.06673536  1
  Zn  Zn136  1  0.81069990  0.06495771  0.56675673  1
  Zn  Zn137  1  0.81350008  0.56283949  0.06657721  1
  Zn  Zn138  1  0.81573357  0.56440497  0.56856296  1
  Zn  Zn139  1  0.44166864  0.43391562  0.18361342  1
  Zn  Zn140  1  0.43468792  0.43483070  0.68829206  1
  Zn  Zn141  1  0.43826554  0.93139667  0.18545997  1
  Zn  Zn142  1  0.43426147  0.93888144  0.68464998  1
  Zn  Zn143  1  0.93321067  0.44330164  0.18498084  1
  Zn  Zn144  1  0.93392658  0.44397687  0.68400235  1
  Zn  Zn145  1  0.93962360  0.94039694  0.18890052  1
  Zn  Zn146  1  0.93236331  0.94388812  0.68405407  1
  Zn  Zn147  1  0.06276302  0.05700346  0.31124884  1
  Zn  Zn148  1  0.05883192  0.06337414  0.81189286  1
  Zn  Zn149  1  0.06775691  0.55424452  0.31455803  1
  Zn  Zn150  1  0.06707300  0.55713321  0.81585396  1
  Zn  Zn151  1  0.56708510  0.06138061  0.31554085  1
  Zn  Zn152  1  0.55825604  0.06102223  0.81290673  1
  Zn  Zn153  1  0.56626530  0.55866660  0.31840611  1
  Zn  Zn154  1  0.56306424  0.56787522  0.82072460  1
  Zn  Zn155  1  0.43631441  0.18994494  0.43251848  1
  Zn  Zn156  1  0.44163710  0.18846482  0.93704432  1
  Zn  Zn157  1  0.43474614  0.68519871  0.43700399  1
  Zn  Zn158  1  0.43745081  0.68937937  0.93787786  1
  Zn  Zn159  1  0.93582899  0.19570980  0.43860359  1
  Zn  Zn160  1  0.94149213  0.18821699  0.94082833  1
  Zn  Zn161  1  0.93603005  0.69034616  0.44162009  1
  Zn  Zn162  1  0.93886737  0.68755060  0.93515021  1
  Zn  Zn163  1  0.06531816  0.31268486  0.06211814  1
  Zn  Zn164  1  0.06200568  0.31441668  0.55818642  1
  Zn  Zn165  1  0.06507130  0.81374759  0.05691477  1
  Zn  Zn166  1  0.06324046  0.81512218  0.55796364  1
  Zn  Zn167  1  0.55894916  0.31336065  0.06011211  1
  Zn  Zn168  1  0.56194945  0.31763556  0.56374532  1
  Zn  Zn169  1  0.56400655  0.80956007  0.06551320  1
  Zn  Zn170  1  0.56009130  0.81164590  0.56405579  1
  O  O171  1  0.11816781  0.11759773  0.12564427  1
  O  O172  1  0.11893727  0.11782313  0.62002225  1
  O  O173  1  0.12580524  0.62464802  0.11607286  1
  O  O174  1  0.13314366  0.60998655  0.62087419  1
  O  O175  1  0.62154367  0.11797556  0.11300936  1
  O  O176  1  0.62581921  0.11433393  0.61884221  1
  O  O177  1  0.63071639  0.62787518  0.11146605  1
  O  O178  1  0.60940569  0.63135197  0.62805866  1
  O  O179  1  0.37458532  0.37809737  0.38010447  1
  O  O180  1  0.37277567  0.37025161  0.88637587  1
  O  O181  1  0.38385874  0.86771111  0.38426302  1
  O  O182  1  0.37371115  0.88501913  0.87192374  1
  O  O183  1  0.87106526  0.37653002  0.38985633  1
  O  O184  1  0.88228424  0.37482490  0.88327116  1
  O  O185  1  0.87965704  0.87021039  0.38940139  1
  O  O186  1  0.88033687  0.88326004  0.87910391  1
  O  O187  1  0.24595073  0.01063851  0.36432105  1
  O  O188  1  0.26302952  0.00074554  0.86889693  1
  O  O189  1  0.26087600  0.50752571  0.38096988  1
  O  O190  1  0.24251008  0.50605968  0.86389011  1
  O  O191  1  0.74796653  -0.00405134  0.36392714  1
  O  O192  1  0.75917836  -0.00244463  0.86856812  1
  O  O193  1  0.74895666  0.51260762  0.36966277  1
  O  O194  1  0.75366738  0.50138614  0.86544155  1
  O  O195  1  0.25232474  0.48457942  0.11679867  1
  O  O196  1  0.24711995  0.48989048  0.63060865  1
  O  O197  1  0.23923279  1.00252447  0.13198102  1
  O  O198  1  0.24027456  0.99964782  0.63145238  1
  O  O199  1  0.74796466  0.49031993  0.13081657  1
  O  O200  1  0.75231659  0.49017272  0.63330767  1
  O  O201  1  0.74685206  0.99257102  0.13073763  1
  O  O202  1  0.74043386  0.99526186  0.63168970  1
  O  O203  1  0.00846245  0.37856830  0.24680375  1
  O  O204  1  -0.00334168  0.38161036  0.76300055  1
  O  O205  1  0.00719611  0.88225929  0.26159134  1
  O  O206  1  -0.00113884  0.88340056  0.75998638  1
  O  O207  1  0.49830708  0.36487638  0.26023714  1
  O  O208  1  0.50541578  0.36732028  0.75189949  1
  O  O209  1  0.50218457  0.86512590  0.25902479  1
  O  O210  1  0.49206503  0.86061184  0.74572903  1
  O  O211  1  0.49380855  0.12572625  0.24529504  1
  O  O212  1  0.49246880  0.13737301  0.75106640  1
  O  O213  1  0.49936702  0.63475149  0.25716492  1
  O  O214  1  0.49283105  0.62859401  0.74352813  1
  O  O215  1  0.99312120  0.11687167  0.23931056  1
  O  O216  1  0.98801269  0.11914901  0.74093679  1
  O  O217  1  0.98952595  0.61626768  0.25298442  1
  O  O218  1  0.99088547  0.62152569  0.75432447  1
  O  O219  1  0.37065974  0.25622220  0.00367501  1
  O  O220  1  0.37298788  0.25799800  0.50550243  1
  O  O221  1  0.36344519  0.74868459  0.00440936  1
  O  O222  1  0.36595819  0.75641343  0.50432105  1
  O  O223  1  0.86684685  0.25221603  0.00745186  1
  O  O224  1  0.86356611  0.26011217  0.50726684  1
  O  O225  1  0.86944450  0.75387619  0.00529729  1
  O  O226  1  0.86830818  0.75837764  0.51115918  1
  O  O227  1  0.12836477  0.23544674  0.50276554  1
  O  O228  1  0.13362675  0.24871652  0.99213841  1
  O  O229  1  0.13818141  0.74918565  0.50026746  1
  O  O230  1  0.13630833  0.74473641  0.99143026  1
  O  O231  1  0.63950670  0.25154002  0.50934597  1
  O  O232  1  0.62926669  0.24367927  0.99285713  1
  O  O233  1  0.63110719  0.74577608  0.49529266  1
  O  O234  1  0.63118597  0.74479079  0.99664334  1
  O  O235  1  0.49454423  0.24343159  0.12944355  1
  O  O236  1  0.49053290  0.25626693  0.63306546  1
  O  O237  1  0.49144445  0.75193883  0.13321869  1
  O  O238  1  0.49262390  0.74164820  0.63266540  1
  O  O239  1  0.99091021  0.24185688  0.11908278  1
  O  O240  1  0.99941415  0.23869167  0.62301257  1
  O  O241  1  0.98936221  0.74823347  0.11687803  1
  O  O242  1  0.98746985  0.75933853  0.62359322  1
  O  O243  1  0.00591598  0.25773125  0.37969174  1
  O  O244  1  0.01340185  0.25840864  0.88220927  1
  O  O245  1  0.00420697  0.76520677  0.38516062  1
  O  O246  1  0.01076345  0.76081809  0.88088350  1
  O  O247  1  0.49700098  0.26235002  0.36598395  1
  O  O248  1  0.51210679  0.25340813  0.86767687  1
  O  O249  1  0.50620925  0.75437785  0.37118153  1
  O  O250  1  0.50710621  0.74572899  0.86703764  1
  O  O251  1  0.24292903  0.12241830  0.49066433  1
  O  O252  1  0.25104311  0.13930463  1.00594441  1
  O  O253  1  0.25245502  0.63257913  0.49120008  1
  O  O254  1  0.24172756  0.62654779  0.99188427  1
  O  O255  1  0.75341270  0.14193001  0.50284846  1
  O  O256  1  0.74253385  0.13685331  1.00620086  1
  O  O257  1  0.75366869  0.63108008  0.49508205  1
  O  O258  1  0.74597166  0.63237919  0.99936499  1
  O  O259  1  0.25572687  0.36615874  0.00660250  1
  O  O260  1  0.25636314  0.37292782  0.50526624  1
  O  O261  1  0.24738109  0.86422083  -0.00656366  1
  O  O262  1  0.25618000  0.86905682  0.49794607  1
  O  O263  1  0.75398925  0.36526138  0.00569263  1
  O  O264  1  0.75393461  0.37111967  0.50722678  1
  O  O265  1  0.75830875  0.86973161  0.00769723  1
  O  O266  1  0.75519856  0.87269744  0.50695144  1
  O  O267  1  0.12780916  0.48288609  0.24482138  1
  O  O268  1  0.13295476  0.49583346  0.74169409  1
  O  O269  1  0.13273421  0.99100727  0.24232608  1
  O  O270  1  0.13159071  1.00178032  0.74384597  1
  O  O271  1  0.64138736  0.50933319  0.24662751  1
  O  O272  1  0.63049565  0.49429926  0.75701998  1
  O  O273  1  0.63463259  0.99638686  0.24191466  1
  O  O274  1  0.63044213  1.00530867  0.74362746  1
  O  O275  1  0.36651286  0.00517678  0.24199633  1
  O  O276  1  0.37114717  0.00633667  0.75881555  1
  O  O277  1  0.37928134  0.49803102  0.25829019  1
  O  O278  1  0.36662715  0.51013312  0.74729010  1
  O  O279  1  0.86592176  0.01003583  0.24446628  1
  O  O280  1  0.86715426  0.00950243  0.75798363  1
  O  O281  1  0.86229683  0.51142635  0.24517726  1
  O  O282  1  0.86773363  0.51524304  0.75013327  1
  O  O283  1  0.12922620  0.37248508  0.35694617  1
  O  O284  1  0.11691841  0.36498177  0.87164390  1
  O  O285  1  0.11617575  0.87356833  0.36663063  1
  O  O286  1  0.11599452  0.86906421  0.87139973  1
  O  O287  1  0.61450191  0.37554678  0.37436725  1
  O  O288  1  0.62478730  0.36674672  0.86365632  1
  O  O289  1  0.61839114  0.86158824  0.37601971  1
  O  O290  1  0.62507211  0.86253726  0.88160839  1
  O  O291  1  0.38028603  0.12733079  0.13302277  1
  O  O292  1  0.36875158  0.13800900  0.63237338  1
  O  O293  1  0.36652357  0.64321227  0.12718140  1
  O  O294  1  0.38015955  0.62981931  0.63271954  1
  O  O295  1  0.88268643  0.13266430  0.13291281  1
  O  O296  1  0.88224332  0.12760728  0.63514223  1
  O  O297  1  0.87867965  0.63344318  0.13428992  1
  O  O298  1  0.87360504  0.63658458  0.64030413  1
  O  O299  1  0.25690243  0.25861543  0.11674437  1
  O  O300  1  0.25655254  0.26073880  0.62413633  1
  O  O301  1  0.25453794  0.75303553  0.10775212  1
  O  O302  1  0.25752835  0.75108386  0.61776937  1
  O  O303  1  0.75741259  0.25555593  0.11861812  1
  O  O304  1  0.75240993  0.26450837  0.62022052  1
  O  O305  1  0.76028542  0.75706374  0.12002309  1
  O  O306  1  0.75434714  0.75969754  0.62359025  1
  O  O307  1  0.24447723  0.23407424  0.37336966  1
  O  O308  1  0.23487346  0.25396276  0.88190533  1
  O  O309  1  0.24941148  0.74104757  0.38178649  1
  O  O310  1  0.24590307  0.74292265  0.88391967  1
  O  O311  1  0.75072554  0.25273741  0.39195678  1
  O  O312  1  0.73728825  0.25291295  0.88293922  1
  O  O313  1  0.74266694  0.74333701  0.38202979  1
  O  O314  1  0.74319837  0.75118861  0.88373982  1
  O  O315  1  0.00115355  0.11767017  0.01321203  1
  O  O316  1  0.00390568  0.12001353  0.50569710  1
  O  O317  1  0.01335307  0.61919934  -0.00345568  1
  O  O318  1  0.00072232  0.61151763  0.49724086  1
  O  O319  1  0.50734760  0.11829341  0.00534948  1
  O  O320  1  0.49154379  0.10956126  0.49413989  1
  O  O321  1  0.50499914  0.61465918  -0.00132477  1
  O  O322  1  0.49625980  0.62653034  0.51739376  1
  O  O323  1  0.49325973  0.37161980  0.48631066  1
  O  O324  1  0.48973761  0.38092310  0.99619420  1
  O  O325  1  0.49163972  0.87932028  0.49436636  1
  O  O326  1  0.50352062  0.88702197  1.00417655  1
  O  O327  1  0.98988390  0.38364478  0.50201041  1
  O  O328  1  0.99604584  0.38207950  0.99463082  1
  O  O329  1  0.99143747  0.88505713  0.49623564  1
  O  O330  1  0.99449412  0.88219794  0.99067897  1
  O  O331  1  0.49312149  0.48502780  0.37354504  1
  O  O332  1  0.50443053  0.49678807  0.89250925  1
  O  O333  1  0.50502965  0.98353305  0.38210896  1
  O  O334  1  0.48435917  1.00278943  0.88090796  1
  O  O335  1  1.00428101  0.49110081  0.39118182  1
  O  O336  1  1.00013436  0.49153987  0.88593778  1
  O  O337  1  1.00326208  0.99189472  0.38875212  1
  O  O338  1  0.99242286  0.99405239  0.88109935  1
  O  O339  1  0.00912357  0.00646691  0.11951283  1
  O  O340  1  0.00563196  0.00894762  0.61586853  1
  O  O341  1  0.00293017  0.50390691  0.11219929  1
  O  O342  1  0.01005396  0.49556221  0.61421759  1
  O  O343  1  0.50551251  0.00318832  0.11822594  1
  O  O344  1  0.50727723  -0.00537407  0.61601137  1
  O  O345  1  0.50413361  0.49278463  0.10796633  1
  O  O346  1  0.49346942  0.51441957  0.62699259  1
  O  O347  1  0.25393228  0.37070209  0.23432161  1
  O  O348  1  0.25067954  0.38246037  0.74190035  1
  O  O349  1  0.24252170  0.88513824  0.25708385  1
  O  O350  1  0.24772912  0.88833255  0.74680473  1
  O  O351  1  0.75548178  0.38430656  0.24125051  1
  O  O352  1  0.74377431  0.38554409  0.74472265  1
  O  O353  1  0.75242789  0.88033998  0.24437121  1
  O  O354  1  0.75583106  0.89017882  0.74148612  1
  O  O355  1  0.25697629  0.11586622  0.25297006  1
  O  O356  1  0.25875218  0.11297340  0.74613973  1
  O  O357  1  0.25291857  0.62883775  0.26219890  1
  O  O358  1  0.25686971  0.61708965  0.75625414  1
  O  O359  1  0.75912517  0.11530527  0.25071138  1
  O  O360  1  0.75727094  0.11325344  0.74489815  1
  O  O361  1  0.76008501  0.62153472  0.25891522  1
  O  O362  1  0.74956184  0.61588026  0.74960065  1
  O  O363  1  0.36847676  0.12615126  0.36129866  1
  O  O364  1  0.37588076  0.12532909  0.86419742  1
  O  O365  1  0.37065731  0.61233454  0.37292821  1
  O  O366  1  0.36331964  0.62770392  0.86844755  1
  O  O367  1  0.87093928  0.13004086  0.36368754  1
  O  O368  1  0.88160744  0.11524259  0.87113564  1
  O  O369  1  0.86665785  0.63428991  0.36832911  1
  O  O370  1  0.87226484  0.62655813  0.86200223  1
  O  O371  1  0.13695661  0.37667811  0.13098946  1
  O  O372  1  0.13346380  0.38067141  0.62550722  1
  O  O373  1  0.11714396  0.88458966  0.13200861  1
  O  O374  1  0.12407177  0.88877219  0.62498361  1
  O  O375  1  0.63687224  0.37328655  0.12107601  1
  O  O376  1  0.63044569  0.37373615  0.63962629  1
  O  O377  1  0.63564931  0.87939662  0.12666473  1
  O  O378  1  0.63587761  0.88159416  0.62107309  1
  O  O379  1  0.13029787  0.26826235  0.24327976  1
  O  O380  1  0.12904691  0.25012987  0.76246913  1
  O  O381  1  0.12988816  0.76342549  0.24724237  1
  O  O382  1  0.13313209  0.75147927  0.76216824  1
  O  O383  1  0.61314862  0.24100341  0.24261923  1
  O  O384  1  0.62012339  0.25329403  0.75446899  1
  O  O385  1  0.61933553  0.75010658  0.25797545  1
  O  O386  1  0.61421220  0.74788287  0.76247743  1
  O  O387  1  0.38281833  0.23876822  0.24226371  1
  O  O388  1  0.38081224  0.24470685  0.74466495  1
  O  O389  1  0.38357103  0.74733488  0.24114487  1
  O  O390  1  0.37793608  0.73855098  0.74569795  1
  O  O391  1  0.86837381  0.24224955  0.23931274  1
  O  O392  1  0.86658337  0.23748254  0.75329427  1
  O  O393  1  0.87291592  0.74083893  0.24082173  1
  O  O394  1  0.87147938  0.73899593  0.74566701  1
  O  O395  1  0.38082143  0.48662256  0.49388326  1
  O  O396  1  0.38500836  0.49402720  1.00111225  1
  O  O397  1  0.37963889  0.98715159  0.50650674  1
  O  O398  1  0.38025327  1.00243992  0.98660807  1
  O  O399  1  0.88772785  0.49549076  0.50793739  1
  O  O400  1  0.88298458  0.49552988  0.99878255  1
  O  O401  1  0.88146091  0.99340828  0.50701421  1
  O  O402  1  0.87788523  0.99669564  0.99342271  1
  O  O403  1  0.12193308  0.00214264  0.00640624  1
  O  O404  1  0.11855861  0.00970801  0.50621684  1
  O  O405  1  0.12006381  0.50759670  0.00109905  1
  O  O406  1  0.11413311  0.49789027  0.50650545  1
  O  O407  1  0.61936298  0.00635822  0.00167077  1
  O  O408  1  0.61324150  -0.00030774  0.50968368  1
  O  O409  1  0.61777417  0.50759000  0.00284589  1
  O  O410  1  0.61776621  0.50574089  0.49897228  1
  O  O411  1  0.36719633  0.36956357  0.11580072  1
  O  O412  1  0.36883052  0.36752870  0.61680848  1
  O  O413  1  0.37186860  0.85797320  0.12743277  1
  O  O414  1  0.37225950  0.86568868  0.61579369  1
  O  O415  1  0.86902679  0.36718346  0.11969012  1
  O  O416  1  0.86620911  0.37539063  0.61865924  1
  O  O417  1  0.87349557  0.86894862  0.12089347  1
  O  O418  1  0.86541167  0.87230132  0.61780655  1
  O  O419  1  0.13018154  0.12311948  0.38084389  1
  O  O420  1  0.11775158  0.13814272  0.87844130  1
  O  O421  1  0.13395193  0.62496625  0.37813441  1
  O  O422  1  0.13420538  0.63145149  0.87937657  1
  O  O423  1  0.62948829  0.12166201  0.38411551  1
  O  O424  1  0.62104201  0.13045207  0.88601683  1
  O  O425  1  0.63316374  0.63552706  0.37803424  1
  O  O426  1  0.62869764  0.63530092  0.88924680  1
