# generated using pymatgen
data_V85Zn86O256
_symmetry_space_group_name_H-M   'P 1'
_cell_length_a   16.92476973
_cell_length_b   16.91314892
_cell_length_c   16.91468221
_cell_angle_alpha   89.97376359
_cell_angle_beta   89.96063490
_cell_angle_gamma   89.98820636
_symmetry_Int_Tables_number   1
_chemical_formula_structural   V85Zn86O256
_chemical_formula_sum   'V85 Zn86 O256'
_cell_volume   4841.84549582
_cell_formula_units_Z   1
loop_
 _symmetry_equiv_pos_site_id
 _symmetry_equiv_pos_as_xyz
  1  'x, y, z'
loop_
 _atom_site_type_symbol
 _atom_site_label
 _atom_site_symmetry_multiplicity
 _atom_site_fract_x
 _atom_site_fract_y
 _atom_site_fract_z
 _atom_site_occupancy
  V  V0  1  0.49318827  0.37250847  0.87497926  1
  V  V1  1  0.24844088  0.62855985  0.87606006  1
  V  V2  1  0.37591634  0.62570255  0.75150628  1
  V  V3  1  0.36679158  0.49957776  0.37707503  1
  V  V4  1  -0.00063342  0.12317867  0.62429672  1
  V  V5  1  0.24799083  0.75480639  -0.00073939  1
  V  V6  1  0.12896024  0.36949526  0.74806447  1
  V  V7  1  0.75546447  0.50707144  0.75219276  1
  V  V8  1  0.12431233  0.49600029  0.62698272  1
  V  V9  1  0.00299084  0.75085596  0.24146790  1
  V  V10  1  0.50203918  0.62685859  0.62410335  1
  V  V11  1  0.37076540  0.75562000  0.12532275  1
  V  V12  1  -0.00529004  0.62511154  0.11755107  1
  V  V13  1  0.87243315  0.12138083  0.75321059  1
  V  V14  1  0.74855716  0.37656078  0.12385890  1
  V  V15  1  0.75445711  0.11116748  0.37277550  1
  V  V16  1  0.62209521  0.12430707  0.50209074  1
  V  V17  1  0.25838228  0.00126591  0.24154265  1
  V  V18  1  0.49233530  0.49696058  -0.00153295  1
  V  V19  1  0.37240203  0.37579813  0.50781107  1
  V  V20  1  0.87286386  0.24866723  0.12439944  1
  V  V21  1  0.87032844  0.74809421  0.63615075  1
  V  V22  1  0.49408974  0.12904658  0.16067121  1
  V  V23  1  0.74738512  0.12059148  0.88039162  1
  V  V24  1  0.01099086  0.87296448  0.87085305  1
  V  V25  1  0.50340593  0.25233326  0.74804135  1
  V  V26  1  0.13761710  0.23564182  0.88728519  1
  V  V27  1  0.37434144  0.88343575  0.00397397  1
  V  V28  1  0.62818903  -0.00690240  0.14250466  1
  V  V29  1  0.74436512  0.37097559  0.63395528  1
  V  V30  1  0.87500531  0.62833196  0.25369855  1
  V  V31  1  0.87398206  0.24889401  0.62470541  1
  V  V32  1  0.13249136  0.00311479  0.11653779  1
  V  V33  1  0.62220285  0.25401021  0.87369613  1
  V  V34  1  0.48020252  0.36417013  0.34983335  1
  V  V35  1  0.62366945  0.49603617  0.63036874  1
  V  V36  1  0.49581501  -0.00285541  0.50490459  1
  V  V37  1  0.74957858  0.74309288  0.48526591  1
  V  V38  1  0.50378497  0.86968147  0.37377751  1
  V  V39  1  0.62764932  0.62271703  0.48342306  1
  V  V40  1  0.12447355  0.12498188  0.49724083  1
  V  V41  1  0.49835493  0.87854770  0.87405023  1
  V  V42  1  0.50369748  0.74978273  0.25156584  1
  V  V43  1  0.75059662  0.50449117  0.25635059  1
  V  V44  1  0.25143803  0.12787157  0.36745395  1
  V  V45  1  -0.00325257  -0.00021731  0.49757863  1
  V  V46  1  0.36841279  0.86388383  0.49966132  1
  V  V47  1  0.62535836  0.62986932  -0.00653903  1
  V  V48  1  0.13381880  0.87603425  0.24147133  1
  V  V49  1  0.24921355  0.00181465  0.75270231  1
  V  V50  1  0.49576570  0.62318056  0.12433070  1
  V  V51  1  0.87409142  0.10873014  0.25280046  1
  V  V52  1  0.00183204  0.24812461  0.75204888  1
  V  V53  1  0.12222191  0.49669177  0.11425589  1
  V  V54  1  0.00041910  0.00021694  -0.00271947  1
  V  V55  1  0.37378571  0.00265866  0.37367250  1
  V  V56  1  0.36960565  0.24811411  0.62571906  1
  V  V57  1  0.24658718  0.50082818  0.24552745  1
  V  V58  1  0.12381697  0.62495657  -0.00422695  1
  V  V59  1  -0.00359039  0.37616926  0.37514544  1
  V  V60  1  0.24884212  0.49547405  0.74959502  1
  V  V61  1  0.60390724  0.11631526  0.00360587  1
  V  V62  1  0.87627537  0.38205759  -0.00120809  1
  V  V63  1  0.01318373  0.74987835  0.75545728  1
  V  V64  1  0.62060648  0.25193368  0.36949472  1
  V  V65  1  0.13317878  0.75224835  0.37779398  1
  V  V66  1  0.74974566  0.25120023  0.49684403  1
  V  V67  1  0.75754242  0.75630845  0.00531572  1
  V  V68  1  0.00384527  0.88114806  0.37379806  1
  V  V69  1  0.24865653  0.25503568  0.49863113  1
  V  V70  1  0.37086489  0.00803407  0.88096780  1
  V  V71  1  0.24678771  0.86690007  0.62632227  1
  V  V72  1  0.12497018  -0.00612854  0.62930032  1
  V  V73  1  0.62512068  0.49658347  0.12201059  1
  V  V74  1  0.00407073  0.12639357  0.11643075  1
  V  V75  1  0.87446646  0.87373304  0.49853648  1
  V  V76  1  0.49866682  0.49557743  0.50079158  1
  V  V77  1  0.31938450  0.29677259  0.06432608  1
  V  V78  1  -0.00280983  0.24917684  0.24959996  1
  V  V79  1  0.12970462  0.62895041  0.50090146  1
  V  V80  1  0.74477201  0.24827797  0.00173991  1
  V  V81  1  0.00383558  0.37719288  0.87925816  1
  V  V82  1  -0.00170045  0.50200297  0.49925931  1
  V  V83  1  -0.00574444  0.62505567  0.63082003  1
  V  V84  1  0.12436196  0.37614425  0.24392850  1
  Zn  Zn85  1  0.87977336  0.86960881  0.00473765  1
  Zn  Zn86  1  0.87372056  -0.00679435  0.87551925  1
  Zn  Zn87  1  0.62604800  0.75338108  0.87252469  1
  Zn  Zn88  1  0.62437810  0.36490939  0.24367573  1
  Zn  Zn89  1  0.62580932  0.87413943  0.74588020  1
  Zn  Zn90  1  0.62515328  -0.00390146  0.62801114  1
  Zn  Zn91  1  0.49743068  0.12428807  0.62827287  1
  Zn  Zn92  1  0.50055112  0.75023291  0.75094558  1
  Zn  Zn93  1  0.74365812  -0.00303775  0.74786344  1
  Zn  Zn94  1  0.75843707  0.63337476  0.86990035  1
  Zn  Zn95  1  0.74568599  0.87394878  0.62680561  1
  Zn  Zn96  1  0.37145732  0.62450051  0.25112900  1
  Zn  Zn97  1  0.86888612  0.50587479  0.37856424  1
  Zn  Zn98  1  0.36925552  0.74601654  0.62192164  1
  Zn  Zn99  1  0.25040938  0.62942891  0.37786309  1
  Zn  Zn100  1  0.87196652  0.37767123  0.50008043  1
  Zn  Zn101  1  0.88236830  0.50348142  0.87223324  1
  Zn  Zn102  1  0.75804855  0.87678730  0.14014985  1
  Zn  Zn103  1  0.37206853  0.49631025  0.87792368  1
  Zn  Zn104  1  0.12730410  0.25078371  0.37066095  1
  Zn  Zn105  1  0.66785547  0.81344371  0.30956623  1
  Zn  Zn106  1  0.37051286  0.12932909  0.75651698  1
  Zn  Zn107  1  0.18910184  0.18759126  0.17870701  1
  Zn  Zn108  1  0.18836415  0.18522019  0.68618718  1
  Zn  Zn109  1  0.18768987  0.68428803  0.18420887  1
  Zn  Zn110  1  0.18581276  0.68413681  0.68742679  1
  Zn  Zn111  1  0.68642938  0.18044542  0.18699633  1
  Zn  Zn112  1  0.68575341  0.18331410  0.68882362  1
  Zn  Zn113  1  0.68757623  0.68215226  0.18095958  1
  Zn  Zn114  1  0.68321167  0.69098025  0.68460774  1
  Zn  Zn115  1  0.30762148  0.29606070  0.26608404  1
  Zn  Zn116  1  0.31172535  0.31106420  0.81477373  1
  Zn  Zn117  1  0.31553722  0.81514881  0.30946752  1
  Zn  Zn118  1  0.31091050  0.81479513  0.81233449  1
  Zn  Zn119  1  0.81105930  0.31350756  0.31120843  1
  Zn  Zn120  1  0.81150060  0.31133539  0.81399177  1
  Zn  Zn121  1  0.82963944  0.81947638  0.30680016  1
  Zn  Zn122  1  0.81300831  0.81631472  0.81864757  1
  Zn  Zn123  1  0.18336491  0.43606274  0.43401138  1
  Zn  Zn124  1  0.19646564  0.42449534  0.94058451  1
  Zn  Zn125  1  0.18828077  0.93848485  0.43858105  1
  Zn  Zn126  1  0.18897879  0.93810462  0.93731255  1
  Zn  Zn127  1  0.68141330  0.43337429  0.43752623  1
  Zn  Zn128  1  0.68229053  0.43551848  0.93667379  1
  Zn  Zn129  1  0.68780165  0.93648778  0.44727153  1
  Zn  Zn130  1  0.68445285  0.93897606  0.94154180  1
  Zn  Zn131  1  0.31733927  0.08299955  0.06692403  1
  Zn  Zn132  1  0.30965473  0.06294120  0.56131799  1
  Zn  Zn133  1  0.31099473  0.55886542  0.06425793  1
  Zn  Zn134  1  0.30934405  0.56159422  0.56756742  1
  Zn  Zn135  1  0.81194605  0.05803293  0.06516040  1
  Zn  Zn136  1  0.81136396  0.05970984  0.56190890  1
  Zn  Zn137  1  0.81194887  0.56718004  0.06056419  1
  Zn  Zn138  1  0.81010439  0.56437156  0.56350962  1
  Zn  Zn139  1  0.43063856  0.41934646  0.19230557  1
  Zn  Zn140  1  0.43661876  0.43462417  0.69050785  1
  Zn  Zn141  1  0.44576298  0.93964524  0.18501850  1
  Zn  Zn142  1  0.43191895  0.93667564  0.69004409  1
  Zn  Zn143  1  0.93732168  0.44149891  0.18399173  1
  Zn  Zn144  1  0.93628998  0.43287616  0.68752631  1
  Zn  Zn145  1  0.94078910  0.93434295  0.18094251  1
  Zn  Zn146  1  0.93510438  0.93404210  0.68826343  1
  Zn  Zn147  1  0.06622596  0.06231897  0.30690476  1
  Zn  Zn148  1  0.06414595  0.06073084  0.81132382  1
  Zn  Zn149  1  0.06182174  0.56403015  0.31146187  1
  Zn  Zn150  1  0.06148960  0.56265765  0.81399177  1
  Zn  Zn151  1  0.56843253  0.05576915  0.32099772  1
  Zn  Zn152  1  0.55749320  0.06267663  0.81278488  1
  Zn  Zn153  1  0.55192104  0.54478370  0.30455230  1
  Zn  Zn154  1  0.56507916  0.55969763  0.81102280  1
  Zn  Zn155  1  0.43564894  0.18618127  0.43343599  1
  Zn  Zn156  1  0.40355268  0.18658936  0.95821595  1
  Zn  Zn157  1  0.43963807  0.68403878  0.43730950  1
  Zn  Zn158  1  0.43546914  0.69001835  0.93726313  1
  Zn  Zn159  1  0.93523071  0.18725786  0.43523517  1
  Zn  Zn160  1  0.93747388  0.19190873  0.93687967  1
  Zn  Zn161  1  0.94227101  0.69220445  0.43540618  1
  Zn  Zn162  1  0.93534107  0.68469592  0.93232833  1
  Zn  Zn163  1  0.06407941  0.31111209  0.05935124  1
  Zn  Zn164  1  0.06324905  0.31222845  0.56243075  1
  Zn  Zn165  1  0.06613359  0.81386932  0.05972717  1
  Zn  Zn166  1  0.06175422  0.81079505  0.56437147  1
  Zn  Zn167  1  0.53113516  0.29707640  0.05305467  1
  Zn  Zn168  1  0.55998057  0.31192777  0.56032672  1
  Zn  Zn169  1  0.55943595  0.81511440  0.05978580  1
  Zn  Zn170  1  0.56482978  0.80772026  0.55921052  1
  O  O171  1  0.11565645  0.11725897  0.12897146  1
  O  O172  1  0.11793983  0.11794275  0.61702404  1
  O  O173  1  0.11952753  0.61697391  0.11394463  1
  O  O174  1  0.11354101  0.61931785  0.61955693  1
  O  O175  1  0.62359063  0.11517661  0.11543648  1
  O  O176  1  0.62056969  0.12608318  0.61139547  1
  O  O177  1  0.61181483  0.62102097  0.11224340  1
  O  O178  1  0.61646696  0.61580701  0.61771506  1
  O  O179  1  0.37376984  0.38768312  0.39352329  1
  O  O180  1  0.38824798  0.37726174  0.87110940  1
  O  O181  1  0.37905440  0.88361226  0.38226796  1
  O  O182  1  0.37880313  0.88326643  0.88250965  1
  O  O183  1  0.88542839  0.37837569  0.37601293  1
  O  O184  1  0.88296956  0.37429124  0.88182244  1
  O  O185  1  0.89092139  0.87007789  0.38885370  1
  O  O186  1  0.89002426  0.87637843  0.88357378  1
  O  O187  1  0.25627272  0.00563059  0.36803249  1
  O  O188  1  0.25791986  -0.00499284  0.86562434  1
  O  O189  1  0.25075292  0.50291335  0.36754015  1
  O  O190  1  0.25017186  0.50641422  0.86750134  1
  O  O191  1  0.74848556  0.01251117  0.38543669  1
  O  O192  1  0.75202815  0.01151998  0.87726883  1
  O  O193  1  0.74836513  0.49290750  0.36030938  1
  O  O194  1  0.74456087  0.49367017  0.85659440  1
  O  O195  1  0.23941632  0.50483914  0.13749492  1
  O  O196  1  0.23936354  0.50549842  0.64071641  1
  O  O197  1  0.24528576  1.01398737  0.13031192  1
  O  O198  1  0.24235232  0.99212687  0.62769546  1
  O  O199  1  0.74429773  0.49488830  0.12777779  1
  O  O200  1  0.74440658  0.49208928  0.63213745  1
  O  O201  1  0.73322955  0.99641448  0.11904647  1
  O  O202  1  0.74629411  0.99593877  0.62626165  1
  O  O203  1  0.00332250  0.37065196  0.25499089  1
  O  O204  1  0.00633706  0.36636257  0.75560040  1
  O  O205  1  0.01189812  0.87069472  0.25477205  1
  O  O206  1  -0.00224309  0.86412570  0.75967994  1
  O  O207  1  0.52285691  0.41947623  0.26186996  1
  O  O208  1  0.49868196  0.36270977  0.75672955  1
  O  O209  1  0.49615121  0.86408201  0.26080419  1
  O  O210  1  0.49344965  0.87182392  0.76312336  1
  O  O211  1  0.50211476  0.12602833  0.26154006  1
  O  O212  1  0.49271839  0.13826741  0.74874712  1
  O  O213  1  0.49240419  0.62605476  0.23953584  1
  O  O214  1  0.49171100  0.62200591  0.74289341  1
  O  O215  1  0.99545239  0.13302662  0.24319509  1
  O  O216  1  0.99274233  0.12939516  0.74509933  1
  O  O217  1  0.99988483  0.63310716  0.24006338  1
  O  O218  1  1.00380752  0.63657800  0.74414669  1
  O  O219  1  0.41693432  0.28146762  0.01578940  1
  O  O220  1  0.36772048  0.25687583  0.50353848  1
  O  O221  1  0.36659276  0.75648194  0.00702571  1
  O  O222  1  0.37445597  0.76006494  0.49863680  1
  O  O223  1  0.86584024  0.25728556  0.00580005  1
  O  O224  1  0.86536776  0.25042983  0.50538794  1
  O  O225  1  0.86020530  0.74621771  0.00088673  1
  O  O226  1  0.87104120  0.75347390  0.50541185  1
  O  O227  1  0.13171829  0.24499929  0.49584396  1
  O  O228  1  0.12365620  0.24851027  0.98684844  1
  O  O229  1  0.11819244  0.74126367  0.49076039  1
  O  O230  1  0.13993705  0.74020029  1.00650940  1
  O  O231  1  0.63108649  0.24396731  0.49303981  1
  O  O232  1  0.62638171  0.23842147  0.99353640  1
  O  O233  1  0.63549529  0.73509741  0.49993621  1
  O  O234  1  0.62691990  0.74356411  0.99572432  1
  O  O235  1  0.51950592  0.22742056  0.14053942  1
  O  O236  1  0.49132705  0.25035927  0.63122620  1
  O  O237  1  0.49083141  0.74301850  0.12888711  1
  O  O238  1  0.49593559  0.73509632  0.62364668  1
  O  O239  1  0.99532492  0.24305962  0.12984970  1
  O  O240  1  0.99471732  0.24349331  0.63044019  1
  O  O241  1  1.01127525  0.74097638  0.13248052  1
  O  O242  1  0.99541503  0.74376419  0.63547344  1
  O  O243  1  0.00029065  0.25708893  0.36629523  1
  O  O244  1  0.00691467  0.25779058  0.86817412  1
  O  O245  1  0.01363831  0.76095314  0.36609893  1
  O  O246  1  -0.00100021  0.75676118  0.86298339  1
  O  O247  1  0.50738486  0.26034119  0.38404975  1
  O  O248  1  0.50532533  0.25643624  0.86819830  1
  O  O249  1  0.49091784  0.75711832  0.36508765  1
  O  O250  1  0.49637080  0.76425348  0.87409307  1
  O  O251  1  0.24591601  0.13418376  0.48778649  1
  O  O252  1  0.30400221  0.18694372  1.02415158  1
  O  O253  1  0.23363713  0.61958816  0.50104196  1
  O  O254  1  0.24587500  0.62926515  0.99330601  1
  O  O255  1  0.74474794  0.13443124  0.49504388  1
  O  O256  1  0.74811548  0.13140899  0.99425766  1
  O  O257  1  0.74101936  0.62875892  0.49759618  1
  O  O258  1  0.73971788  0.63549152  1.00210605  1
  O  O259  1  0.25798648  0.35159055  0.00401499  1
  O  O260  1  0.25213512  0.36213711  0.49337228  1
  O  O261  1  0.25907258  0.86390085  -0.00526353  1
  O  O262  1  0.25889509  0.88128008  0.50923290  1
  O  O263  1  0.75328688  0.36743417  0.00396963  1
  O  O264  1  0.75016568  0.36553308  0.50708744  1
  O  O265  1  0.75012038  0.86358965  -0.00168343  1
  O  O266  1  0.76060856  0.86477386  0.50099556  1
  O  O267  1  0.12706007  0.49508674  0.24159767  1
  O  O268  1  0.13010336  0.49147932  0.74812061  1
  O  O269  1  0.13545227  0.99381694  0.23967245  1
  O  O270  1  0.13026749  1.00212076  0.73681913  1
  O  O271  1  0.63878998  0.51663111  0.23131016  1
  O  O272  1  0.63333898  0.49969972  0.73639231  1
  O  O273  1  0.63114405  1.00133537  0.24247028  1
  O  O274  1  0.62292554  0.99780290  0.74721910  1
  O  O275  1  0.36398749  -0.01084008  0.25772540  1
  O  O276  1  0.36700350  0.00389218  0.76045287  1
  O  O277  1  0.36201773  0.49763550  0.25996064  1
  O  O278  1  0.36607712  0.50831498  0.74981972  1
  O  O279  1  0.88786937  0.01050264  0.25126569  1
  O  O280  1  0.87682967  0.01253118  0.75257321  1
  O  O281  1  0.86749827  0.50831104  0.25054211  1
  O  O282  1  0.85878407  0.49366408  0.74808645  1
  O  O283  1  0.11018070  0.37324167  0.36657924  1
  O  O284  1  0.12071858  0.36582247  0.86702175  1
  O  O285  1  0.12294369  0.87075688  0.36774604  1
  O  O286  1  0.11107524  0.87542812  0.87785287  1
  O  O287  1  0.61181942  0.36493612  0.37388289  1
  O  O288  1  0.62006859  0.35903850  0.87535618  1
  O  O289  1  0.60864678  0.87495009  0.38686096  1
  O  O290  1  0.60550726  0.87923502  0.87963138  1
  O  O291  1  0.39554990  0.11942225  0.14503397  1
  O  O292  1  0.37611522  0.13854605  0.62027157  1
  O  O293  1  0.38463682  0.63095363  0.12232512  1
  O  O294  1  0.38186492  0.62468301  0.63187647  1
  O  O295  1  0.88178828  0.12925473  0.13292184  1
  O  O296  1  0.87960349  0.12987699  0.63177291  1
  O  O297  1  0.88942550  0.62004905  0.13142977  1
  O  O298  1  0.88767829  0.63191040  0.62027000  1
  O  O299  1  0.27278151  0.25821885  0.16012417  1
  O  O300  1  0.25606163  0.24611950  0.61131607  1
  O  O301  1  0.26316294  0.74376495  0.11772761  1
  O  O302  1  0.24736426  0.76192414  0.62885231  1
  O  O303  1  0.75237983  0.25553888  0.12153259  1
  O  O304  1  0.75141632  0.25391121  0.61850690  1
  O  O305  1  0.73880342  0.75507012  0.10881086  1
  O  O306  1  0.76026993  0.74676769  0.61593133  1
  O  O307  1  0.25216182  0.24174771  0.37110342  1
  O  O308  1  0.23662403  0.24603029  0.86829189  1
  O  O309  1  0.23771963  0.75050051  0.36922748  1
  O  O310  1  0.25501434  0.73732301  0.88276322  1
  O  O311  1  0.74385353  0.24859194  0.38465634  1
  O  O312  1  0.74140364  0.24061805  0.87918855  1
  O  O313  1  0.75214971  0.75387337  0.38360570  1
  O  O314  1  0.74523773  0.74944461  0.88768303  1
  O  O315  1  -0.00344372  0.12154830  0.01053333  1
  O  O316  1  0.00285440  0.11906040  0.50291361  1
  O  O317  1  0.01098887  0.63345284  0.00617335  1
  O  O318  1  0.00727514  0.61872856  0.50644843  1
  O  O319  1  0.50520542  0.12714376  0.00163359  1
  O  O320  1  0.50632501  0.11632536  0.49768075  1
  O  O321  1  0.50506985  0.61858914  0.00323718  1
  O  O322  1  0.50412870  0.61629197  0.50771860  1
  O  O323  1  0.48736287  0.37902649  0.49728417  1
  O  O324  1  0.51911202  0.39090940  0.98698064  1
  O  O325  1  0.48891651  0.87950928  0.49544312  1
  O  O326  1  0.48285406  0.87300904  0.98996568  1
  O  O327  1  0.99893968  0.38261864  0.49274726  1
  O  O328  1  0.98918432  0.36814413  0.99126072  1
  O  O329  1  0.99771008  0.87922315  0.49248772  1
  O  O330  1  1.00302015  0.88225659  0.99105556  1
  O  O331  1  0.48337296  0.49012528  0.38470607  1
  O  O332  1  0.50076358  0.49167461  0.87978834  1
  O  O333  1  0.49176248  0.99179520  0.38462740  1
  O  O334  1  0.48418065  0.98938380  0.87305977  1
  O  O335  1  0.99974500  0.49360577  0.38319006  1
  O  O336  1  1.00105453  0.48199066  0.86873515  1
  O  O337  1  1.01107062  0.98834462  0.37928340  1
  O  O338  1  1.00176703  0.99144259  0.88040199  1
  O  O339  1  0.01117290  0.00785126  0.11716736  1
  O  O340  1  0.00694330  0.00259435  0.62063609  1
  O  O341  1  0.01102111  0.51089808  0.12618323  1
  O  O342  1  0.00243602  0.50606390  0.62117714  1
  O  O343  1  0.51556984  0.01600421  0.13635982  1
  O  O344  1  0.49292264  0.00213844  0.61320746  1
  O  O345  1  0.50554850  0.50546616  0.11678454  1
  O  O346  1  0.50551098  0.50482940  0.62241083  1
  O  O347  1  0.22950337  0.38502896  0.26032990  1
  O  O348  1  0.24134111  0.38336685  0.75496230  1
  O  O349  1  0.24106157  0.88420108  0.25119867  1
  O  O350  1  0.25601893  0.88689328  0.73850301  1
  O  O351  1  0.74730298  0.38390229  0.24141378  1
  O  O352  1  0.75070328  0.37783471  0.73809630  1
  O  O353  1  0.74698574  0.86680254  0.25361498  1
  O  O354  1  0.74907891  0.87795035  0.74796438  1
  O  O355  1  0.24384600  0.11506877  0.26060909  1
  O  O356  1  0.25316816  0.10820610  0.74077118  1
  O  O357  1  0.25031525  0.61602846  0.25443992  1
  O  O358  1  0.25336565  0.61939760  0.75814136  1
  O  O359  1  0.76214117  0.12763120  0.25965538  1
  O  O360  1  0.75701063  0.12417494  0.75989357  1
  O  O361  1  0.76429461  0.61986039  0.24122428  1
  O  O362  1  0.74562294  0.61001103  0.74743266  1
  O  O363  1  0.36695244  0.11125591  0.37834276  1
  O  O364  1  0.37715853  0.11212912  0.87715917  1
  O  O365  1  0.37086148  0.61155650  0.37814894  1
  O  O366  1  0.36756740  0.62048259  0.86827657  1
  O  O367  1  0.86632020  0.12934508  0.36500970  1
  O  O368  1  0.86623428  0.12619198  0.86863356  1
  O  O369  1  0.88722246  0.62329424  0.35892635  1
  O  O370  1  0.86968350  0.61435318  0.87856313  1
  O  O371  1  0.11568463  0.38368586  0.13222882  1
  O  O372  1  0.11834832  0.37957207  0.63951211  1
  O  O373  1  0.12358591  0.88696531  0.13200186  1
  O  O374  1  0.13214289  0.88405913  0.61786799  1
  O  O375  1  0.62903176  0.38480526  0.12451548  1
  O  O376  1  0.63270330  0.38232576  0.61809038  1
  O  O377  1  0.61788492  0.89173669  0.12195769  1
  O  O378  1  0.62484202  0.87625945  0.62417407  1
  O  O379  1  0.11190959  0.25775761  0.24672553  1
  O  O380  1  0.12039807  0.25484145  0.75161362  1
  O  O381  1  0.12209968  0.75759116  0.25268966  1
  O  O382  1  0.11191113  0.75051986  0.74703404  1
  O  O383  1  0.63382273  0.24844294  0.26612940  1
  O  O384  1  0.61593285  0.24126175  0.76035837  1
  O  O385  1  0.60857153  0.73668300  0.24782205  1
  O  O386  1  0.61880523  0.75265575  0.75473636  1
  O  O387  1  0.41788056  0.32015076  0.27146354  1
  O  O388  1  0.37817926  0.24983006  0.74058848  1
  O  O389  1  0.38147465  0.74722020  0.24160757  1
  O  O390  1  0.37400611  0.73558378  0.74790866  1
  O  O391  1  0.88530341  0.24863621  0.24386244  1
  O  O392  1  0.87950764  0.23956000  0.74631580  1
  O  O393  1  0.89478796  0.74299303  0.25159680  1
  O  O394  1  0.88248977  0.75341872  0.73847225  1
  O  O395  1  0.37404394  0.49347585  0.50004051  1
  O  O396  1  0.38812723  0.50361177  0.99830306  1
  O  O397  1  0.37833520  0.99315333  0.49240520  1
  O  O398  1  0.36031190  0.99513440  0.99318037  1
  O  O399  1  0.88541524  0.50039154  0.49903843  1
  O  O400  1  0.86742694  0.48485124  0.99947498  1
  O  O401  1  0.88692462  0.98977704  0.50494829  1
  O  O402  1  0.89201713  1.00418024  0.99862427  1
  O  O403  1  0.11865894  -0.00094852  0.00851688  1
  O  O404  1  0.11821838  0.00578946  0.50768652  1
  O  O405  1  0.13532255  0.50240214  0.00873777  1
  O  O406  1  0.11447158  0.50368870  0.50494415  1
  O  O407  1  0.62108994  0.01507286  0.00139724  1
  O  O408  1  0.61305406  0.00783515  0.50151791  1
  O  O409  1  0.62298058  0.50939134  0.00772626  1
  O  O410  1  0.62098766  0.50330226  0.50999522  1
  O  O411  1  0.36079276  0.37498676  0.11883235  1
  O  O412  1  0.37490211  0.36615428  0.61609699  1
  O  O413  1  0.38118553  0.86797687  0.11736299  1
  O  O414  1  0.36622315  0.87154875  0.61621928  1
  O  O415  1  0.87076685  0.36915043  0.11822780  1
  O  O416  1  0.86634113  0.36555392  0.62191597  1
  O  O417  1  0.87190248  0.87781469  0.11797967  1
  O  O418  1  0.87942621  0.86365858  0.61301669  1
  O  O419  1  0.13234652  0.12685611  0.37938540  1
  O  O420  1  0.12029312  0.13728805  0.87245857  1
  O  O421  1  0.12271129  0.63412668  0.38324854  1
  O  O422  1  0.13160414  0.61920443  0.88775002  1
  O  O423  1  0.63287548  0.13075480  0.38659022  1
  O  O424  1  0.62804773  0.12962597  0.88680540  1
  O  O425  1  0.61155389  0.60888566  0.38608619  1
  O  O426  1  0.62773547  0.62327657  0.88539735  1
