# generated using pymatgen
data_V85Zn86O256
_symmetry_space_group_name_H-M   'P 1'
_cell_length_a   16.97917452
_cell_length_b   16.99188563
_cell_length_c   16.98717930
_cell_angle_alpha   89.97464424
_cell_angle_beta   89.95422187
_cell_angle_gamma   90.00917474
_symmetry_Int_Tables_number   1
_chemical_formula_structural   V85Zn86O256
_chemical_formula_sum   'V85 Zn86 O256'
_cell_volume   4900.93827135
_cell_formula_units_Z   1
loop_
 _symmetry_equiv_pos_site_id
 _symmetry_equiv_pos_as_xyz
  1  'x, y, z'
loop_
 _atom_site_type_symbol
 _atom_site_label
 _atom_site_symmetry_multiplicity
 _atom_site_fract_x
 _atom_site_fract_y
 _atom_site_fract_z
 _atom_site_occupancy
  V  V0  1  0.49679521  -0.00679920  0.49964424  1
  V  V1  1  0.24396609  0.87712366  0.13031873  1
  V  V2  1  0.37591170  0.50164303  0.86869849  1
  V  V3  1  0.37480490  0.87294288  0.00278016  1
  V  V4  1  0.13193156  0.11381464  0.00163941  1
  V  V5  1  0.75816285  0.25224100  -0.00121030  1
  V  V6  1  0.75057773  0.62236116  0.37747957  1
  V  V7  1  0.50674956  0.62160530  0.62488563  1
  V  V8  1  0.25692046  0.74339303  0.48763057  1
  V  V9  1  0.24500633  0.24568367  0.00394578  1
  V  V10  1  0.00187133  0.49198081  0.51193192  1
  V  V11  1  0.11318321  0.75625671  0.86550244  1
  V  V12  1  0.62777656  0.24952319  0.37453097  1
  V  V13  1  0.24405644  -0.01146991  0.75108024  1
  V  V14  1  0.49985611  0.50164555  0.00312320  1
  V  V15  1  0.87559128  0.49234170  0.38072671  1
  V  V16  1  0.50005860  0.74968437  0.74970957  1
  V  V17  1  0.19482293  0.17424172  0.82203689  1
  V  V18  1  0.49885684  0.12487774  0.62571419  1
  V  V19  1  0.62747947  0.75156611  0.88169580  1
  V  V20  1  0.12313169  0.24408477  0.39262900  1
  V  V21  1  0.49537799  0.86770167  0.37683340  1
  V  V22  1  0.01176140  0.24563231  0.25092471  1
  V  V23  1  0.49905402  0.87572223  0.87602307  1
  V  V24  1  0.75314050  0.62917786  0.87701702  1
  V  V25  1  0.36968813  0.00425589  0.87469951  1
  V  V26  1  0.75274853  0.37214529  0.12197159  1
  V  V27  1  0.49605044  0.37578608  0.38064111  1
  V  V28  1  0.11024057  0.74330455  0.38140002  1
  V  V29  1  0.01049794  0.11627008  0.12313752  1
  V  V30  1  0.74718908  -0.00340468  0.24671147  1
  V  V31  1  0.62987527  0.62724255  0.00266415  1
  V  V32  1  0.62563456  0.87536306  0.74967341  1
  V  V33  1  0.37441283  -0.00199959  0.37557147  1
  V  V34  1  0.87447166  -0.00056654  0.87288327  1
  V  V35  1  0.87795694  0.62640506  0.25142905  1
  V  V36  1  0.62466335  0.38000898  0.73790591  1
  V  V37  1  0.62171119  0.74505758  0.37195966  1
  V  V38  1  0.62436276  -0.00164939  0.62374556  1
  V  V39  1  0.00138411  0.37341507  0.37651818  1
  V  V40  1  0.38015338  0.75000099  0.13451414  1
  V  V41  1  0.24508953  0.11949691  0.37780488  1
  V  V42  1  0.62488318  0.12590397  -0.00117327  1
  V  V43  1  0.37011474  0.25344535  0.12568452  1
  V  V44  1  0.74364937  0.50363075  0.74174583  1
  V  V45  1  0.25175381  0.38551909  0.61656519  1
  V  V46  1  0.87601599  0.11969679  0.24511308  1
  V  V47  1  0.62710847  0.50002790  0.12392117  1
  V  V48  1  0.88334429  0.87347885  0.49506819  1
  V  V49  1  0.00745799  0.63861636  0.62332525  1
  V  V50  1  0.23593432  0.50138165  0.74618377  1
  V  V51  1  0.35753227  0.62125200  0.25443216  1
  V  V52  1  0.62989615  0.25447075  0.87241882  1
  V  V53  1  0.75300854  0.49745556  0.25142454  1
  V  V54  1  0.76077601  0.25364020  0.50298107  1
  V  V55  1  0.62745215  0.12430219  0.49945400  1
  V  V56  1  0.12144981  -0.00143835  0.61571211  1
  V  V57  1  0.24728012  0.87108518  0.61978782  1
  V  V58  1  0.75303911  0.74930857  0.50212810  1
  V  V59  1  0.00305793  -0.01227458  -0.00128069  1
  V  V60  1  0.11877467  0.87733479  0.25811350  1
  V  V61  1  0.50199678  0.37702993  0.87555956  1
  V  V62  1  0.88287596  -0.00880730  0.37018732  1
  V  V63  1  0.24821501  0.63122880  0.87271186  1
  V  V64  1  0.49539398  0.25059554  0.75084031  1
  V  V65  1  0.87976046  0.25042614  0.12351879  1
  V  V66  1  0.75237816  0.87256685  0.62177547  1
  V  V67  1  0.37769115  0.75661627  0.62053444  1
  V  V68  1  0.36305945  0.50063253  0.37928345  1
  V  V69  1  0.87849577  0.49599940  0.87427997  1
  V  V70  1  0.75064417  0.12391908  0.37302757  1
  V  V71  1  0.49932323  0.12557636  0.12459099  1
  V  V72  1  0.36790777  0.37590965  -0.00265865  1
  V  V73  1  0.76161963  0.37557068  0.62335873  1
  V  V74  1  0.50210279  0.62620382  0.13964046  1
  V  V75  1  0.87886838  0.63581477  0.74105895  1
  V  V76  1  0.26609174  0.25149504  0.49650420  1
  V  V77  1  0.86986978  0.74903609  0.12089146  1
  V  V78  1  0.88650153  0.12997037  0.73925247  1
  V  V79  1  0.50466450  0.49735943  0.50325423  1
  V  V80  1  0.75211928  0.12641800  0.86903921  1
  V  V81  1  0.50026754  0.25194543  0.25098508  1
  V  V82  1  0.61862824  0.87107757  0.24874054  1
  V  V83  1  0.86544270  0.86899268  -0.00291775  1
  V  V84  1  0.62716317  0.37306781  0.24970627  1
  Zn  Zn85  1  0.02040850  0.35735847  0.87209722  1
  Zn  Zn86  1  0.74263301  0.87157000  0.11881309  1
  Zn  Zn87  1  -0.00439715  0.87042690  0.85519163  1
  Zn  Zn88  1  0.13296520  0.61497260  0.50054541  1
  Zn  Zn89  1  0.94209118  0.44030697  0.03251260  1
  Zn  Zn90  1  0.37392187  0.12399283  0.75084496  1
  Zn  Zn91  1  0.01737270  0.59408263  0.12933792  1
  Zn  Zn92  1  0.38261830  0.25885674  0.61899415  1
  Zn  Zn93  1  0.62947542  0.61974568  0.50581634  1
  Zn  Zn94  1  0.24551844  0.75297699  -0.00141775  1
  Zn  Zn95  1  0.74900991  0.00110911  0.74606402  1
  Zn  Zn96  1  0.49844794  0.00188056  -0.00085175  1
  Zn  Zn97  1  0.37297168  0.12373834  0.25133647  1
  Zn  Zn98  1  0.00612785  0.13820788  0.61420963  1
  Zn  Zn99  1  0.24764122  0.00101723  0.24768623  1
  Zn  Zn100  1  -0.00726637  0.75536666  0.25481636  1
  Zn  Zn101  1  0.62260422  -0.00174812  0.12321759  1
  Zn  Zn102  1  0.37736814  0.62686272  0.74772529  1
  Zn  Zn103  1  0.00946915  -0.00028860  0.49030999  1
  Zn  Zn104  1  0.11242120  0.62054240  -0.00154627  1
  Zn  Zn105  1  0.93858798  0.30795953  0.56520886  1
  Zn  Zn106  1  0.16797301  0.48082379  0.13906155  1
  Zn  Zn107  1  0.18533925  0.30686415  0.19104193  1
  Zn  Zn108  1  0.17811273  0.19624644  0.64727764  1
  Zn  Zn109  1  0.18768786  0.69157208  0.19221389  1
  Zn  Zn110  1  0.18958584  0.68571399  0.68662953  1
  Zn  Zn111  1  0.68800270  0.18470288  0.18583391  1
  Zn  Zn112  1  0.68897102  0.19182375  0.68699265  1
  Zn  Zn113  1  0.69313600  0.68920159  0.18930644  1
  Zn  Zn114  1  0.68768289  0.69072678  0.68917309  1
  Zn  Zn115  1  0.31643571  0.30841291  0.32007158  1
  Zn  Zn116  1  0.21104801  0.33440045  0.81741861  1
  Zn  Zn117  1  0.31598805  0.81144862  0.30925438  1
  Zn  Zn118  1  0.31346651  0.81285158  0.81014305  1
  Zn  Zn119  1  0.81961815  0.31059886  0.31032027  1
  Zn  Zn120  1  0.86290129  0.29393945  0.82693474  1
  Zn  Zn121  1  0.80631953  0.81142437  0.31224643  1
  Zn  Zn122  1  0.81270579  0.81339228  0.81025952  1
  Zn  Zn123  1  0.18100283  0.43060787  0.43895411  1
  Zn  Zn124  1  0.17821213  0.44559394  0.94915659  1
  Zn  Zn125  1  0.19093031  0.92550099  0.43932552  1
  Zn  Zn126  1  0.18624753  0.92843177  0.93586381  1
  Zn  Zn127  1  0.68510834  0.43535120  0.44099681  1
  Zn  Zn128  1  0.69417855  0.43946486  0.93367853  1
  Zn  Zn129  1  0.68734347  0.93531425  0.43411990  1
  Zn  Zn130  1  0.68649556  0.94215822  0.93600975  1
  Zn  Zn131  1  0.31259845  0.05985371  0.06488204  1
  Zn  Zn132  1  0.31329226  0.06181221  0.56065588  1
  Zn  Zn133  1  0.29067160  0.55579903  0.04837988  1
  Zn  Zn134  1  0.32035386  0.56647127  0.56251514  1
  Zn  Zn135  1  0.81359023  0.06112422  0.06060547  1
  Zn  Zn136  1  0.81488476  0.05892121  0.55734636  1
  Zn  Zn137  1  0.82067461  0.56257225  0.06639537  1
  Zn  Zn138  1  0.81622621  0.56153970  0.56346590  1
  Zn  Zn139  1  0.33818746  0.43208962  0.19429172  1
  Zn  Zn140  1  0.43346337  0.43607495  0.68532007  1
  Zn  Zn141  1  0.43810538  0.93864429  0.19022687  1
  Zn  Zn142  1  0.43367602  0.93624008  0.68899162  1
  Zn  Zn143  1  1.01828324  0.43220013  0.18866549  1
  Zn  Zn144  1  0.93421067  0.44509049  0.69830711  1
  Zn  Zn145  1  0.93905254  0.93079505  0.18079713  1
  Zn  Zn146  1  0.93059135  0.94278563  0.68245895  1
  Zn  Zn147  1  0.06685364  0.06234831  0.31193640  1
  Zn  Zn148  1  0.05664589  0.05051584  0.80360319  1
  Zn  Zn149  1  0.06485710  0.56333374  0.31313963  1
  Zn  Zn150  1  0.05849004  0.56388122  0.81284221  1
  Zn  Zn151  1  0.56192669  0.06063815  0.31188781  1
  Zn  Zn152  1  0.56250029  0.06147304  0.81286710  1
  Zn  Zn153  1  0.56399833  0.55695421  0.31567420  1
  Zn  Zn154  1  0.56317368  0.56410008  0.81282852  1
  Zn  Zn155  1  0.43943805  0.18137823  0.43668274  1
  Zn  Zn156  1  0.43619527  0.18913655  0.93579634  1
  Zn  Zn157  1  0.43753082  0.68222173  0.43807195  1
  Zn  Zn158  1  0.43780707  0.68631470  0.94070793  1
  Zn  Zn159  1  0.93806724  0.17652840  0.43527993  1
  Zn  Zn160  1  0.94796995  0.18519015  0.93812502  1
  Zn  Zn161  1  0.93534096  0.68360158  0.44535108  1
  Zn  Zn162  1  0.94070033  0.68172308  0.94419005  1
  Zn  Zn163  1  0.06443093  0.30881722  0.05287748  1
  Zn  Zn164  1  0.06258221  0.31992995  0.69426887  1
  Zn  Zn165  1  0.07442663  0.77138881  0.07836890  1
  Zn  Zn166  1  0.06175231  0.81441805  0.68498299  1
  Zn  Zn167  1  0.56230962  0.31281722  0.06180948  1
  Zn  Zn168  1  0.56700564  0.31067283  0.55998173  1
  Zn  Zn169  1  0.55908570  0.81127266  0.06260564  1
  Zn  Zn170  1  0.56622548  0.80932942  0.55886506  1
  O  O171  1  0.11244124  0.11942169  0.11356709  1
  O  O172  1  0.12527018  0.10374252  0.62170247  1
  O  O173  1  0.11234967  0.66407284  0.11591614  1
  O  O174  1  0.11100207  0.62600379  0.62336379  1
  O  O175  1  0.61718901  0.12541750  0.11546738  1
  O  O176  1  0.61682737  0.11885850  0.62059182  1
  O  O177  1  0.62346399  0.62444575  0.11862595  1
  O  O178  1  0.61130513  0.63284586  0.62463669  1
  O  O179  1  0.38641851  0.38938198  0.37083260  1
  O  O180  1  0.38655383  0.38542246  0.88427518  1
  O  O181  1  0.38930956  0.87975119  0.37016065  1
  O  O182  1  0.37982228  0.88045232  0.88334075  1
  O  O183  1  0.88271022  0.38321691  0.37405724  1
  O  O184  1  0.85395468  0.39915859  0.86519800  1
  O  O185  1  0.86685109  0.88130227  0.38027489  1
  O  O186  1  0.87315761  0.88185937  0.87979422  1
  O  O187  1  0.26080842  0.00148358  0.38432276  1
  O  O188  1  0.25801615  -0.01287119  0.86434241  1
  O  O189  1  0.26455849  0.49434780  0.38542941  1
  O  O190  1  0.25860996  0.50964939  0.86182225  1
  O  O191  1  0.75231518  0.00386929  0.36174813  1
  O  O192  1  0.75631307  0.00999660  0.87301179  1
  O  O193  1  0.75530756  0.50283647  0.37532268  1
  O  O194  1  0.74781667  0.51648067  0.86334005  1
  O  O195  1  0.27557037  0.51157089  0.14651503  1
  O  O196  1  0.25794009  0.49692851  0.63322193  1
  O  O197  1  0.25825023  0.98184927  0.12931525  1
  O  O198  1  0.24762928  0.99094279  0.62707065  1
  O  O199  1  0.74682296  0.49220362  0.13028239  1
  O  O200  1  0.75230225  0.49396644  0.63248491  1
  O  O201  1  0.74672902  1.00005819  0.13624227  1
  O  O202  1  0.73826763  0.99330816  0.62233966  1
  O  O203  1  -0.01056289  0.35459816  0.26479605  1
  O  O204  1  0.00117759  0.38271593  0.75927449  1
  O  O205  1  0.01522244  0.87514127  0.24868270  1
  O  O206  1  -0.01452349  0.86908945  0.74345514  1
  O  O207  1  0.50820071  0.35964478  0.26094347  1
  O  O208  1  0.50677645  0.36972115  0.75387622  1
  O  O209  1  0.51195263  0.87933111  0.25913731  1
  O  O210  1  0.50587772  0.86957678  0.75564138  1
  O  O211  1  0.50159420  0.13511299  0.24318585  1
  O  O212  1  0.50458903  0.13216343  0.74138792  1
  O  O213  1  0.50724969  0.62244427  0.24013956  1
  O  O214  1  0.50197124  0.63318701  0.74339869  1
  O  O215  1  0.99694636  0.12532467  0.24087243  1
  O  O216  1  0.98978509  0.12311743  0.74219652  1
  O  O217  1  0.98242365  0.63186307  0.25321899  1
  O  O218  1  0.98819418  0.61892948  0.73555691  1
  O  O219  1  0.36653810  0.25231616  0.00440069  1
  O  O220  1  0.37021397  0.25288848  0.49365942  1
  O  O221  1  0.37768814  0.76325754  0.00646704  1
  O  O222  1  0.36605372  0.74452841  0.50568003  1
  O  O223  1  0.86351841  0.23233012  0.01022238  1
  O  O224  1  0.86430414  0.24952427  0.49506270  1
  O  O225  1  0.87514996  0.75950323  0.00552855  1
  O  O226  1  0.86059769  0.75787644  0.49353259  1
  O  O227  1  0.14308864  0.24869867  0.49045194  1
  O  O228  1  0.13938340  0.23460528  1.00242882  1
  O  O229  1  0.13977452  0.74899432  0.48351223  1
  O  O230  1  0.12946123  0.74793798  0.97876729  1
  O  O231  1  0.63296946  0.24221240  0.49142448  1
  O  O232  1  0.63246929  0.24078904  0.99383682  1
  O  O233  1  0.63530922  0.74713713  0.48773747  1
  O  O234  1  0.62076764  0.74422323  0.98877915  1
  O  O235  1  0.49678621  0.24203212  0.13149620  1
  O  O236  1  0.50281984  0.24179314  0.63012696  1
  O  O237  1  0.48895541  0.74050052  0.12047516  1
  O  O238  1  0.49585827  0.74698454  0.62777437  1
  O  O239  1  0.99481013  0.23756244  0.13263354  1
  O  O240  1  1.01649098  0.25137753  0.61972144  1
  O  O241  1  0.97505239  0.76184357  0.13520579  1
  O  O242  1  1.00162533  0.73628220  0.61644094  1
  O  O243  1  0.00545117  0.24943288  0.37298617  1
  O  O244  1  -0.03404828  0.25594545  0.85807888  1
  O  O245  1  0.00800329  0.74982635  0.38061348  1
  O  O246  1  0.01038722  0.74779172  0.87394378  1
  O  O247  1  0.50497153  0.25355336  0.36925953  1
  O  O248  1  0.50752017  0.25591062  0.86837351  1
  O  O249  1  0.50872168  0.75688364  0.38352737  1
  O  O250  1  0.50671550  0.75599919  0.87079810  1
  O  O251  1  0.26002276  0.13551206  0.49018662  1
  O  O252  1  0.23958021  0.12536105  1.00367214  1
  O  O253  1  0.24802099  0.63940530  0.50851020  1
  O  O254  1  0.26601319  0.63934176  0.97725769  1
  O  O255  1  0.74644982  0.13202538  0.49398349  1
  O  O256  1  0.74261657  0.12941711  0.99075162  1
  O  O257  1  0.74944156  0.63098889  0.49639471  1
  O  O258  1  0.73699487  0.62168416  0.99186300  1
  O  O259  1  0.26349130  0.36213163  -0.00435349  1
  O  O260  1  0.24987207  0.37049769  0.50923575  1
  O  O261  1  0.25756192  0.87159124  0.00923886  1
  O  O262  1  0.25331324  0.85771877  0.51057833  1
  O  O263  1  0.74237812  0.35958850  0.00451133  1
  O  O264  1  0.74375496  0.36611775  0.51065984  1
  O  O265  1  0.76136954  0.88370996  -0.00084557  1
  O  O266  1  0.74912051  0.86626271  0.50411478  1
  O  O267  1  0.09051158  0.52007438  0.21424970  1
  O  O268  1  0.13804042  0.50434213  0.75065768  1
  O  O269  1  0.12994266  0.98166570  0.25883307  1
  O  O270  1  0.13946221  1.00086427  0.74036632  1
  O  O271  1  0.63261985  0.49205803  0.24458164  1
  O  O272  1  0.63268960  0.49308056  0.75385675  1
  O  O273  1  0.63094078  0.99234656  0.24818200  1
  O  O274  1  0.62515233  0.99181775  0.74300525  1
  O  O275  1  0.37513530  0.00127883  0.26392153  1
  O  O276  1  0.36464842  0.00225128  0.75588444  1
  O  O277  1  0.38151146  0.51398823  0.26671772  1
  O  O278  1  0.38098235  0.50456863  0.76265109  1
  O  O279  1  0.86688917  -0.00170798  0.25233052  1
  O  O280  1  0.86918891  0.00854560  0.75996348  1
  O  O281  1  0.86455478  0.51117767  0.26792726  1
  O  O282  1  0.86107057  0.51450051  0.75739885  1
  O  O283  1  0.10916195  0.36290478  0.37880750  1
  O  O284  1  0.13299892  0.37495762  0.88264296  1
  O  O285  1  0.13004200  0.86129663  0.36543275  1
  O  O286  1  0.11855608  0.86083011  0.87035915  1
  O  O287  1  0.61947634  0.36845168  0.36814446  1
  O  O288  1  0.62188771  0.37094308  0.86697896  1
  O  O289  1  0.61622488  0.86679184  0.36870349  1
  O  O290  1  0.62109501  0.86899691  0.87246363  1
  O  O291  1  0.38285618  0.13479734  0.12498677  1
  O  O292  1  0.39027945  0.12506164  0.62658893  1
  O  O293  1  0.38548083  0.63220985  0.14139616  1
  O  O294  1  0.38826040  0.63782501  0.62708274  1
  O  O295  1  0.88180588  0.12809592  0.12907600  1
  O  O296  1  0.87441554  0.10928585  0.63903749  1
  O  O297  1  0.86333382  0.63694022  0.13874692  1
  O  O298  1  0.88190400  0.62397957  0.63564259  1
  O  O299  1  0.25959258  0.24734239  0.11619652  1
  O  O300  1  0.26302030  0.25701958  0.61214646  1
  O  O301  1  0.26681133  0.75886678  0.12477803  1
  O  O302  1  0.25855715  0.75482313  0.62100789  1
  O  O303  1  0.75651439  0.24929883  0.11753436  1
  O  O304  1  0.74331415  0.25982867  0.61268762  1
  O  O305  1  0.76178873  0.75680330  0.12912185  1
  O  O306  1  0.74170411  0.75987483  0.61420821  1
  O  O307  1  0.24525305  0.24050599  0.38033551  1
  O  O308  1  0.25287863  0.23686170  0.87890985  1
  O  O309  1  0.25523590  0.75086753  0.38681816  1
  O  O310  1  0.24113951  0.74473573  0.86673896  1
  O  O311  1  0.74702551  0.24479444  0.37952185  1
  O  O312  1  0.75333924  0.24270788  0.88209274  1
  O  O313  1  0.74154218  0.74149117  0.38164642  1
  O  O314  1  0.74085721  0.73867355  0.86964767  1
  O  O315  1  0.00966083  0.11420664  0.00312371  1
  O  O316  1  -0.01726087  0.10756034  0.50716573  1
  O  O317  1  -0.00121672  0.61842596  0.01310686  1
  O  O318  1  -0.00068308  0.61454656  0.51301086  1
  O  O319  1  0.50760691  0.12769511  0.00704397  1
  O  O320  1  0.50804916  0.11721316  0.50707712  1
  O  O321  1  0.51151397  0.62039248  0.00614540  1
  O  O322  1  0.50476755  0.61659322  0.50764571  1
  O  O323  1  0.50616867  0.37911997  0.48863666  1
  O  O324  1  0.49488666  0.38050391  0.99516504  1
  O  O325  1  0.50808394  0.88364882  0.49017879  1
  O  O326  1  0.49270623  0.87959799  0.99474519  1
  O  O327  1  0.99104024  0.38690485  0.49382226  1
  O  O328  1  0.99131026  0.35655685  0.98546777  1
  O  O329  1  0.98123345  0.88243157  0.50286095  1
  O  O330  1  0.98670068  0.88602839  0.99746003  1
  O  O331  1  0.49752493  0.48980127  0.38156810  1
  O  O332  1  0.49523219  0.49826760  0.88265005  1
  O  O333  1  0.49566677  0.99312189  0.38226745  1
  O  O334  1  0.49268303  0.99118729  0.87481502  1
  O  O335  1  0.99376093  0.48978281  0.37899957  1
  O  O336  1  0.98062473  0.50232341  0.87210172  1
  O  O337  1  0.98570311  1.00086287  0.36991564  1
  O  O338  1  0.99022603  0.99440939  0.87865494  1
  O  O339  1  -0.00758721  0.00610262  0.11183051  1
  O  O340  1  0.01843043  -0.00526111  0.62562326  1
  O  O341  1  -0.04967923  0.49795216  0.12570224  1
  O  O342  1  -0.00852997  0.50232974  0.61269344  1
  O  O343  1  0.49931182  0.01510267  0.12451877  1
  O  O344  1  0.50401031  0.00338247  0.61855429  1
  O  O345  1  0.51229855  0.51213378  0.11672240  1
  O  O346  1  0.49279525  0.50877467  0.61601804  1
  O  O347  1  0.26002926  0.36808337  0.24627574  1
  O  O348  1  0.26304418  0.39836367  0.74299425  1
  O  O349  1  0.24301940  0.87496972  0.24587112  1
  O  O350  1  0.25925166  0.88077142  0.73472468  1
  O  O351  1  0.74785300  0.37765744  0.24357372  1
  O  O352  1  0.73981609  0.38674652  0.73808687  1
  O  O353  1  0.73519380  0.88216524  0.25021429  1
  O  O354  1  0.74405871  0.87624759  0.73966392  1
  O  O355  1  0.25549452  0.11680987  0.27163571  1
  O  O356  1  0.25135563  0.11828710  0.75661105  1
  O  O357  1  0.26000283  0.63011080  0.25745815  1
  O  O358  1  0.25587033  0.61582869  0.75337049  1
  O  O359  1  0.75416287  0.11615470  0.25288795  1
  O  O360  1  0.74469770  0.12225481  0.76138296  1
  O  O361  1  0.75398251  0.61730052  0.25984645  1
  O  O362  1  0.75519161  0.62119827  0.75259018  1
  O  O363  1  0.37300302  0.11205664  0.37434072  1
  O  O364  1  0.38220502  0.10758059  0.87465978  1
  O  O365  1  0.38149891  0.61526571  0.36271608  1
  O  O366  1  0.37354781  0.61850917  0.87029267  1
  O  O367  1  0.86658809  0.11444637  0.36293484  1
  O  O368  1  0.86773410  0.11636577  0.86460112  1
  O  O369  1  0.86651666  0.62067117  0.37198873  1
  O  O370  1  0.86735651  0.62174983  0.86579532  1
  O  O371  1  0.11181806  0.37443205  0.13284569  1
  O  O372  1  0.15492896  0.36759378  0.63780111  1
  O  O373  1  0.13557303  0.85732953  0.14271915  1
  O  O374  1  0.13848648  0.88361639  0.62854334  1
  O  O375  1  0.63165605  0.37740236  0.13101366  1
  O  O376  1  0.62832014  0.37312327  0.63543915  1
  O  O377  1  0.62284819  0.87659488  0.13260562  1
  O  O378  1  0.63124693  0.87964117  0.62826136  1
  O  O379  1  0.11346897  0.24322982  0.26019245  1
  O  O380  1  0.14903680  0.24158961  0.75547824  1
  O  O381  1  0.12237507  0.75596731  0.26856387  1
  O  O382  1  0.12376091  0.74670385  0.75872879  1
  O  O383  1  0.62085561  0.25201020  0.25494824  1
  O  O384  1  0.61875463  0.25925148  0.75531804  1
  O  O385  1  0.62978827  0.75673476  0.26311727  1
  O  O386  1  0.61975255  0.75602687  0.76193766  1
  O  O387  1  0.38555777  0.24581013  0.24254834  1
  O  O388  1  0.39352129  0.24432132  0.74929363  1
  O  O389  1  0.37733345  0.73580056  0.24645136  1
  O  O390  1  0.38529331  0.74989173  0.74169015  1
  O  O391  1  0.88195336  0.23688373  0.24228519  1
  O  O392  1  0.85809095  0.22583471  0.73612419  1
  O  O393  1  0.87046068  0.74247457  0.24834788  1
  O  O394  1  0.86869524  0.73353967  0.75080928  1
  O  O395  1  0.38802159  0.50939865  0.48510105  1
  O  O396  1  0.37697153  0.49210543  0.99048340  1
  O  O397  1  0.38999293  1.00212480  0.49250877  1
  O  O398  1  0.37514897  0.98924753  0.99362878  1
  O  O399  1  0.88603824  0.50705901  0.48787542  1
  O  O400  1  0.85802966  0.50205373  0.97850442  1
  O  O401  1  0.86249174  0.98728386  0.48220344  1
  O  O402  1  0.87967392  0.99776231  0.98693280  1
  O  O403  1  0.11661419  0.00340989  -0.00875485  1
  O  O404  1  0.12734890  -0.01043475  0.51167763  1
  O  O405  1  0.16956514  0.52149755  0.02553960  1
  O  O406  1  0.10611273  0.49998201  0.49481969  1
  O  O407  1  0.62156850  0.01411149  0.00039392  1
  O  O408  1  0.61692689  0.00483094  0.50250290  1
  O  O409  1  0.62315695  0.50745677  0.00475708  1
  O  O410  1  0.61027239  0.50237562  0.49625883  1
  O  O411  1  0.38521877  0.35934946  0.11333916  1
  O  O412  1  0.36130999  0.37304392  0.62621861  1
  O  O413  1  0.37551005  0.86817564  0.12154094  1
  O  O414  1  0.37275894  0.86227425  0.62435975  1
  O  O415  1  0.86685229  0.35310453  0.12255088  1
  O  O416  1  0.86508633  0.37575493  0.62790076  1
  O  O417  1  0.86633131  0.87166391  0.11353475  1
  O  O418  1  0.85683479  0.88582363  0.61187441  1
  O  O419  1  0.13290927  0.12995480  0.37700475  1
  O  O420  1  0.12510772  0.12085014  0.87558340  1
  O  O421  1  0.12124880  0.63800110  0.37966279  1
  O  O422  1  0.13281487  0.63115035  0.87373248  1
  O  O423  1  0.63128810  0.12889980  0.37878981  1
  O  O424  1  0.63134979  0.13195171  0.88062775  1
  O  O425  1  0.63242616  0.63038389  0.37617004  1
  O  O426  1  0.62982164  0.63361501  0.88217083  1
