# generated using pymatgen
data_V85Zn86O256
_symmetry_space_group_name_H-M   'P 1'
_cell_length_a   16.90508301
_cell_length_b   16.90425109
_cell_length_c   16.90106799
_cell_angle_alpha   89.99906828
_cell_angle_beta   89.96851135
_cell_angle_gamma   89.95440949
_symmetry_Int_Tables_number   1
_chemical_formula_structural   V85Zn86O256
_chemical_formula_sum   'V85 Zn86 O256'
_cell_volume   4829.77821731
_cell_formula_units_Z   1
loop_
 _symmetry_equiv_pos_site_id
 _symmetry_equiv_pos_as_xyz
  1  'x, y, z'
loop_
 _atom_site_type_symbol
 _atom_site_label
 _atom_site_symmetry_multiplicity
 _atom_site_fract_x
 _atom_site_fract_y
 _atom_site_fract_z
 _atom_site_occupancy
  V  V0  1  0.01411246  0.50152839  0.49713837  1
  V  V1  1  0.00082825  0.49883899  -0.00014092  1
  V  V2  1  0.50028701  0.87461386  0.87375211  1
  V  V3  1  0.74686192  0.74598599  0.50990454  1
  V  V4  1  0.12163771  0.00524242  0.12444645  1
  V  V5  1  0.63176736  0.49904561  0.13182107  1
  V  V6  1  0.37042033  0.88207382  0.50123372  1
  V  V7  1  0.62239099  0.13132245  0.49716204  1
  V  V8  1  0.12461949  0.62701869  -0.00178682  1
  V  V9  1  0.25438576  0.37081131  0.12645560  1
  V  V10  1  0.87634466  0.36858147  0.00391669  1
  V  V11  1  0.74919159  0.62264512  0.37195748  1
  V  V12  1  0.63584822  0.74998888  0.87762225  1
  V  V13  1  0.75193835  0.12336802  0.37364583  1
  V  V14  1  0.24429582  0.75166574  -0.00515473  1
  V  V15  1  0.87516194  0.49826991  0.86930487  1
  V  V16  1  0.75413041  0.37172563  0.13142819  1
  V  V17  1  0.24088725  0.74948089  0.50234292  1
  V  V18  1  0.50202964  0.24298454  0.25227604  1
  V  V19  1  0.00993203  0.62161318  0.62077813  1
  V  V20  1  0.00881565  -0.00819041  0.49162049  1
  V  V21  1  -0.00446319  0.75703265  0.25341651  1
  V  V22  1  0.75363604  0.24104730  0.00143601  1
  V  V23  1  0.87171563  0.86853139  -0.00669433  1
  V  V24  1  0.49748331  0.75168290  0.24813739  1
  V  V25  1  0.50767603  0.37578631  0.86980796  1
  V  V26  1  0.01308000  0.87185408  0.86991301  1
  V  V27  1  0.12493679  -0.00148185  0.64102291  1
  V  V28  1  0.24618812  0.49534519  0.73834263  1
  V  V29  1  0.63090366  -0.00651794  0.62085829  1
  V  V30  1  0.49515545  0.12370279  0.62824494  1
  V  V31  1  0.24339375  0.62528671  0.87242463  1
  V  V32  1  0.61999643  0.00631067  0.12287021  1
  V  V33  1  0.11735979  0.25207632  0.38271581  1
  V  V34  1  0.37145618  0.75069429  0.12428273  1
  V  V35  1  0.37541637  0.49794265  0.87444908  1
  V  V36  1  0.12828536  0.37538233  0.73380480  1
  V  V37  1  0.24698098  0.87630570  0.12652489  1
  V  V38  1  0.49732957  0.24813508  0.75052938  1
  V  V39  1  -0.00411591  0.25445901  0.24234339  1
  V  V40  1  0.25033719  0.25002917  -0.00786417  1
  V  V41  1  0.00288563  0.24709875  0.75280463  1
  V  V42  1  0.25768007  0.11901970  0.86379682  1
  V  V43  1  0.12580843  0.12891965  -0.00897854  1
  V  V44  1  0.01040427  0.75116060  0.75189454  1
  V  V45  1  -0.00136795  -0.00135805  -0.00260971  1
  V  V46  1  0.24427800  0.87818343  0.63890433  1
  V  V47  1  0.62160180  0.12738735  -0.00533967  1
  V  V48  1  -0.00122679  0.62627141  0.12584143  1
  V  V49  1  0.11846874  0.75650415  0.37773089  1
  V  V50  1  0.74665775  0.87295154  0.11821684  1
  V  V51  1  0.24740896  0.12833798  0.39106979  1
  V  V52  1  0.87008465  0.00503063  0.87354569  1
  V  V53  1  0.37585339  0.37931476  0.50971260  1
  V  V54  1  0.37231983  0.62457202  0.25048075  1
  V  V55  1  0.62460912  0.87560649  0.24763950  1
  V  V56  1  0.24915081  0.00835400  0.25073362  1
  V  V57  1  0.49311819  0.00550466  -0.00151043  1
  V  V58  1  0.25014005  0.49870973  0.25192792  1
  V  V59  1  0.24188474  0.62360467  0.38053834  1
  V  V60  1  0.74477610  0.37717355  0.63336802  1
  V  V61  1  0.50361409  0.62325457  0.60572572  1
  V  V62  1  0.86824325  0.74860198  0.12260807  1
  V  V63  1  0.49707753  0.87597456  0.37544242  1
  V  V64  1  0.12628774  0.50032594  0.12739143  1
  V  V65  1  0.50346155  0.74475031  0.75048895  1
  V  V66  1  0.36730662  0.25011041  0.62795863  1
  V  V67  1  0.38409566  0.49871449  0.37955954  1
  V  V68  1  0.87481028  0.25022801  0.62361293  1
  V  V69  1  0.63433880  0.25081796  0.86595068  1
  V  V70  1  0.50228441  0.49880069  -0.00002581  1
  V  V71  1  0.74940079  -0.00026370  0.75060087  1
  V  V72  1  0.01158207  0.37114329  0.87580414  1
  V  V73  1  0.63480034  0.62753568  0.00045760  1
  V  V74  1  0.74636644  0.25371611  0.49525941  1
  V  V75  1  0.61803958  0.49923146  0.61867676  1
  V  V76  1  0.87795610  0.38024978  0.49727960  1
  V  V77  1  0.00130946  0.12285926  0.61680443  1
  V  V78  1  0.86565397  0.87838807  0.49938946  1
  V  V79  1  0.37371793  0.74920518  0.62369653  1
  V  V80  1  0.87528436  0.50061614  0.37151131  1
  V  V81  1  0.37584482  0.62219033  0.74931590  1
  V  V82  1  0.62659069  0.37300552  0.26034476  1
  V  V83  1  0.49994209  0.62405812  0.12360397  1
  V  V84  1  0.62605739  0.74544115  0.37779336  1
  Zn  Zn85  1  0.37262214  0.87724737  -0.00350302  1
  Zn  Zn86  1  0.87959432  -0.00404004  0.36910113  1
  Zn  Zn87  1  0.87220076  0.12628010  0.23940004  1
  Zn  Zn88  1  0.75563658  0.62684382  0.87519440  1
  Zn  Zn89  1  -0.01110903  0.13091701  0.11940624  1
  Zn  Zn90  1  0.49960459  0.00248328  0.49890694  1
  Zn  Zn91  1  0.50481223  0.37277210  0.38102737  1
  Zn  Zn92  1  0.37404175  0.00407127  0.37571329  1
  Zn  Zn93  1  0.12324912  0.37558403  0.25717831  1
  Zn  Zn94  1  0.87371156  0.62708860  0.74544962  1
  Zn  Zn95  1  0.24518970  0.25285037  0.50787501  1
  Zn  Zn96  1  0.87027641  0.12611898  0.75113273  1
  Zn  Zn97  1  0.87562015  0.75080587  0.62762772  1
  Zn  Zn98  1  0.37868762  0.37211085  0.00056953  1
  Zn  Zn99  1  0.11760121  0.88174039  0.25696805  1
  Zn  Zn100  1  0.38378406  0.23656560  0.12173968  1
  Zn  Zn101  1  0.74096203  0.49923367  0.75380140  1
  Zn  Zn102  1  0.63293572  0.86871333  0.74287003  1
  Zn  Zn103  1  0.87050874  0.62074327  0.24776886  1
  Zn  Zn104  1  0.37697277  0.00069076  0.85442351  1
  Zn  Zn105  1  0.37858477  0.12425818  0.24799799  1
  Zn  Zn106  1  0.75153223  0.00147288  0.24877942  1
  Zn  Zn107  1  0.18314140  0.19041696  0.18685883  1
  Zn  Zn108  1  0.17805681  0.18819218  0.68642927  1
  Zn  Zn109  1  0.18347784  0.68890328  0.19126248  1
  Zn  Zn110  1  0.18558086  0.68598091  0.68706419  1
  Zn  Zn111  1  0.68443126  0.19000035  0.18611667  1
  Zn  Zn112  1  0.68795237  0.18326245  0.68479726  1
  Zn  Zn113  1  0.68831892  0.68780333  0.18982767  1
  Zn  Zn114  1  0.68660979  0.67615471  0.69026537  1
  Zn  Zn115  1  0.31601350  0.31054919  0.31458414  1
  Zn  Zn116  1  0.31287672  0.31169857  0.81320448  1
  Zn  Zn117  1  0.30678804  0.81549359  0.31220609  1
  Zn  Zn118  1  0.31524645  0.81073315  0.81358790  1
  Zn  Zn119  1  0.81373611  0.31265790  0.31549698  1
  Zn  Zn120  1  0.81787942  0.31337123  0.81455656  1
  Zn  Zn121  1  0.81225642  0.81512410  0.31365068  1
  Zn  Zn122  1  0.81651194  0.81621053  0.80391837  1
  Zn  Zn123  1  0.19470500  0.43166348  0.44017660  1
  Zn  Zn124  1  0.18931481  0.43839083  0.93656757  1
  Zn  Zn125  1  0.18741861  0.93917984  0.44116992  1
  Zn  Zn126  1  0.18957064  0.94206738  0.93610429  1
  Zn  Zn127  1  0.69042352  0.44304933  0.44370828  1
  Zn  Zn128  1  0.68978491  0.43460129  0.94129713  1
  Zn  Zn129  1  0.68789407  0.93679924  0.43717195  1
  Zn  Zn130  1  0.68646174  0.93802660  0.93561625  1
  Zn  Zn131  1  0.31247873  0.06686032  0.06262107  1
  Zn  Zn132  1  0.31161381  0.06303012  0.68103227  1
  Zn  Zn133  1  0.31304447  0.56086061  0.06115429  1
  Zn  Zn134  1  0.31273018  0.56347517  0.56070333  1
  Zn  Zn135  1  0.81074894  0.05979515  0.06345201  1
  Zn  Zn136  1  0.81381807  0.06367717  0.56118047  1
  Zn  Zn137  1  0.81387087  0.55678041  0.06100672  1
  Zn  Zn138  1  0.81441797  0.56474552  0.56415905  1
  Zn  Zn139  1  0.44020142  0.43337091  0.19047895  1
  Zn  Zn140  1  0.44273513  0.43697094  0.68885488  1
  Zn  Zn141  1  0.43389871  0.94339326  0.18541493  1
  Zn  Zn142  1  0.44533098  0.93190896  0.68359939  1
  Zn  Zn143  1  0.93960862  0.43328168  0.18988354  1
  Zn  Zn144  1  0.94050467  0.43784838  0.68294108  1
  Zn  Zn145  1  0.93377824  0.94005940  0.18604546  1
  Zn  Zn146  1  0.93544163  0.93302416  0.68498546  1
  Zn  Zn147  1  0.06325322  0.07280736  0.31173062  1
  Zn  Zn148  1  0.05942448  0.06505386  0.81461654  1
  Zn  Zn149  1  0.06025468  0.56653920  0.31350753  1
  Zn  Zn150  1  0.06142933  0.56112015  0.80792691  1
  Zn  Zn151  1  0.56696664  0.06257460  0.31503439  1
  Zn  Zn152  1  0.56520616  0.06374990  0.81118205  1
  Zn  Zn153  1  0.56422580  0.56347077  0.31209789  1
  Zn  Zn154  1  0.56823016  0.56115659  0.80869071  1
  Zn  Zn155  1  0.43501747  0.19195986  0.43580432  1
  Zn  Zn156  1  0.43599424  0.18880452  0.93641949  1
  Zn  Zn157  1  0.42854979  0.69340564  0.43390274  1
  Zn  Zn158  1  0.43655805  0.68672499  0.93778867  1
  Zn  Zn159  1  0.93574687  0.18504707  0.43675590  1
  Zn  Zn160  1  0.93805564  0.18707157  0.93723767  1
  Zn  Zn161  1  0.93472289  0.68611601  0.44067694  1
  Zn  Zn162  1  0.93870683  0.68855628  0.93400657  1
  Zn  Zn163  1  0.06925947  0.31275312  0.06373355  1
  Zn  Zn164  1  0.05915275  0.31342441  0.55855350  1
  Zn  Zn165  1  0.06052199  0.81431322  0.06278945  1
  Zn  Zn166  1  0.05943561  0.81562822  0.56538052  1
  Zn  Zn167  1  0.56489785  0.31197839  0.06499529  1
  Zn  Zn168  1  0.55981524  0.31531522  0.56306235  1
  Zn  Zn169  1  0.56048277  0.81329017  0.05829367  1
  Zn  Zn170  1  0.56184499  0.80989863  0.56014067  1
  O  O171  1  0.12541128  0.11505372  0.11405396  1
  O  O172  1  0.11599030  0.11072115  0.62703345  1
  O  O173  1  0.11986433  0.61925987  0.12040816  1
  O  O174  1  0.11010842  0.62329450  0.62700807  1
  O  O175  1  0.62897591  0.11646197  0.11090038  1
  O  O176  1  0.61682906  0.11775483  0.61523457  1
  O  O177  1  0.62197970  0.61962703  0.12004854  1
  O  O178  1  0.61330974  0.61603220  0.62385241  1
  O  O179  1  0.37545900  0.38496429  0.38403994  1
  O  O180  1  0.38436231  0.38214336  0.87694727  1
  O  O181  1  0.38110241  0.87258000  0.38171841  1
  O  O182  1  0.38795120  0.87573282  0.87545306  1
  O  O183  1  0.86847122  0.38363592  0.38921392  1
  O  O184  1  0.88692723  0.38064863  0.88274233  1
  O  O185  1  0.87272107  0.87659049  0.39095953  1
  O  O186  1  0.88130913  0.88081107  0.88089975  1
  O  O187  1  0.24593537  0.01144718  0.36971440  1
  O  O188  1  0.25634171  0.01408848  0.87737772  1
  O  O189  1  0.25619986  0.50780496  0.37215162  1
  O  O190  1  0.25694546  0.50683257  0.86915770  1
  O  O191  1  0.74941419  0.00877193  0.37224410  1
  O  O192  1  0.75804815  -0.00414353  0.86678651  1
  O  O193  1  0.75958650  0.51198475  0.38237951  1
  O  O194  1  0.76106673  0.49560911  0.87504461  1
  O  O195  1  0.24523938  0.49567310  0.13063329  1
  O  O196  1  0.25336727  0.50506444  0.63928481  1
  O  O197  1  0.24220825  0.99423609  0.12972232  1
  O  O198  1  0.23371470  0.99446092  0.62597145  1
  O  O199  1  0.74199296  0.48876850  0.12101344  1
  O  O200  1  0.74207643  0.49318607  0.62445456  1
  O  O201  1  0.73582075  0.99021254  0.12231534  1
  O  O202  1  0.73620894  1.00443030  0.62668816  1
  O  O203  1  0.00511769  0.36134224  0.25029052  1
  O  O204  1  0.01030042  0.37095959  0.75441513  1
  O  O205  1  -0.00030550  0.86157262  0.24326639  1
  O  O206  1  -0.00209643  0.86160215  0.75530610  1
  O  O207  1  0.51090736  0.37164202  0.25688707  1
  O  O208  1  0.50171289  0.36741399  0.76230352  1
  O  O209  1  0.50220258  0.87043414  0.25542877  1
  O  O210  1  0.50581034  0.86005650  0.75468377  1
  O  O211  1  0.50495938  0.13859522  0.25507121  1
  O  O212  1  0.50757541  0.13673376  0.74143066  1
  O  O213  1  0.49363837  0.63223826  0.24348408  1
  O  O214  1  0.49485932  0.63373152  0.74836143  1
  O  O215  1  0.99878180  0.13793511  0.24396378  1
  O  O216  1  0.99840510  0.13324728  0.74166834  1
  O  O217  1  0.99720668  0.63610137  0.24062202  1
  O  O218  1  0.99841106  0.63165969  0.74156933  1
  O  O219  1  0.36702624  0.25255450  0.00366905  1
  O  O220  1  0.37315495  0.25874490  0.51102314  1
  O  O221  1  0.36270712  0.74979277  0.00694529  1
  O  O222  1  0.36208257  0.75880045  0.50478774  1
  O  O223  1  0.86852344  0.26009998  -0.00619175  1
  O  O224  1  0.87082799  0.25888327  0.50471861  1
  O  O225  1  0.87921389  0.76083793  0.00592657  1
  O  O226  1  0.86282666  0.75844825  0.50010087  1
  O  O227  1  0.12597268  0.25093863  0.48923645  1
  O  O228  1  0.13432070  0.23930903  1.00251159  1
  O  O229  1  0.13307403  0.75439150  0.49519789  1
  O  O230  1  0.13660464  0.74428118  1.00628487  1
  O  O231  1  0.63359376  0.24332712  0.50714020  1
  O  O232  1  0.63094894  0.24392692  0.99304833  1
  O  O233  1  0.63743972  0.75603161  0.49161758  1
  O  O234  1  0.61850140  0.73927268  0.99070205  1
  O  O235  1  0.49875884  0.26177587  0.14287382  1
  O  O236  1  0.49533077  0.24457073  0.63400485  1
  O  O237  1  0.49215594  0.74543252  0.12757163  1
  O  O238  1  0.49764405  0.74227123  0.63161378  1
  O  O239  1  1.00670756  0.25049104  0.13788787  1
  O  O240  1  0.99656444  0.24116978  0.62825993  1
  O  O241  1  0.98883492  0.74617915  0.12917133  1
  O  O242  1  1.00140142  0.74090386  0.63219843  1
  O  O243  1  0.01348345  0.24277883  0.37149510  1
  O  O244  1  -0.00486844  0.25725497  0.86328265  1
  O  O245  1  0.00701640  0.74198986  0.36758344  1
  O  O246  1  -0.00112270  0.75638390  0.86245975  1
  O  O247  1  0.49705186  0.25547570  0.36035426  1
  O  O248  1  0.50678818  0.25624358  0.86835783  1
  O  O249  1  0.50465571  0.75833487  0.37035500  1
  O  O250  1  0.50523584  0.75444927  0.86847432  1
  O  O251  1  0.25164705  0.12785669  0.48873503  1
  O  O252  1  0.24429779  0.13092809  0.99042611  1
  O  O253  1  0.25393959  0.63565790  0.49201379  1
  O  O254  1  0.24525284  0.63085578  0.99282240  1
  O  O255  1  0.74355568  0.13383510  0.49674648  1
  O  O256  1  0.74361912  0.13649975  0.99961768  1
  O  O257  1  0.75430211  0.64019844  0.49006213  1
  O  O258  1  0.73815164  0.62106520  0.99857993  1
  O  O259  1  0.25045597  0.36623435  0.00451332  1
  O  O260  1  0.26829430  0.36952395  0.50114517  1
  O  O261  1  0.25050505  0.86819978  0.00523095  1
  O  O262  1  0.25468721  0.86884500  0.50791669  1
  O  O263  1  0.75916928  0.36660804  0.00833494  1
  O  O264  1  0.75633719  0.36921616  0.50915237  1
  O  O265  1  0.75536834  0.87618806  0.00936260  1
  O  O266  1  0.75726563  0.86475339  0.49904139  1
  O  O267  1  0.13103687  0.49935159  0.24665883  1
  O  O268  1  0.13143889  0.48508063  0.75353041  1
  O  O269  1  0.12729237  1.00051838  0.24140469  1
  O  O270  1  0.11716193  0.99746431  0.73982735  1
  O  O271  1  0.62101678  0.49439213  0.23782550  1
  O  O272  1  0.62634046  0.50177762  0.73252338  1
  O  O273  1  0.62455806  0.99407695  0.23898943  1
  O  O274  1  0.62984979  0.99876443  0.73773893  1
  O  O275  1  0.36340673  -0.00095500  0.25641499  1
  O  O276  1  0.37922969  -0.00118315  0.74187990  1
  O  O277  1  0.36894873  0.50439447  0.25769995  1
  O  O278  1  0.36936604  0.50259277  0.75603174  1
  O  O279  1  0.87008954  0.00412548  0.25245176  1
  O  O280  1  0.86900754  -0.00166894  0.75619152  1
  O  O281  1  0.88378073  0.49972492  0.26655635  1
  O  O282  1  0.87975628  0.49690917  0.76253484  1
  O  O283  1  0.13423787  0.35661068  0.37438399  1
  O  O284  1  0.11395845  0.37673080  0.87283414  1
  O  O285  1  0.13075602  0.86120060  0.37449387  1
  O  O286  1  0.11215189  0.87904326  0.88095080  1
  O  O287  1  0.62926489  0.38612391  0.36335757  1
  O  O288  1  0.61839104  0.36495346  0.88097957  1
  O  O289  1  0.61760055  0.86601459  0.37008729  1
  O  O290  1  0.61508395  0.86678217  0.87413228  1
  O  O291  1  0.37507063  0.12287633  0.13348570  1
  O  O292  1  0.38826890  0.13313904  0.62400522  1
  O  O293  1  0.37855349  0.62971379  0.13058200  1
  O  O294  1  0.38319151  0.62939968  0.63036935  1
  O  O295  1  0.87479378  0.12604024  0.12336887  1
  O  O296  1  0.88250040  0.13174587  0.62714589  1
  O  O297  1  0.87818089  0.63157146  0.12361975  1
  O  O298  1  0.88763470  0.62902593  0.62523926  1
  O  O299  1  0.25019159  0.25755974  0.11606992  1
  O  O300  1  0.26347414  0.24172695  0.62935630  1
  O  O301  1  0.25098090  0.75790386  0.12102626  1
  O  O302  1  0.25138113  0.75404264  0.61853666  1
  O  O303  1  0.74350589  0.26062958  0.11355353  1
  O  O304  1  0.75436224  0.25628178  0.61740712  1
  O  O305  1  0.76060402  0.75453524  0.12587410  1
  O  O306  1  0.74596543  0.74385561  0.61250433  1
  O  O307  1  0.24379464  0.23920865  0.37529339  1
  O  O308  1  0.25428422  0.23948507  0.88480303  1
  O  O309  1  0.24362875  0.74377628  0.38217794  1
  O  O310  1  0.25461375  0.74006109  0.88380823  1
  O  O311  1  0.75292012  0.24424475  0.38928066  1
  O  O312  1  0.74315265  0.25812335  0.88435783  1
  O  O313  1  0.74169147  0.74662694  0.38177338  1
  O  O314  1  0.73852829  0.75315852  0.87116356  1
  O  O315  1  0.00904926  0.11882454  -0.00199421  1
  O  O316  1  -0.00798770  0.11086890  0.51091666  1
  O  O317  1  0.00627376  0.62160074  0.00554417  1
  O  O318  1  -0.00040955  0.61607681  0.51035867  1
  O  O319  1  0.50785596  0.11745245  -0.00628852  1
  O  O320  1  0.50611160  0.12630175  0.50540391  1
  O  O321  1  0.50730511  0.61835574  0.00546148  1
  O  O322  1  0.49353927  0.63360364  0.50729022  1
  O  O323  1  0.48399556  0.37063336  0.49637985  1
  O  O324  1  0.50159093  0.38171372  0.99099897  1
  O  O325  1  0.49043683  0.87165798  0.49116821  1
  O  O326  1  0.49743731  0.88271078  0.98982266  1
  O  O327  1  0.99186722  0.39122628  0.50596787  1
  O  O328  1  0.99609696  0.37559093  0.99503008  1
  O  O329  1  0.99195011  0.88716732  0.49943785  1
  O  O330  1  0.99163689  0.87886731  0.99276964  1
  O  O331  1  0.48669406  0.50305180  0.37217216  1
  O  O332  1  0.49860427  0.49354565  0.87826124  1
  O  O333  1  0.49989170  0.98730643  0.37652933  1
  O  O334  1  0.50064480  0.99210927  0.87941806  1
  O  O335  1  0.99291036  0.51072430  0.38993063  1
  O  O336  1  0.99606828  0.49224178  0.88161049  1
  O  O337  1  1.00196424  1.00754500  0.38880773  1
  O  O338  1  0.99261096  0.99153048  0.87863804  1
  O  O339  1  0.00796606  -0.00187604  0.11541547  1
  O  O340  1  0.00720048  0.00319363  0.61907206  1
  O  O341  1  0.00503805  0.50507248  0.12020443  1
  O  O342  1  -0.00201765  0.51130481  0.61320045  1
  O  O343  1  0.51174216  -0.00863693  0.11387545  1
  O  O344  1  0.51176813  0.00810827  0.62141988  1
  O  O345  1  0.50695002  0.50450311  0.11997805  1
  O  O346  1  0.50781335  0.50881373  0.62590225  1
  O  O347  1  0.24973846  0.38052172  0.24317609  1
  O  O348  1  0.23577545  0.37933590  0.75593859  1
  O  O349  1  0.24403065  0.88637198  0.24266192  1
  O  O350  1  0.25140860  0.86686895  0.73792514  1
  O  O351  1  0.74415027  0.36615266  0.24005357  1
  O  O352  1  0.75735080  0.37527958  0.73621114  1
  O  O353  1  0.74260086  0.87406016  0.23666282  1
  O  O354  1  0.74767329  0.88955096  0.74709405  1
  O  O355  1  0.24566517  0.11451722  0.25182139  1
  O  O356  1  0.24548166  0.12770895  0.76060351  1
  O  O357  1  0.25428792  0.61978256  0.25650168  1
  O  O358  1  0.25354913  0.61874139  0.75647604  1
  O  O359  1  0.74639607  0.12789439  0.26119948  1
  O  O360  1  0.75256336  0.10924332  0.74466109  1
  O  O361  1  0.75168541  0.62963209  0.26516757  1
  O  O362  1  0.75650201  0.61793089  0.75687255  1
  O  O363  1  0.36084341  0.12463486  0.37032885  1
  O  O364  1  0.36151592  0.12362258  0.87433886  1
  O  O365  1  0.36420254  0.62037172  0.36964147  1
  O  O366  1  0.36681134  0.61859855  0.86944518  1
  O  O367  1  0.86118838  0.12085268  0.37674267  1
  O  O368  1  0.88063135  0.10936330  0.87323328  1
  O  O369  1  0.86664786  0.61911407  0.37373916  1
  O  O370  1  0.87527190  0.61176341  0.87867330  1
  O  O371  1  0.13785835  0.38382827  0.12675050  1
  O  O372  1  0.12377485  0.37425149  0.63511170  1
  O  O373  1  0.13370144  0.88545220  0.12359020  1
  O  O374  1  0.13098813  0.88770846  0.62251559  1
  O  O375  1  0.63404818  0.38319569  0.13163144  1
  O  O376  1  0.63150827  0.38533013  0.62220860  1
  O  O377  1  0.63067945  0.87812485  0.12540305  1
  O  O378  1  0.61795687  0.89000673  0.62296036  1
  O  O379  1  0.11549486  0.25060379  0.26053651  1
  O  O380  1  0.11473658  0.26255782  0.74762456  1
  O  O381  1  0.11519155  0.75401181  0.25834407  1
  O  O382  1  0.11053886  0.74650352  0.75034412  1
  O  O383  1  0.61534144  0.26135384  0.24770404  1
  O  O384  1  0.62168721  0.24586661  0.76093708  1
  O  O385  1  0.61728431  0.75638446  0.25562375  1
  O  O386  1  0.61901658  0.74769571  0.75740851  1
  O  O387  1  0.38828492  0.25076358  0.24640646  1
  O  O388  1  0.38767281  0.25625321  0.74364946  1
  O  O389  1  0.37670613  0.74592737  0.24450007  1
  O  O390  1  0.38282387  0.74305509  0.74299240  1
  O  O391  1  0.89287707  0.24922810  0.26048622  1
  O  O392  1  0.88623490  0.25111796  0.74251210  1
  O  O393  1  0.87916107  0.74893970  0.24130114  1
  O  O394  1  0.88694426  0.74735470  0.74668031  1
  O  O395  1  0.37187042  0.48985318  0.49461863  1
  O  O396  1  0.38431281  0.50033464  0.99172778  1
  O  O397  1  0.37720239  0.98514447  0.49680024  1
  O  O398  1  0.38666854  0.99941864  0.99771727  1
  O  O399  1  0.88118143  0.49546436  0.49314463  1
  O  O400  1  0.88221475  0.48820153  0.99286356  1
  O  O401  1  0.88111605  0.99006466  0.49933229  1
  O  O402  1  0.87697904  0.98823070  0.99236991  1
  O  O403  1  0.12057286  0.00732286  0.00606868  1
  O  O404  1  0.11072579  -0.00393081  0.50714565  1
  O  O405  1  0.12033749  0.50588368  0.00633112  1
  O  O406  1  0.11307683  0.49533340  0.49261482  1
  O  O407  1  0.61640543  0.00768006  0.00160774  1
  O  O408  1  0.62399449  0.00618673  0.50868233  1
  O  O409  1  0.62004467  0.50605343  0.00926374  1
  O  O410  1  0.62524720  0.50138499  0.51678898  1
  O  O411  1  0.36240092  0.37927688  0.12189333  1
  O  O412  1  0.38112626  0.36823720  0.61787762  1
  O  O413  1  0.36113574  0.87193819  0.12293739  1
  O  O414  1  0.36875031  0.86693057  0.61757568  1
  O  O415  1  0.86743425  0.38025395  0.11608929  1
  O  O416  1  0.86896676  0.37182077  0.61538658  1
  O  O417  1  0.86628710  0.86875163  0.11608250  1
  O  O418  1  0.87988466  0.86916558  0.60607509  1
  O  O419  1  0.13821289  0.13719942  0.37387452  1
  O  O420  1  0.13602577  0.11922453  0.88390318  1
  O  O421  1  0.13705229  0.63562600  0.37034716  1
  O  O422  1  0.13675143  0.61835417  0.87904583  1
  O  O423  1  0.63347588  0.12050375  0.39021622  1
  O  O424  1  0.62408148  0.13472336  0.88520331  1
  O  O425  1  0.62914837  0.63801095  0.37138609  1
  O  O426  1  0.62581731  0.63211791  0.88386740  1
