# generated using pymatgen
data_V85Zn86O256
_symmetry_space_group_name_H-M   'P 1'
_cell_length_a   16.94515294
_cell_length_b   16.95560751
_cell_length_c   16.95829930
_cell_angle_alpha   89.86264961
_cell_angle_beta   89.94478561
_cell_angle_gamma   90.03915099
_symmetry_Int_Tables_number   1
_chemical_formula_structural   V85Zn86O256
_chemical_formula_sum   'V85 Zn86 O256'
_cell_volume   4872.36250474
_cell_formula_units_Z   1
loop_
 _symmetry_equiv_pos_site_id
 _symmetry_equiv_pos_as_xyz
  1  'x, y, z'
loop_
 _atom_site_type_symbol
 _atom_site_label
 _atom_site_symmetry_multiplicity
 _atom_site_fract_x
 _atom_site_fract_y
 _atom_site_fract_z
 _atom_site_occupancy
  V  V0  1  0.37632586  0.00148155  0.37476271  1
  V  V1  1  0.88165778  0.62088309  0.74892145  1
  V  V2  1  0.62545636  0.37247296  0.76047342  1
  V  V3  1  0.87356242  0.00067322  0.87267326  1
  V  V4  1  0.49719472  0.86818962  0.87121918  1
  V  V5  1  0.00642031  0.74847245  0.25431740  1
  V  V6  1  0.37722721  0.51123126  0.37004678  1
  V  V7  1  0.25073834  0.24943020  0.49962469  1
  V  V8  1  0.11973798  0.25132088  0.86465822  1
  V  V9  1  0.25684003  0.87607027  0.12203466  1
  V  V10  1  0.37031123  0.75083831  0.63470149  1
  V  V11  1  0.75018055  0.87433414  0.12268145  1
  V  V12  1  0.75334179  0.37286859  0.12820621  1
  V  V13  1  0.50408874  0.37016976  0.35467534  1
  V  V14  1  0.62529751  0.49944598  0.62909400  1
  V  V15  1  0.00024593  0.12608300  0.12830662  1
  V  V16  1  0.49769796  0.37238657  0.88801867  1
  V  V17  1  0.62198007  0.49902539  0.12637296  1
  V  V18  1  0.37214209  -0.00600208  0.88403167  1
  V  V19  1  0.25596658  0.62523476  0.86922011  1
  V  V20  1  -0.00709545  0.37525535  0.86569051  1
  V  V21  1  0.62312075  -0.00106097  0.11956162  1
  V  V22  1  0.74530169  0.49407239  0.25300122  1
  V  V23  1  0.87595480  0.88243815  0.50311102  1
  V  V24  1  0.38020187  0.73819970  0.12909969  1
  V  V25  1  0.62201935  0.87168291  0.24793683  1
  V  V26  1  0.00003159  0.00107583  -0.00171987  1
  V  V27  1  0.49425255  0.62951609  0.63847367  1
  V  V28  1  0.05887699  0.56235649  0.44506324  1
  V  V29  1  0.37562310  0.49901336  0.87268362  1
  V  V30  1  0.49815073  0.12513282  0.12755561  1
  V  V31  1  0.61843241  0.62653995  -0.00085507  1
  V  V32  1  0.24765490  0.12386168  0.87639145  1
  V  V33  1  0.37693557  0.12605627  0.75446764  1
  V  V34  1  0.73934578  0.24751436  0.49525290  1
  V  V35  1  0.25053104  0.26118808  -0.00121090  1
  V  V36  1  0.87951566  0.12826013  0.25551049  1
  V  V37  1  0.88261404  0.24839878  0.62484668  1
  V  V38  1  -0.00911602  0.49984147  -0.00673914  1
  V  V39  1  -0.00165320  0.62683726  0.12147096  1
  V  V40  1  0.25315313  0.50049836  0.74425872  1
  V  V41  1  0.74992309  0.62172699  0.37912242  1
  V  V42  1  0.12992672  0.11770269  0.50316348  1
  V  V43  1  0.75374423  -0.00093119  0.24852380  1
  V  V44  1  0.62275071  0.75354167  0.85879000  1
  V  V45  1  0.50389258  0.24958597  0.75857691  1
  V  V46  1  0.25119512  -0.00106673  0.73307268  1
  V  V47  1  0.24738361  0.00000138  0.25077007  1
  V  V48  1  0.37545371  0.25857441  0.12155673  1
  V  V49  1  0.88018178  0.49453325  0.37897896  1
  V  V50  1  0.49985226  0.87456976  0.37531724  1
  V  V51  1  0.12214560  0.48942758  0.12806988  1
  V  V52  1  0.12538797  0.62454260  -0.00221777  1
  V  V53  1  0.00178218  0.75009234  0.74811445  1
  V  V54  1  0.12856770  0.88049074  0.73378122  1
  V  V55  1  0.37444768  0.25693535  0.62877147  1
  V  V56  1  0.88148799  -0.00207297  0.37553496  1
  V  V57  1  0.49216324  0.50201274  0.00479628  1
  V  V58  1  0.74759680  0.75024337  -0.00174997  1
  V  V59  1  0.87909075  0.74899285  0.62592677  1
  V  V60  1  0.24256903  0.74224322  0.49245438  1
  V  V61  1  0.62437516  0.62452143  0.50357127  1
  V  V62  1  0.25708093  0.75481943  -0.00129250  1
  V  V63  1  0.25183028  0.50114144  0.24839506  1
  V  V64  1  0.12714016  0.75314448  0.87252256  1
  V  V65  1  0.10870585  0.51251792  0.62404685  1
  V  V66  1  0.87100503  0.75151386  0.12349547  1
  V  V67  1  0.00299329  0.87684337  0.87251754  1
  V  V68  1  0.37532733  0.13549111  0.25016344  1
  V  V69  1  0.74236674  0.25149866  -0.00061189  1
  V  V70  1  0.36990262  0.87020358  0.50166337  1
  V  V71  1  0.75185795  0.37398142  0.62564038  1
  V  V72  1  0.86973436  0.62679320  0.24902742  1
  V  V73  1  0.75480968  0.62148745  0.87418120  1
  V  V74  1  0.88166428  0.12947220  0.74983253  1
  V  V75  1  0.00292678  0.11806409  0.62604990  1
  V  V76  1  0.74968349  0.75075899  0.50191209  1
  V  V77  1  0.75426062  0.49813289  0.75537553  1
  V  V78  1  0.12327961  0.12688470  0.00005073  1
  V  V79  1  0.88730980  0.37636397  0.49934198  1
  V  V80  1  0.74057861  0.12802343  0.87614973  1
  V  V81  1  0.73570467  0.87801952  0.62791005  1
  V  V82  1  0.11705561  0.25878250  0.37286728  1
  V  V83  1  0.73787319  -0.00230508  0.74650958  1
  V  V84  1  0.49869532  0.49406525  0.50262164  1
  Zn  Zn85  1  0.12514307  -0.00390816  0.12581888  1
  Zn  Zn86  1  0.25014661  0.12925679  0.37439850  1
  Zn  Zn87  1  0.37694478  0.37468513  0.49656949  1
  Zn  Zn88  1  0.61713977  0.24902782  0.34204882  1
  Zn  Zn89  1  0.01180048  -0.00643673  0.50493887  1
  Zn  Zn90  1  0.87645678  0.87459623  -0.00294663  1
  Zn  Zn91  1  0.49307397  -0.00514919  0.00180261  1
  Zn  Zn92  1  0.24571026  0.37980184  0.62333822  1
  Zn  Zn93  1  0.62323179  0.74850774  0.37540523  1
  Zn  Zn94  1  0.52176685  0.00196471  0.50942550  1
  Zn  Zn95  1  0.24745129  0.37360854  0.13071055  1
  Zn  Zn96  1  0.23629195  0.62686939  0.37067003  1
  Zn  Zn97  1  0.13003077  0.86775680  0.25419830  1
  Zn  Zn98  1  0.87114589  0.37596853  -0.00694485  1
  Zn  Zn99  1  0.87838210  0.25236322  0.12221780  1
  Zn  Zn100  1  0.00886457  0.86897976  0.38027031  1
  Zn  Zn101  1  0.61890880  0.13064653  -0.00161149  1
  Zn  Zn102  1  0.00346972  0.26359532  0.24838543  1
  Zn  Zn103  1  0.51976057  0.12244221  0.62193118  1
  Zn  Zn104  1  0.48585954  0.73317816  0.25756908  1
  Zn  Zn105  1  0.12254581  0.37410039  0.74372349  1
  Zn  Zn106  1  0.73866654  0.11672469  0.38433945  1
  Zn  Zn107  1  0.18762327  0.18872482  0.18899141  1
  Zn  Zn108  1  0.19164257  0.18488808  0.68442360  1
  Zn  Zn109  1  0.19017900  0.68119938  0.18416787  1
  Zn  Zn110  1  0.19016767  0.68795462  0.68467617  1
  Zn  Zn111  1  0.69281059  0.18159003  0.19234170  1
  Zn  Zn112  1  0.69444710  0.19441697  0.69527424  1
  Zn  Zn113  1  0.65359931  0.66760900  0.20417938  1
  Zn  Zn114  1  0.69222363  0.68576499  0.68510712  1
  Zn  Zn115  1  0.31170242  0.32023669  0.31478681  1
  Zn  Zn116  1  0.31143195  0.31717366  0.81539920  1
  Zn  Zn117  1  0.31072533  0.81085595  0.31175664  1
  Zn  Zn118  1  0.31227516  0.81843717  0.81090113  1
  Zn  Zn119  1  0.81561771  0.31207145  0.31466201  1
  Zn  Zn120  1  0.81275871  0.30799168  0.81414504  1
  Zn  Zn121  1  0.81235969  0.81278538  0.31375204  1
  Zn  Zn122  1  0.81115231  0.81374270  0.81146054  1
  Zn  Zn123  1  0.19641250  0.43673571  0.44076385  1
  Zn  Zn124  1  0.18157698  0.43874806  0.93411806  1
  Zn  Zn125  1  0.19078982  0.93243068  0.43437608  1
  Zn  Zn126  1  0.18744788  0.93804333  0.93523720  1
  Zn  Zn127  1  0.68582419  0.43014781  0.43871401  1
  Zn  Zn128  1  0.68428372  0.43787392  0.94121756  1
  Zn  Zn129  1  0.69140319  0.93423983  0.43353027  1
  Zn  Zn130  1  0.68343120  0.93477131  0.93478333  1
  Zn  Zn131  1  0.30939343  0.06729637  0.06424596  1
  Zn  Zn132  1  0.37212481  0.06100889  0.56747489  1
  Zn  Zn133  1  0.30932789  0.56234389  0.06099546  1
  Zn  Zn134  1  0.31438664  0.56605266  0.56057430  1
  Zn  Zn135  1  0.81342457  0.06486320  0.06124252  1
  Zn  Zn136  1  0.69263172  0.06772041  0.56552370  1
  Zn  Zn137  1  0.80825482  0.56392267  0.06235099  1
  Zn  Zn138  1  0.81752477  0.56053486  0.56560172  1
  Zn  Zn139  1  0.43320688  0.44277008  0.18574338  1
  Zn  Zn140  1  0.43807120  0.43894045  0.69298107  1
  Zn  Zn141  1  0.43477652  0.93391312  0.18842815  1
  Zn  Zn142  1  0.43895251  0.93336274  0.69106407  1
  Zn  Zn143  1  0.93168769  0.44216194  0.18329065  1
  Zn  Zn144  1  0.93686104  0.43752415  0.68722355  1
  Zn  Zn145  1  0.93983184  0.93634141  0.18612034  1
  Zn  Zn146  1  0.93379020  0.93850339  0.68730536  1
  Zn  Zn147  1  0.06649897  0.06442242  0.31766480  1
  Zn  Zn148  1  0.06546194  0.06109691  0.80802313  1
  Zn  Zn149  1  0.06531311  0.43327303  0.30771126  1
  Zn  Zn150  1  0.06486111  0.56070868  0.81024488  1
  Zn  Zn151  1  0.56289674  0.06215886  0.31238919  1
  Zn  Zn152  1  0.55861229  0.05868884  0.81326295  1
  Zn  Zn153  1  0.56065552  0.55951087  0.31615214  1
  Zn  Zn154  1  0.56532163  0.56148778  0.81671789  1
  Zn  Zn155  1  0.44174459  0.18964078  0.43858780  1
  Zn  Zn156  1  0.43703546  0.18591760  0.94252005  1
  Zn  Zn157  1  0.43951055  0.68821983  0.44385000  1
  Zn  Zn158  1  0.43603987  0.68857838  0.93641552  1
  Zn  Zn159  1  0.93801406  0.18520767  0.44344104  1
  Zn  Zn160  1  0.93304802  0.19117824  0.93785874  1
  Zn  Zn161  1  0.93077734  0.69013564  0.43561931  1
  Zn  Zn162  1  0.93671031  0.68936648  0.93466646  1
  Zn  Zn163  1  0.05790718  0.31148359  0.05641938  1
  Zn  Zn164  1  0.06718408  0.31212988  0.56448790  1
  Zn  Zn165  1  0.06717939  0.81484296  0.06470909  1
  Zn  Zn166  1  0.06138746  0.80657169  0.56058956  1
  Zn  Zn167  1  0.58363239  0.29425205  0.12811166  1
  Zn  Zn168  1  0.56242797  0.31090992  0.57277631  1
  Zn  Zn169  1  0.55686023  0.81401095  0.05535475  1
  Zn  Zn170  1  0.55646802  0.81131638  0.56158575  1
  O  O171  1  0.11560148  0.12556660  0.11745962  1
  O  O172  1  0.11503141  0.13490793  0.61618390  1
  O  O173  1  0.12018127  0.61955463  0.11004896  1
  O  O174  1  0.12755541  0.61100432  0.62620850  1
  O  O175  1  0.61550349  0.11374133  0.12712456  1
  O  O176  1  0.62994257  0.12709667  0.63650765  1
  O  O177  1  0.63901634  0.60931969  0.10666945  1
  O  O178  1  0.61773593  0.62176963  0.61893111  1
  O  O179  1  0.38988747  0.38539785  0.37616761  1
  O  O180  1  0.38293390  0.38899543  0.87379018  1
  O  O181  1  0.38231557  0.87919999  0.37768947  1
  O  O182  1  0.38251467  0.88148965  0.87499620  1
  O  O183  1  0.87264077  0.38750325  0.38267978  1
  O  O184  1  0.88840328  0.37210670  0.87359618  1
  O  O185  1  0.87946112  0.88032464  0.38280396  1
  O  O186  1  0.88226740  0.88368693  0.87439462  1
  O  O187  1  0.25777624  0.00454840  0.36512916  1
  O  O188  1  0.25528596  0.00670700  0.87095082  1
  O  O189  1  0.26076382  0.50347887  0.36983099  1
  O  O190  1  0.25554131  0.50657704  0.87095675  1
  O  O191  1  0.76476170  -0.00122429  0.36605275  1
  O  O192  1  0.75674842  0.00314376  0.86800005  1
  O  O193  1  0.75493978  0.50041004  0.36984214  1
  O  O194  1  0.74438020  0.51122346  0.86979259  1
  O  O195  1  0.24070692  0.49865890  0.12850640  1
  O  O196  1  0.25117564  0.50174868  0.63290887  1
  O  O197  1  0.25031648  0.99307693  0.13055977  1
  O  O198  1  0.26707734  1.00827457  0.63754444  1
  O  O199  1  0.74713031  0.49456672  0.13342192  1
  O  O200  1  0.74493459  0.49316724  0.63366059  1
  O  O201  1  0.74450316  0.99526441  0.12855752  1
  O  O202  1  0.75265616  0.99334299  0.63960537  1
  O  O203  1  -0.00695356  0.37580955  0.24677397  1
  O  O204  1  0.00189232  0.37753969  0.76222484  1
  O  O205  1  -0.00082448  0.85705558  0.24455538  1
  O  O206  1  0.00715919  0.87249240  0.75438194  1
  O  O207  1  0.50058362  0.37809224  0.25592394  1
  O  O208  1  0.50727516  0.36970817  0.76035893  1
  O  O209  1  0.50766316  0.86967789  0.25603976  1
  O  O210  1  0.49954301  0.88030302  0.76986605  1
  O  O211  1  0.48701505  0.11512544  0.23632095  1
  O  O212  1  0.49147211  0.13333085  0.75546697  1
  O  O213  1  0.54611367  0.64070992  0.24333322  1
  O  O214  1  0.50587374  0.62061467  0.73628023  1
  O  O215  1  0.99601794  0.12499050  0.24280709  1
  O  O216  1  0.99009550  0.12172141  0.74530638  1
  O  O217  1  0.98599910  0.63869020  0.23605479  1
  O  O218  1  0.98824284  0.63206664  0.75963955  1
  O  O219  1  0.36132183  0.24279449  0.00897289  1
  O  O220  1  0.36951336  0.25273315  0.51230330  1
  O  O221  1  0.36170776  0.74665960  0.00586779  1
  O  O222  1  0.37063634  0.75500804  0.50713399  1
  O  O223  1  0.86149699  0.25213652  0.00262555  1
  O  O224  1  0.86765709  0.25759500  0.50578170  1
  O  O225  1  0.86761389  0.75128050  0.00531276  1
  O  O226  1  0.86996210  0.75794442  0.50813523  1
  O  O227  1  0.13228300  0.24606205  0.49149065  1
  O  O228  1  0.12907362  0.24095644  0.99168751  1
  O  O229  1  0.14438860  0.75170351  0.50733317  1
  O  O230  1  0.13254331  0.74253596  0.99392931  1
  O  O231  1  0.63981593  0.25686755  0.50804136  1
  O  O232  1  0.63986122  0.24738425  1.01777158  1
  O  O233  1  0.62948898  0.74046198  0.50007775  1
  O  O234  1  0.62997690  0.74126797  0.99614491  1
  O  O235  1  0.48701729  0.23698371  0.11791091  1
  O  O236  1  0.49225900  0.24867645  0.64213525  1
  O  O237  1  0.48165382  0.75620632  0.12175341  1
  O  O238  1  0.48981996  0.73646164  0.62116544  1
  O  O239  1  0.99814578  0.24108314  0.12630855  1
  O  O240  1  0.98860927  0.24241222  0.61950162  1
  O  O241  1  0.98787209  0.74675022  0.12405011  1
  O  O242  1  0.98675060  0.75332589  0.63229411  1
  O  O243  1  0.01463318  0.24663952  0.37665358  1
  O  O244  1  0.00702707  0.26377370  0.88139851  1
  O  O245  1  -0.00887310  0.74865267  0.35665571  1
  O  O246  1  0.00644378  0.75736678  0.86823554  1
  O  O247  1  0.49832859  0.26658192  0.37564505  1
  O  O248  1  0.49268894  0.25816285  0.86852365  1
  O  O249  1  0.50159499  0.76052602  0.37453230  1
  O  O250  1  0.50597133  0.75881088  0.87696352  1
  O  O251  1  0.24522610  0.14004846  0.50158025  1
  O  O252  1  0.23882278  0.13259052  0.99552035  1
  O  O253  1  0.25685154  0.63752838  0.49168984  1
  O  O254  1  0.24186164  0.63030184  0.98944486  1
  O  O255  1  0.75554730  0.14384420  0.49939652  1
  O  O256  1  0.74865858  0.13114387  0.99182034  1
  O  O257  1  0.74355902  0.62895119  0.50115268  1
  O  O258  1  0.74469232  0.63004420  0.98945658  1
  O  O259  1  0.24367433  0.36353954  -0.00113117  1
  O  O260  1  0.25715576  0.36438493  0.50389830  1
  O  O261  1  0.24203445  0.86462998  0.00637536  1
  O  O262  1  0.26358054  0.86161111  0.49487682  1
  O  O263  1  0.75155711  0.36959579  0.00390393  1
  O  O264  1  0.75702391  0.36744046  0.50835807  1
  O  O265  1  0.75034567  0.86736133  0.00475944  1
  O  O266  1  0.75737830  0.86832273  0.50773351  1
  O  O267  1  0.12962629  0.49922212  0.23594941  1
  O  O268  1  0.13192092  0.50017064  0.73794057  1
  O  O269  1  0.13925796  1.00632998  0.24734127  1
  O  O270  1  0.14078208  0.99574489  0.74887381  1
  O  O271  1  0.63760360  0.50062294  0.24150942  1
  O  O272  1  0.63230528  0.49457147  0.74667680  1
  O  O273  1  0.63124063  0.98892120  0.23925012  1
  O  O274  1  0.63981269  1.00000335  0.75641851  1
  O  O275  1  0.36655408  0.00453264  0.25736577  1
  O  O276  1  0.36519212  0.00747631  0.76152858  1
  O  O277  1  0.36736910  0.50187641  0.25677640  1
  O  O278  1  0.36637869  0.50086706  0.75951744  1
  O  O279  1  0.87549890  0.00629024  0.25609803  1
  O  O280  1  0.86993124  0.00703836  0.76041816  1
  O  O281  1  0.86522172  0.50885115  0.25740830  1
  O  O282  1  0.86786486  0.51000084  0.74551553  1
  O  O283  1  0.12591224  0.36414664  0.38085740  1
  O  O284  1  0.11461750  0.36687351  0.87182951  1
  O  O285  1  0.12023189  0.87982346  0.36651939  1
  O  O286  1  0.12092613  0.87015654  0.86594524  1
  O  O287  1  0.60720486  0.37330652  0.37683479  1
  O  O288  1  0.61583029  0.38181537  0.86633878  1
  O  O289  1  0.61661624  0.87484768  0.36635781  1
  O  O290  1  0.61529305  0.86357037  0.87564003  1
  O  O291  1  0.37930395  0.13135981  0.13151762  1
  O  O292  1  0.36605124  0.14332695  0.64722939  1
  O  O293  1  0.37096415  0.63931511  0.12029774  1
  O  O294  1  0.38796455  0.63360155  0.62335586  1
  O  O295  1  0.88779022  0.12282050  0.13253996  1
  O  O296  1  0.88465669  0.13429507  0.63520739  1
  O  O297  1  0.87598584  0.63362065  0.12692367  1
  O  O298  1  0.86791013  0.63642804  0.63696176  1
  O  O299  1  0.25387360  0.25221485  0.11671342  1
  O  O300  1  0.25630073  0.25643112  0.62020607  1
  O  O301  1  0.25554577  0.75455330  0.11684206  1
  O  O302  1  0.26557045  0.74037391  0.61415446  1
  O  O303  1  0.75774882  0.25869411  0.12022017  1
  O  O304  1  0.76199334  0.25706485  0.61947664  1
  O  O305  1  0.76088770  0.75353128  0.11888266  1
  O  O306  1  0.75941826  0.75790188  0.62241187  1
  O  O307  1  0.24436976  0.25126695  0.38302270  1
  O  O308  1  0.24256972  0.24496937  0.88137015  1
  O  O309  1  0.25411256  0.74455118  0.38593890  1
  O  O310  1  0.24814128  0.74450955  0.87937875  1
  O  O311  1  0.74586467  0.25567467  0.38891110  1
  O  O312  1  0.75047535  0.23923788  0.88326821  1
  O  O313  1  0.75055042  0.74149203  0.38494758  1
  O  O314  1  0.74201379  0.74549576  0.87865523  1
  O  O315  1  0.00455850  0.12190070  0.00575012  1
  O  O316  1  0.01014781  0.12088328  0.50871161  1
  O  O317  1  0.00648522  0.62075037  -0.00062967  1
  O  O318  1  0.00113152  0.62516992  0.49717498  1
  O  O319  1  0.50075885  0.11713605  0.01146663  1
  O  O320  1  0.47402901  0.11343516  0.51241601  1
  O  O321  1  0.50980021  0.61789890  -0.00660451  1
  O  O322  1  0.50847109  0.61406031  0.50822704  1
  O  O323  1  0.50065447  0.38821066  0.51003832  1
  O  O324  1  0.50488182  0.38570301  0.98814703  1
  O  O325  1  0.49030462  0.87832845  0.49168547  1
  O  O326  1  0.50278295  0.88119822  0.98194274  1
  O  O327  1  0.98629526  0.37108437  0.50458707  1
  O  O328  1  0.99575380  0.38425017  0.98965107  1
  O  O329  1  0.99208202  0.87569271  0.50026546  1
  O  O330  1  1.00233427  0.88355120  0.99241133  1
  O  O331  1  0.49827068  0.49017781  0.38296201  1
  O  O332  1  0.49223031  0.49632716  0.88049912  1
  O  O333  1  0.49202546  0.98878491  0.37207324  1
  O  O334  1  0.48870237  0.99322649  0.87761672  1
  O  O335  1  0.99640498  0.50336881  0.38021419  1
  O  O336  1  1.00712464  0.48618609  0.88029254  1
  O  O337  1  0.98988350  1.00007332  0.37827561  1
  O  O338  1  0.99339790  0.99740365  0.87784413  1
  O  O339  1  0.00321543  0.00675007  0.11692007  1
  O  O340  1  -0.00489084  0.01352978  0.62382974  1
  O  O341  1  0.00536070  0.50893765  0.11502018  1
  O  O342  1  0.00944461  0.50545112  0.62914853  1
  O  O343  1  0.50614035  0.00121754  0.12334786  1
  O  O344  1  0.47265219  0.01031424  0.61888124  1
  O  O345  1  0.50860285  0.49556957  0.11622353  1
  O  O346  1  0.50293686  0.50993466  0.62174546  1
  O  O347  1  0.25012077  0.39145029  0.24845166  1
  O  O348  1  0.24534442  0.38947074  0.75160692  1
  O  O349  1  0.25105041  0.88340044  0.24242646  1
  O  O350  1  0.24402329  0.89054339  0.74974863  1
  O  O351  1  0.75985360  0.38439984  0.24180306  1
  O  O352  1  0.74408919  0.37817263  0.74916189  1
  O  O353  1  0.74815980  0.88271972  0.24246467  1
  O  O354  1  0.75541994  0.88940328  0.74330148  1
  O  O355  1  0.25946892  0.11759035  0.24863393  1
  O  O356  1  0.25350262  0.11608678  0.75775588  1
  O  O357  1  0.24202872  0.60952194  0.25414632  1
  O  O358  1  0.24352360  0.61711929  0.76317454  1
  O  O359  1  0.76533230  0.11398442  0.24754967  1
  O  O360  1  0.76022757  0.11520857  0.75871092  1
  O  O361  1  0.75024758  0.61701403  0.25924503  1
  O  O362  1  0.75775064  0.61902446  0.75643489  1
  O  O363  1  0.37516582  0.11873151  0.36535961  1
  O  O364  1  0.36889800  0.12063533  0.86828898  1
  O  O365  1  0.38689422  0.61228575  0.37536758  1
  O  O366  1  0.36633896  0.61433982  0.87946307  1
  O  O367  1  0.87422336  0.11703615  0.36965438  1
  O  O368  1  0.86889975  0.11900272  0.86885193  1
  O  O369  1  0.86770302  0.61311875  0.37261251  1
  O  O370  1  0.86195759  0.63321108  0.86551753  1
  O  O371  1  0.12402710  0.38692233  0.11418292  1
  O  O372  1  0.12580894  0.38889702  0.62591264  1
  O  O373  1  0.13849162  0.87624944  0.13168686  1
  O  O374  1  0.12021470  0.87385528  0.63530633  1
  O  O375  1  0.64053216  0.39261969  0.11607395  1
  O  O376  1  0.63034024  0.38048497  0.64003497  1
  O  O377  1  0.62867617  0.87875711  0.12911316  1
  O  O378  1  0.63650717  0.86797805  0.62134085  1
  O  O379  1  0.12521812  0.24524389  0.26859670  1
  O  O380  1  0.13068594  0.24980855  0.76219591  1
  O  O381  1  0.10840775  0.74361016  0.24041838  1
  O  O382  1  0.12299673  0.75746169  0.75277517  1
  O  O383  1  0.62741548  0.26194943  0.22863582  1
  O  O384  1  0.61639498  0.26078024  0.75313076  1
  O  O385  1  0.64025780  0.76909377  0.25518499  1
  O  O386  1  0.62963688  0.74407391  0.76037777  1
  O  O387  1  0.36614876  0.23984281  0.24293630  1
  O  O388  1  0.38005321  0.24591456  0.75147369  1
  O  O389  1  0.37240848  0.74837274  0.23500447  1
  O  O390  1  0.36628161  0.75227438  0.73402616  1
  O  O391  1  0.87837614  0.23708326  0.25089736  1
  O  O392  1  0.86938346  0.23942221  0.74070823  1
  O  O393  1  0.87614125  0.74596099  0.24016556  1
  O  O394  1  0.87923844  0.74520939  0.74361951  1
  O  O395  1  0.38415490  0.49843648  0.49327834  1
  O  O396  1  0.38616061  0.50457524  0.99540471  1
  O  O397  1  0.36290983  0.98692578  0.48130450  1
  O  O398  1  0.36930287  1.00604801  0.98700786  1
  O  O399  1  0.87003255  0.49091569  0.49144459  1
  O  O400  1  0.88808670  0.50508364  0.99993904  1
  O  O401  1  0.87539953  0.98632063  0.49215623  1
  O  O402  1  0.87891199  1.00051832  0.98668397  1
  O  O403  1  0.12119958  0.01387962  -0.00102779  1
  O  O404  1  0.13181346  0.01421649  0.49733941  1
  O  O405  1  0.11608192  0.50875559  0.00239762  1
  O  O406  1  0.12247785  0.50169154  0.50764933  1
  O  O407  1  0.62771598  0.00131674  0.01300214  1
  O  O408  1  0.63305697  0.00349593  0.49592808  1
  O  O409  1  0.61379197  0.50779954  0.00310228  1
  O  O410  1  0.62081821  0.50459263  0.50976881  1
  O  O411  1  0.37346602  0.36143673  0.12754495  1
  O  O412  1  0.37469176  0.36488585  0.63044835  1
  O  O413  1  0.36177772  0.86671314  0.12560876  1
  O  O414  1  0.38203471  0.85824920  0.61629810  1
  O  O415  1  0.86268335  0.37826834  0.11616058  1
  O  O416  1  0.87119663  0.36886483  0.62077854  1
  O  O417  1  0.86920795  0.86876510  0.12022894  1
  O  O418  1  0.86780663  0.86926976  0.61914295  1
  O  O419  1  0.12889857  0.13563401  0.38680599  1
  O  O420  1  0.12549427  0.13222063  0.88119349  1
  O  O421  1  0.11730590  0.61407746  0.38491032  1
  O  O422  1  0.13069362  0.63080814  0.88222520  1
  O  O423  1  0.63009578  0.13614408  0.35799520  1
  O  O424  1  0.63685840  0.11802752  0.87821854  1
  O  O425  1  0.63146768  0.62144501  0.39262245  1
  O  O426  1  0.63275746  0.63224572  0.88181496  1
