# generated using pymatgen
data_V85Zn86O256
_symmetry_space_group_name_H-M   'P 1'
_cell_length_a   16.95573274
_cell_length_b   16.95075914
_cell_length_c   16.93893305
_cell_angle_alpha   90.06083429
_cell_angle_beta   90.08861745
_cell_angle_gamma   89.99300825
_symmetry_Int_Tables_number   1
_chemical_formula_structural   V85Zn86O256
_chemical_formula_sum   'V85 Zn86 O256'
_cell_volume   4868.45319967
_cell_formula_units_Z   1
loop_
 _symmetry_equiv_pos_site_id
 _symmetry_equiv_pos_as_xyz
  1  'x, y, z'
loop_
 _atom_site_type_symbol
 _atom_site_label
 _atom_site_symmetry_multiplicity
 _atom_site_fract_x
 _atom_site_fract_y
 _atom_site_fract_z
 _atom_site_occupancy
  V  V0  1  0.24296976  0.62842217  0.88737761  1
  V  V1  1  0.75099013  0.74454241  -0.00293983  1
  V  V2  1  0.24839691  0.50063124  0.75218779  1
  V  V3  1  0.12153705  0.51219471  0.11983898  1
  V  V4  1  0.75239893  0.00064377  0.75348365  1
  V  V5  1  0.75422950  0.37521650  0.63266920  1
  V  V6  1  0.12817503  0.37369841  0.75117378  1
  V  V7  1  0.62518732  0.87452749  0.25247951  1
  V  V8  1  0.49689631  0.36992526  0.38463063  1
  V  V9  1  -0.00561742  0.24774000  0.25524343  1
  V  V10  1  0.00173908  0.12700075  0.11693120  1
  V  V11  1  0.24977892  0.62505833  0.37536618  1
  V  V12  1  0.50070740  -0.00120839  0.49677205  1
  V  V13  1  0.63824497  0.74610405  0.37915067  1
  V  V14  1  0.49608732  0.86902611  0.37327946  1
  V  V15  1  0.76530639  0.24692629  0.50303282  1
  V  V16  1  0.12369307  0.50100673  0.61815103  1
  V  V17  1  0.63519487  0.62479231  0.49773860  1
  V  V18  1  0.25159473  0.13123497  0.88896959  1
  V  V19  1  0.75331941  0.37738414  0.12460030  1
  V  V20  1  0.62307289  0.75098956  0.87352508  1
  V  V21  1  0.75043170  0.86920049  0.61866633  1
  V  V22  1  0.63101797  0.12362232  0.49638127  1
  V  V23  1  0.37515159  0.12505418  0.24347528  1
  V  V24  1  0.88529754  0.73972600  0.11938316  1
  V  V25  1  0.49509531  0.75334614  0.75322906  1
  V  V26  1  0.37479965  0.25567083  0.61057963  1
  V  V27  1  0.62639119  0.12829677  0.00069710  1
  V  V28  1  0.87680575  0.39140332  0.50106504  1
  V  V29  1  0.12102148  0.87806016  0.23947289  1
  V  V30  1  0.24844448  0.75305625  0.49665561  1
  V  V31  1  0.87167191  0.50344751  0.85920179  1
  V  V32  1  0.50179360  0.12715866  0.62258139  1
  V  V33  1  0.61851184  0.87648381  0.74911985  1
  V  V34  1  0.76089648  0.25317231  0.00029060  1
  V  V35  1  0.37088465  0.24543924  0.11598192  1
  V  V36  1  0.74857567  0.86736602  0.12209074  1
  V  V37  1  -0.00474242  0.38966927  0.37897672  1
  V  V38  1  0.24887549  0.00228464  0.74497491  1
  V  V39  1  -0.00637487  0.88497849  0.37142836  1
  V  V40  1  0.87271192  0.87955097  0.49907382  1
  V  V41  1  0.36958686  0.62656498  0.75122825  1
  V  V42  1  0.12675810  0.76859146  0.87209573  1
  V  V43  1  0.37387441  0.13100663  0.74809825  1
  V  V44  1  0.25146041  0.13403142  0.37704694  1
  V  V45  1  0.62475856  -0.00115166  0.62234584  1
  V  V46  1  0.38535746  -0.00484138  0.87029727  1
  V  V47  1  0.75194295  0.50663637  0.26174900  1
  V  V48  1  0.50766948  -0.01090153  -0.00699386  1
  V  V49  1  0.12956022  0.12853549  0.50100678  1
  V  V50  1  0.24553489  0.37164289  0.11462832  1
  V  V51  1  0.24359327  0.87725066  0.62418406  1
  V  V52  1  0.12264480  0.37735701  0.24833156  1
  V  V53  1  0.24973325  0.49800012  0.24846108  1
  V  V54  1  0.24225723  0.00214304  0.24799155  1
  V  V55  1  0.77019497  -0.00254973  0.25138831  1
  V  V56  1  0.62638308  -0.00000712  0.12637801  1
  V  V57  1  0.37413999  -0.00151494  0.37069898  1
  V  V58  1  0.61706321  0.49775912  0.12070814  1
  V  V59  1  0.37351015  0.49321253  0.38479852  1
  V  V60  1  0.62896071  0.24519390  0.37480991  1
  V  V61  1  0.12432005  0.75477000  0.37569083  1
  V  V62  1  -0.00260874  0.74059184  0.25108453  1
  V  V63  1  0.37059239  0.75300656  0.62321352  1
  V  V64  1  0.50297279  0.25534840  0.75181825  1
  V  V65  1  0.12988111  0.25164540  0.88738608  1
  V  V66  1  0.38237922  0.50249383  0.87936177  1
  V  V67  1  -0.00195185  0.37509435  0.88372108  1
  V  V68  1  0.49569349  0.62336081  0.61931066  1
  V  V69  1  0.63125997  0.24887816  0.87499819  1
  V  V70  1  0.76928038  0.11894119  0.37048963  1
  V  V71  1  0.87222092  0.12262913  0.74826157  1
  V  V72  1  -0.01155907  0.51050980  0.00451346  1
  V  V73  1  0.38266744  0.37840309  0.00128062  1
  V  V74  1  0.38069745  0.62237281  0.24966846  1
  V  V75  1  0.62428927  0.37348707  0.25206041  1
  V  V76  1  0.11781125  0.00193130  0.62202670  1
  V  V77  1  0.61725188  0.61813458  -0.00525287  1
  V  V78  1  0.87374068  0.25148727  0.13179181  1
  V  V79  1  -0.00486889  0.25124389  0.74712351  1
  V  V80  1  0.25526009  0.37349321  0.61302953  1
  V  V81  1  0.12636680  0.25532075  0.38028741  1
  V  V82  1  -0.00599446  0.61952714  0.62851574  1
  V  V83  1  0.87183777  0.74842056  0.62572251  1
  V  V84  1  0.00174565  0.76393829  0.75012255  1
  Zn  Zn85  1  0.63452978  0.38238384  0.75544970  1
  Zn  Zn86  1  0.49543312  0.62092535  0.11859509  1
  Zn  Zn87  1  0.37481758  0.86729864  -0.00489913  1
  Zn  Zn88  1  0.25133977  0.86636665  0.11140036  1
  Zn  Zn89  1  0.11602492  0.64756133  0.00489227  1
  Zn  Zn90  1  -0.00519857  0.00626918  0.49451861  1
  Zn  Zn91  1  0.49834190  0.12318990  0.12229066  1
  Zn  Zn92  1  0.37434623  0.74866228  0.11208467  1
  Zn  Zn93  1  0.63192817  0.50225459  0.62873116  1
  Zn  Zn94  1  0.11960159  0.62232199  0.49863037  1
  Zn  Zn95  1  0.12613913  0.02231171  0.09952759  1
  Zn  Zn96  1  0.78834495  0.08551075  0.91011605  1
  Zn  Zn97  1  0.75046646  0.62008335  0.85926031  1
  Zn  Zn98  1  -0.11371761  -0.09251255  -0.02752775  1
  Zn  Zn99  1  0.49764423  0.49582500  0.50394948  1
  Zn  Zn100  1  -0.00468773  0.13483670  0.61972479  1
  Zn  Zn101  1  0.87465143  0.62212559  0.26090351  1
  Zn  Zn102  1  0.50569565  0.38040409  0.87928363  1
  Zn  Zn103  1  0.50009465  0.24769793  0.24763931  1
  Zn  Zn104  1  0.81142346  0.56770827  0.43389463  1
  Zn  Zn105  1  0.50522274  0.74213867  0.24519990  1
  Zn  Zn106  1  0.37201423  0.87581878  0.49441081  1
  Zn  Zn107  1  0.18621957  0.19224257  0.18878232  1
  Zn  Zn108  1  0.18944675  0.19253987  0.68620725  1
  Zn  Zn109  1  0.18949159  0.68917684  0.18937458  1
  Zn  Zn110  1  0.18211023  0.68818334  0.69066517  1
  Zn  Zn111  1  0.69149704  0.18360228  0.19065282  1
  Zn  Zn112  1  0.69130108  0.18964374  0.68572928  1
  Zn  Zn113  1  0.68255737  0.68333227  0.18599799  1
  Zn  Zn114  1  0.68230485  0.68884105  0.68364988  1
  Zn  Zn115  1  0.31290342  0.31198036  0.30669179  1
  Zn  Zn116  1  0.31393911  0.31404161  0.81220974  1
  Zn  Zn117  1  0.30278349  0.80188857  0.28134380  1
  Zn  Zn118  1  0.30556637  0.81590195  0.81270997  1
  Zn  Zn119  1  0.81176891  0.31677629  0.31718012  1
  Zn  Zn120  1  0.82036838  0.31067596  0.81944431  1
  Zn  Zn121  1  0.81560020  0.80960599  0.31095041  1
  Zn  Zn122  1  0.80855735  0.80572482  0.80610031  1
  Zn  Zn123  1  0.18783876  0.43684335  0.43795067  1
  Zn  Zn124  1  0.18627470  0.44250843  0.94003509  1
  Zn  Zn125  1  0.18502088  0.93996006  0.43355494  1
  Zn  Zn126  1  0.19068787  0.94795468  0.93205216  1
  Zn  Zn127  1  0.68255214  0.43388766  0.44560215  1
  Zn  Zn128  1  0.69137743  0.43520818  0.93793031  1
  Zn  Zn129  1  0.69169038  0.93735175  0.43353589  1
  Zn  Zn130  1  0.68666209  0.92908569  0.93725562  1
  Zn  Zn131  1  0.30839622  0.03101155  0.05285801  1
  Zn  Zn132  1  0.31369306  0.06525246  0.55899183  1
  Zn  Zn133  1  0.31001335  0.56174053  0.06244980  1
  Zn  Zn134  1  0.30761530  0.56406933  0.56217047  1
  Zn  Zn135  1  0.81584077  0.06657923  0.07947692  1
  Zn  Zn136  1  0.81634449  0.06072459  0.57033061  1
  Zn  Zn137  1  0.80626885  0.56473638  0.06368338  1
  Zn  Zn138  1  0.81155046  0.56144012  0.68216562  1
  Zn  Zn139  1  0.43710255  0.43451589  0.19190830  1
  Zn  Zn140  1  0.43750216  0.43832936  0.69070138  1
  Zn  Zn141  1  0.43917888  0.93625336  0.18298000  1
  Zn  Zn142  1  0.43438003  0.93826156  0.68317351  1
  Zn  Zn143  1  0.93550947  0.43837821  0.18774931  1
  Zn  Zn144  1  0.94200632  0.42976056  0.68234532  1
  Zn  Zn145  1  0.94543968  0.92423365  0.15884208  1
  Zn  Zn146  1  0.93938110  0.93650119  0.80324361  1
  Zn  Zn147  1  0.05948709  0.06548180  0.30922419  1
  Zn  Zn148  1  0.07184397  0.07032060  0.80749527  1
  Zn  Zn149  1  0.06510194  0.56433371  0.31284931  1
  Zn  Zn150  1  0.06020290  0.56661669  0.81212707  1
  Zn  Zn151  1  0.56490973  0.05990370  0.31120189  1
  Zn  Zn152  1  0.56747028  0.06846911  0.81194251  1
  Zn  Zn153  1  0.56302861  0.55672355  0.31660661  1
  Zn  Zn154  1  0.56444602  0.56446134  0.80547213  1
  Zn  Zn155  1  0.44067945  0.18505321  0.43353827  1
  Zn  Zn156  1  0.44019682  0.18684353  0.93767334  1
  Zn  Zn157  1  0.43602691  0.68786275  0.43454478  1
  Zn  Zn158  1  0.43555500  0.69006184  0.93708866  1
  Zn  Zn159  1  0.94301582  0.19095205  0.43689070  1
  Zn  Zn160  1  0.95083845  0.07524945  0.93479707  1
  Zn  Zn161  1  0.94033020  0.69241560  0.44395947  1
  Zn  Zn162  1  0.93801593  0.68965443  0.93005512  1
  Zn  Zn163  1  0.05745220  0.31490916  0.06262434  1
  Zn  Zn164  1  0.06273208  0.31747525  0.56105722  1
  Zn  Zn165  1  0.06795479  0.86487282  0.02605610  1
  Zn  Zn166  1  0.05701437  0.81534510  0.56239673  1
  Zn  Zn167  1  0.56098982  0.30938147  0.06468810  1
  Zn  Zn168  1  0.57113727  0.30951246  0.56338079  1
  Zn  Zn169  1  0.55864615  0.80631167  0.06375215  1
  Zn  Zn170  1  0.56072168  0.80851414  0.56028125  1
  O  O171  1  0.10884557  0.13557777  0.12846110  1
  O  O172  1  0.13019678  0.12251461  0.61415380  1
  O  O173  1  0.13092610  0.61677796  0.12144048  1
  O  O174  1  0.11980117  0.61504308  0.62503882  1
  O  O175  1  0.62496516  0.11908722  0.11835908  1
  O  O176  1  0.62022144  0.12044585  0.61726139  1
  O  O177  1  0.62266523  0.61351134  0.11440260  1
  O  O178  1  0.61216995  0.62694403  0.61232093  1
  O  O179  1  0.38494194  0.37947424  0.36732853  1
  O  O180  1  0.37436291  0.38341586  0.88442188  1
  O  O181  1  0.38340725  0.88048112  0.36895306  1
  O  O182  1  0.37174887  0.89286722  0.87014908  1
  O  O183  1  0.88178620  0.37436776  0.38930896  1
  O  O184  1  0.88787047  0.38833757  0.87148162  1
  O  O185  1  0.88291231  0.86753333  0.38443441  1
  O  O186  1  0.87264242  0.87229226  0.86866231  1
  O  O187  1  0.25240968  0.01423044  0.36660197  1
  O  O188  1  0.25886535  0.01574441  0.86133804  1
  O  O189  1  0.25499865  0.50165720  0.36913373  1
  O  O190  1  0.25354090  0.50970275  0.87008818  1
  O  O191  1  0.75085088  0.00686308  0.36371839  1
  O  O192  1  0.73303760  -0.00138689  0.85798275  1
  O  O193  1  0.74403648  0.49570094  0.36572072  1
  O  O194  1  0.76917003  0.49612104  0.87817805  1
  O  O195  1  0.24002238  0.49266604  0.12859659  1
  O  O196  1  0.24388671  0.49504203  0.63266549  1
  O  O197  1  0.23849327  1.01328130  0.14199280  1
  O  O198  1  0.24784076  0.99568153  0.62669658  1
  O  O199  1  0.73988678  0.49215782  0.13303480  1
  O  O200  1  0.75287997  0.48019621  0.62260565  1
  O  O201  1  0.74480272  0.98852426  0.13154169  1
  O  O202  1  0.74148554  0.99081008  0.63286718  1
  O  O203  1  0.00423589  0.37144198  0.25806556  1
  O  O204  1  0.00933870  0.36977207  0.75592769  1
  O  O205  1  0.00448474  0.86571942  0.25200709  1
  O  O206  1  0.00223858  0.86199049  0.73810593  1
  O  O207  1  0.51253606  0.37320824  0.25942580  1
  O  O208  1  0.49907263  0.36221285  0.75320006  1
  O  O209  1  0.51182344  0.87578425  0.25620758  1
  O  O210  1  0.50994942  0.86899024  0.73980230  1
  O  O211  1  0.48550197  0.12170751  0.24967090  1
  O  O212  1  0.49483252  0.13624027  0.74429043  1
  O  O213  1  0.49341003  0.61702107  0.24814518  1
  O  O214  1  0.49014693  0.63519693  0.74048317  1
  O  O215  1  1.00212159  0.14495371  0.25055337  1
  O  O216  1  0.99858540  0.14076781  0.74608569  1
  O  O217  1  1.00189654  0.63757909  0.25254585  1
  O  O218  1  1.00540144  0.63427128  0.73395406  1
  O  O219  1  0.37704422  0.25580592  0.01003482  1
  O  O220  1  0.38151311  0.24417970  0.51177180  1
  O  O221  1  0.36870538  0.75330190  -0.00360162  1
  O  O222  1  0.36568538  0.75188271  0.50437477  1
  O  O223  1  0.86070598  0.25083768  0.01242732  1
  O  O224  1  0.86709480  0.25419371  0.49713019  1
  O  O225  1  0.86676181  0.73924007  0.00993105  1
  O  O226  1  0.88410347  0.76430360  0.51764013  1
  O  O227  1  0.12238209  0.24716228  0.48776486  1
  O  O228  1  0.12492159  0.26077283  0.98655394  1
  O  O229  1  0.12897080  0.75548392  0.48691536  1
  O  O230  1  0.11155625  0.76369518  0.97861462  1
  O  O231  1  0.63625459  0.24250277  0.49119986  1
  O  O232  1  0.63109988  0.24435937  0.99593015  1
  O  O233  1  0.62068114  0.73579988  0.49337877  1
  O  O234  1  0.62920716  0.74472884  0.98908559  1
  O  O235  1  0.48917046  0.24462298  0.12838366  1
  O  O236  1  0.49733495  0.24622704  0.63093465  1
  O  O237  1  0.49477566  0.74071333  0.12864030  1
  O  O238  1  0.49150179  0.74342148  0.63203448  1
  O  O239  1  0.99182096  0.25252136  0.13492223  1
  O  O240  1  1.01237649  0.25392292  0.64266672  1
  O  O241  1  0.98497044  0.74435946  0.13239653  1
  O  O242  1  0.99757227  0.74415788  0.63410641  1
  O  O243  1  0.00802227  0.26132682  0.37082128  1
  O  O244  1  0.01480438  0.26274605  0.86106933  1
  O  O245  1  0.00793995  0.76045852  0.36843820  1
  O  O246  1  0.00798189  0.74832718  0.85875904  1
  O  O247  1  0.50839431  0.25344302  0.37000971  1
  O  O248  1  0.50917398  0.25090911  0.86748608  1
  O  O249  1  0.50734598  0.76183659  0.37594174  1
  O  O250  1  0.50518269  0.74591397  0.85928848  1
  O  O251  1  0.24100297  0.12484872  0.48977963  1
  O  O252  1  0.25612180  0.11783873  0.98633074  1
  O  O253  1  0.24449416  0.63480099  0.49353430  1
  O  O254  1  0.24244093  0.62375761  0.98987647  1
  O  O255  1  0.74996226  0.12852705  0.49468882  1
  O  O256  1  0.74017088  0.13517723  1.00579413  1
  O  O257  1  0.73376061  0.61989797  0.50435489  1
  O  O258  1  0.73802439  0.63270950  0.99538091  1
  O  O259  1  0.25810851  0.37963710  0.01091139  1
  O  O260  1  0.24896505  0.37655473  0.51355626  1
  O  O261  1  0.26949872  0.91986532  0.01014338  1
  O  O262  1  0.25106523  0.87083231  0.50319280  1
  O  O263  1  0.74202331  0.36687084  0.01726064  1
  O  O264  1  0.76067057  0.36684686  0.50379272  1
  O  O265  1  0.75014477  0.86204998  0.00791898  1
  O  O266  1  0.75509154  0.87850495  0.50889052  1
  O  O267  1  0.12814584  0.49617161  0.23987835  1
  O  O268  1  0.12815079  0.49024241  0.74461593  1
  O  O269  1  0.12814336  0.99344517  0.25146190  1
  O  O270  1  0.14261860  1.01180849  0.73628916  1
  O  O271  1  0.63300408  0.49103195  0.24573873  1
  O  O272  1  0.61757418  0.49301598  0.74124365  1
  O  O273  1  0.62941753  0.99040413  0.24360401  1
  O  O274  1  0.62509518  0.99350398  0.74127479  1
  O  O275  1  0.36611886  0.00725027  0.25247517  1
  O  O276  1  0.37332826  0.01285508  0.75121876  1
  O  O277  1  0.36983255  0.50415461  0.25912073  1
  O  O278  1  0.36681119  0.50542839  0.75850487  1
  O  O279  1  0.86686188  -0.01503736  0.23603530  1
  O  O280  1  0.86192708  0.00761276  0.74731209  1
  O  O281  1  0.85611867  0.50070787  0.24661947  1
  O  O282  1  0.88027962  0.49742907  0.75580933  1
  O  O283  1  0.11948594  0.37066677  0.37186686  1
  O  O284  1  0.12320354  0.37357423  0.86782823  1
  O  O285  1  0.11618663  0.87034501  0.36688565  1
  O  O286  1  0.14023555  0.86613200  0.86262831  1
  O  O287  1  0.62053588  0.36619418  0.37033201  1
  O  O288  1  0.62388794  0.36409516  0.87562275  1
  O  O289  1  0.61906703  0.86852772  0.36937180  1
  O  O290  1  0.62655824  0.85990661  0.86378169  1
  O  O291  1  0.37217663  0.12898857  0.12947105  1
  O  O292  1  0.38189532  0.13222616  0.63045795  1
  O  O293  1  0.37533958  0.62053334  0.13595543  1
  O  O294  1  0.37588739  0.63341987  0.63003106  1
  O  O295  1  0.88503214  0.14278419  0.13192494  1
  O  O296  1  0.88004227  0.12762010  0.63836460  1
  O  O297  1  0.86335622  0.63841847  0.13445780  1
  O  O298  1  0.88641082  0.63071607  0.62322070  1
  O  O299  1  0.25754703  0.26054512  0.12946337  1
  O  O300  1  0.26294803  0.26120730  0.62981955  1
  O  O301  1  0.26864014  0.76427615  0.16652791  1
  O  O302  1  0.24932766  0.75928936  0.62031319  1
  O  O303  1  0.75564056  0.25678990  0.12562135  1
  O  O304  1  0.74690462  0.25879243  0.61171239  1
  O  O305  1  0.74405611  0.75078732  0.11338721  1
  O  O306  1  0.75747507  0.75906616  0.62824681  1
  O  O307  1  0.24347342  0.24188297  0.36937581  1
  O  O308  1  0.24841208  0.23893627  0.87246592  1
  O  O309  1  0.24177994  0.74712333  0.37414470  1
  O  O310  1  0.23425972  0.74194007  0.86466090  1
  O  O311  1  0.74690485  0.24048143  0.38050427  1
  O  O312  1  0.74513570  0.25692786  0.88726327  1
  O  O313  1  0.73698380  0.75431797  0.37482331  1
  O  O314  1  0.74124905  0.74495516  0.88053166  1
  O  O315  1  -0.00222797  0.13762777  0.01788454  1
  O  O316  1  0.01336731  0.12567832  0.50039982  1
  O  O317  1  0.00138647  0.61352383  -0.00358485  1
  O  O318  1  0.00663249  0.63542246  0.52210149  1
  O  O319  1  0.51581767  0.12096783  -0.00075120  1
  O  O320  1  0.50923879  0.11793581  0.50131052  1
  O  O321  1  0.51335078  0.62588757  -0.00373593  1
  O  O322  1  0.49960521  0.62443701  0.50860517  1
  O  O323  1  0.50694699  0.37265559  0.48829773  1
  O  O324  1  0.48677410  0.37214089  0.99975598  1
  O  O325  1  0.49746044  0.88063151  0.49111719  1
  O  O326  1  0.50519674  0.88656201  0.99696927  1
  O  O327  1  0.98550635  0.37359411  0.49557471  1
  O  O328  1  1.00391806  0.38730614  0.98774758  1
  O  O329  1  0.99306052  0.87997957  0.48916698  1
  O  O330  1  0.96044227  0.88087329  1.05115000  1
  O  O331  1  0.49063594  0.48804020  0.37850766  1
  O  O332  1  0.48512104  0.50099529  0.86927689  1
  O  O333  1  0.49648769  0.98928514  0.37708369  1
  O  O334  1  0.49690580  1.00540163  0.87749360  1
  O  O335  1  1.00643792  0.48877076  0.37393953  1
  O  O336  1  0.99204162  0.49662461  0.88279307  1
  O  O337  1  1.00193268  0.98866941  0.37284586  1
  O  O338  1  1.00258489  1.00654355  0.86418547  1
  O  O339  1  0.00076127  0.02629350  0.13719476  1
  O  O340  1  0.01721870  0.00767716  0.62249041  1
  O  O341  1  0.00519583  0.49523727  0.11226234  1
  O  O342  1  0.00756120  0.51063230  0.63023875  1
  O  O343  1  0.50977454  0.00252303  0.11348475  1
  O  O344  1  0.50426730  0.00666997  0.61714556  1
  O  O345  1  0.51389202  0.49551213  0.12940305  1
  O  O346  1  0.49131433  0.51395050  0.62288847  1
  O  O347  1  0.24328987  0.38091546  0.24027408  1
  O  O348  1  0.24409203  0.38199887  0.74579905  1
  O  O349  1  0.23614742  0.89227915  0.26070087  1
  O  O350  1  0.25771745  0.89085697  0.73664580  1
  O  O351  1  0.73989640  0.38174432  0.24639135  1
  O  O352  1  0.75567435  0.36170359  0.73499489  1
  O  O353  1  0.73809477  0.87867936  0.24856876  1
  O  O354  1  0.73550328  0.87918084  0.73954256  1
  O  O355  1  0.25798132  0.12425977  0.25722969  1
  O  O356  1  0.26331524  0.12266888  0.74813555  1
  O  O357  1  0.25672216  0.61525138  0.25798490  1
  O  O358  1  0.25360963  0.61947106  0.75542077  1
  O  O359  1  0.75138647  0.11080568  0.25802107  1
  O  O360  1  0.75670529  0.11456928  0.74320477  1
  O  O361  1  0.74264110  0.60811785  0.25152162  1
  O  O362  1  0.74821133  0.62607140  0.74604267  1
  O  O363  1  0.36786578  0.12164074  0.36699558  1
  O  O364  1  0.36854399  0.12421028  0.86581655  1
  O  O365  1  0.36926056  0.61231569  0.37168137  1
  O  O366  1  0.36523303  0.61919261  0.86986708  1
  O  O367  1  0.86829706  0.12553751  0.37795122  1
  O  O368  1  0.87605116  0.13477230  0.85568929  1
  O  O369  1  0.87768834  0.63195418  0.37508300  1
  O  O370  1  0.87486651  0.60738460  0.87465143  1
  O  O371  1  0.13065250  0.38132822  0.12802183  1
  O  O372  1  0.13253977  0.38166744  0.63162406  1
  O  O373  1  0.13114108  0.86869729  0.13728030  1
  O  O374  1  0.13626478  0.88587068  0.61635889  1
  O  O375  1  0.62953485  0.37706652  0.13450511  1
  O  O376  1  0.64258512  0.37534560  0.62364202  1
  O  O377  1  0.63157194  0.87573751  0.13280846  1
  O  O378  1  0.62904366  0.87732944  0.62798510  1
  O  O379  1  0.11895202  0.25946384  0.26192868  1
  O  O380  1  0.12522900  0.26236956  0.75636747  1
  O  O381  1  0.11733778  0.75671841  0.25905087  1
  O  O382  1  0.11222634  0.74984162  0.75750623  1
  O  O383  1  0.62640842  0.25606772  0.25711841  1
  O  O384  1  0.62049754  0.25160270  0.75816492  1
  O  O385  1  0.62351325  0.75520046  0.25873869  1
  O  O386  1  0.61435296  0.75730388  0.75235099  1
  O  O387  1  0.37611914  0.24136395  0.23823101  1
  O  O388  1  0.38370644  0.24406892  0.74503153  1
  O  O389  1  0.38790078  0.72698982  0.26713353  1
  O  O390  1  0.37847834  0.74902970  0.74550162  1
  O  O391  1  0.88321228  0.26027064  0.24625525  1
  O  O392  1  0.89178688  0.24963717  0.75093378  1
  O  O393  1  0.88214060  0.74414285  0.24339114  1
  O  O394  1  0.88757616  0.75220556  0.73633583  1
  O  O395  1  0.37266515  0.50096280  0.48800961  1
  O  O396  1  0.36980225  0.49170386  0.99145528  1
  O  O397  1  0.38158351  1.00073748  0.48855174  1
  O  O398  1  0.39741817  1.01109105  0.98373565  1
  O  O399  1  0.86934405  0.48946338  0.49992955  1
  O  O400  1  0.88639860  0.50420238  1.00101063  1
  O  O401  1  0.87813870  0.98529875  0.50837224  1
  O  O402  1  0.85837965  1.02105428  0.98483475  1
  O  O403  1  0.10792369  -0.02950213  0.00317666  1
  O  O404  1  0.12573270  0.01157704  0.50438104  1
  O  O405  1  0.11338406  0.50249184  0.00798429  1
  O  O406  1  0.12832605  0.50012265  0.51410335  1
  O  O407  1  0.62519825  0.00699265  0.00294437  1
  O  O408  1  0.62159919  0.00397233  0.50315427  1
  O  O409  1  0.63051328  0.50616017  0.00707532  1
  O  O410  1  0.61841430  0.51098379  0.50538580  1
  O  O411  1  0.36808014  0.36959700  0.11956339  1
  O  O412  1  0.36790335  0.36733630  0.62925743  1
  O  O413  1  0.37314574  0.87384126  0.11976590  1
  O  O414  1  0.36358470  0.87037699  0.61943572  1
  O  O415  1  0.86375693  0.36691110  0.13028026  1
  O  O416  1  0.86851930  0.37376056  0.61167393  1
  O  O417  1  0.85007867  0.84910242  0.14297038  1
  O  O418  1  0.86061564  0.86727927  0.61970357  1
  O  O419  1  0.13181492  0.13456598  0.37927438  1
  O  O420  1  0.14417018  0.13705366  0.86989499  1
  O  O421  1  0.13122181  0.63487409  0.37703704  1
  O  O422  1  0.13056881  0.63342108  0.87799948  1
  O  O423  1  0.63247492  0.12860722  0.37843144  1
  O  O424  1  0.62894628  0.13894592  0.88246694  1
  O  O425  1  0.61742231  0.63098734  0.38908131  1
  O  O426  1  0.62595445  0.63370046  0.87728206  1
