# generated using pymatgen
data_V85Zn86O256
_symmetry_space_group_name_H-M   'P 1'
_cell_length_a   16.94101952
_cell_length_b   16.92942149
_cell_length_c   16.92738778
_cell_angle_alpha   90.02930226
_cell_angle_beta   90.04636525
_cell_angle_gamma   90.06196848
_symmetry_Int_Tables_number   1
_chemical_formula_structural   V85Zn86O256
_chemical_formula_sum   'V85 Zn86 O256'
_cell_volume   4854.79785004
_cell_formula_units_Z   1
loop_
 _symmetry_equiv_pos_site_id
 _symmetry_equiv_pos_as_xyz
  1  'x, y, z'
loop_
 _atom_site_type_symbol
 _atom_site_label
 _atom_site_symmetry_multiplicity
 _atom_site_fract_x
 _atom_site_fract_y
 _atom_site_fract_z
 _atom_site_occupancy
  V  V0  1  0.24032365  0.75772303  0.00683506  1
  V  V1  1  0.38840167  0.49742960  0.37905035  1
  V  V2  1  0.74668836  0.75125192  0.00082870  1
  V  V3  1  0.75485579  0.24937364  0.00709053  1
  V  V4  1  0.37453302  0.87572744  0.01470979  1
  V  V5  1  0.00019723  0.61710997  0.11973311  1
  V  V6  1  0.36721910  0.25022443  0.11937190  1
  V  V7  1  -0.00332803  0.87446479  0.36756235  1
  V  V8  1  0.00774622  0.12709844  0.61617822  1
  V  V9  1  -0.00310602  0.12679674  0.12545778  1
  V  V10  1  0.37645551  0.62618257  0.24986496  1
  V  V11  1  0.24507015  0.12754379  0.39335182  1
  V  V12  1  0.87690902  0.49983515  0.87900556  1
  V  V13  1  0.61384050  0.25354460  0.37571587  1
  V  V14  1  0.62325836  0.12535557  0.00098796  1
  V  V15  1  0.74697790  0.12244528  0.36447802  1
  V  V16  1  0.61779273  0.50467229  0.61717012  1
  V  V17  1  0.62782950  0.37959654  0.75073118  1
  V  V18  1  0.63246655  0.00167498  0.62939550  1
  V  V19  1  0.74844456  0.62419987  0.87397601  1
  V  V20  1  0.24955379  0.49707405  0.24960910  1
  V  V21  1  0.87391751  0.50039614  0.37501764  1
  V  V22  1  0.62091850  0.61328656  0.00156943  1
  V  V23  1  0.87322862  0.24468052  0.63023462  1
  V  V24  1  0.00001333  0.62469781  0.62676959  1
  V  V25  1  0.12582640  0.75507642  0.36933856  1
  V  V26  1  0.37454865  0.25039604  0.62323462  1
  V  V27  1  0.88060696  0.37541138  0.00964952  1
  V  V28  1  0.62308456  0.12090878  0.50037720  1
  V  V29  1  0.87404444  0.75092245  0.12407908  1
  V  V30  1  0.76595655  0.12270052  0.87415666  1
  V  V31  1  0.37537687  -0.00101809  0.37586832  1
  V  V32  1  0.00021119  0.37270750  0.37530612  1
  V  V33  1  0.74439292  0.50231839  0.24560187  1
  V  V34  1  -0.00125098  0.00108814  -0.00738253  1
  V  V35  1  0.12434082  0.61758785  -0.00463450  1
  V  V36  1  0.00170158  -0.00347916  0.49622405  1
  V  V37  1  0.46670046  -0.02660722  0.53534073  1
  V  V38  1  0.13382625  0.12680365  0.00458972  1
  V  V39  1  0.36893207  0.12819181  0.24928554  1
  V  V40  1  0.25055312  0.37114730  0.61543971  1
  V  V41  1  0.13006008  0.87617450  0.74463870  1
  V  V42  1  0.50156488  -0.00496477  -0.00434604  1
  V  V43  1  0.39291094  0.37503224  0.49600621  1
  V  V44  1  0.25648801  0.50249812  0.74817892  1
  V  V45  1  0.25170320  0.62519009  0.37746012  1
  V  V46  1  0.00175715  0.38034752  0.87953639  1
  V  V47  1  0.25971827  0.76599303  0.50978369  1
  V  V48  1  0.75718371  0.87655177  0.62107060  1
  V  V49  1  0.87878372  0.75354200  0.61962189  1
  V  V50  1  0.86769706  -0.00417905  0.37163896  1
  V  V51  1  0.62538686  0.75584593  0.87041485  1
  V  V52  1  0.24496373  -0.01087478  0.24764326  1
  V  V53  1  0.50422775  0.61646232  0.12270815  1
  V  V54  1  0.12785847  0.37197363  0.75036610  1
  V  V55  1  0.24943707  0.63049856  0.87101607  1
  V  V56  1  0.74936246  0.24801985  0.49901291  1
  V  V57  1  0.00540721  0.74985348  0.75899874  1
  V  V58  1  0.49714874  0.87712159  0.37549583  1
  V  V59  1  0.50092641  0.25251465  0.75529092  1
  V  V60  1  0.87442879  0.37363296  0.50103350  1
  V  V61  1  0.87600141  0.62717812  0.24918616  1
  V  V62  1  0.12812541  0.62723627  0.49970646  1
  V  V63  1  0.48317637  0.64453225  0.62664701  1
  V  V64  1  0.37418597  0.37758757  -0.00266296  1
  V  V65  1  0.25227208  0.12938900  0.87103349  1
  V  V66  1  -0.01057173  0.24945080  0.24758155  1
  V  V67  1  0.62893491  0.88470683  0.25049595  1
  V  V68  1  0.12580745  0.37100547  0.24997959  1
  V  V69  1  0.77033164  0.00349075  0.75355516  1
  V  V70  1  0.45041915  0.82391774  0.82576327  1
  V  V71  1  0.12596665  0.24585441  0.38718561  1
  V  V72  1  0.37589945  0.11894260  0.75014781  1
  V  V73  1  0.12962775  0.25158258  0.87943989  1
  V  V74  1  0.61426597  0.37830255  0.25124482  1
  V  V75  1  0.74287035  0.37596897  0.12545634  1
  V  V76  1  0.50355902  0.12714245  0.62602003  1
  V  V77  1  0.12612086  -0.01701919  0.12683305  1
  V  V78  1  0.87400034  0.87786191  -0.01241305  1
  V  V79  1  0.62736236  0.25044495  0.87727023  1
  V  V80  1  0.00086043  0.49980228  0.50094422  1
  V  V81  1  0.75175172  0.88559326  0.12772369  1
  V  V82  1  -0.00265152  0.24162021  0.75427488  1
  V  V83  1  0.62750348  0.75045917  0.37567446  1
  V  V84  1  0.38210240  0.50711633  0.87651077  1
  Zn  Zn85  1  0.75527069  0.74928674  0.49814754  1
  Zn  Zn86  1  0.49380557  0.25251452  0.25155901  1
  Zn  Zn87  1  0.75049842  0.37798194  0.62469978  1
  Zn  Zn88  1  0.00692662  0.87604770  0.87382520  1
  Zn  Zn89  1  0.62326914  0.62324515  0.49825952  1
  Zn  Zn90  1  0.74884298  0.62621370  0.37682821  1
  Zn  Zn91  1  0.75162248  0.50074325  0.74747663  1
  Zn  Zn92  1  0.12489024  -0.00260351  0.61891282  1
  Zn  Zn93  1  0.12693785  0.49798584  0.62530175  1
  Zn  Zn94  1  0.86838988  0.12293589  0.24365310  1
  Zn  Zn95  1  0.24697313  0.00361117  0.74429373  1
  Zn  Zn96  1  0.50574547  0.38676435  0.88338700  1
  Zn  Zn97  1  0.00806872  0.75359414  0.24413292  1
  Zn  Zn98  1  0.62532296  0.87758843  0.75464098  1
  Zn  Zn99  1  0.50049569  0.75272324  0.24725895  1
  Zn  Zn100  1  0.24540399  0.37027528  0.11769506  1
  Zn  Zn101  1  0.49741524  0.12578177  0.12581478  1
  Zn  Zn102  1  0.12146915  0.49584438  0.12172707  1
  Zn  Zn103  1  0.87746811  0.62321923  0.75136665  1
  Zn  Zn104  1  0.37325815  0.75043564  0.12783636  1
  Zn  Zn105  1  0.62486732  0.00339445  0.12769814  1
  Zn  Zn106  1  0.37570424  0.00237079  0.87760007  1
  Zn  Zn107  1  0.18664819  0.18516965  0.19183947  1
  Zn  Zn108  1  0.22658528  0.14233135  0.61298837  1
  Zn  Zn109  1  0.18773625  0.68515415  0.18538679  1
  Zn  Zn110  1  0.18806528  0.68973943  0.68596177  1
  Zn  Zn111  1  0.68320454  0.19303025  0.18631760  1
  Zn  Zn112  1  0.69197157  0.18688210  0.69194414  1
  Zn  Zn113  1  0.68497539  0.69258991  0.18874098  1
  Zn  Zn114  1  0.68782182  0.68767026  0.68851197  1
  Zn  Zn115  1  0.31116133  0.31023897  0.31702959  1
  Zn  Zn116  1  0.31331265  0.31380385  0.81273840  1
  Zn  Zn117  1  0.31303694  0.81115379  0.31910220  1
  Zn  Zn118  1  0.28477393  0.81929302  0.82108493  1
  Zn  Zn119  1  0.80699345  0.31224199  0.31372842  1
  Zn  Zn120  1  0.81337608  0.31171348  0.81648020  1
  Zn  Zn121  1  0.81233163  0.81469097  0.31126203  1
  Zn  Zn122  1  0.81317001  0.81048136  0.80456102  1
  Zn  Zn123  1  0.18948842  0.43822600  0.43599964  1
  Zn  Zn124  1  0.19425627  0.44047325  0.93707213  1
  Zn  Zn125  1  0.17996707  0.93966363  0.42977461  1
  Zn  Zn126  1  0.18502776  0.94092497  0.93196992  1
  Zn  Zn127  1  0.68718502  0.43671395  0.43532349  1
  Zn  Zn128  1  0.69034272  0.43719123  0.93701665  1
  Zn  Zn129  1  0.68767942  0.93683959  0.44098753  1
  Zn  Zn130  1  0.68968433  0.94062849  0.93628470  1
  Zn  Zn131  1  0.30966894  0.05959810  0.06432595  1
  Zn  Zn132  1  0.29667879  -0.04620108  0.56526128  1
  Zn  Zn133  1  0.31149729  0.56180066  0.06215391  1
  Zn  Zn134  1  0.31549185  0.56040557  0.56206212  1
  Zn  Zn135  1  0.81569245  0.06228810  0.05965573  1
  Zn  Zn136  1  0.81787098  0.06343536  0.55708211  1
  Zn  Zn137  1  0.81017719  0.56021853  0.06121788  1
  Zn  Zn138  1  0.80766853  0.56402918  0.56248182  1
  Zn  Zn139  1  0.43414683  0.43915806  0.18368108  1
  Zn  Zn140  1  0.43998066  0.43935696  0.68858438  1
  Zn  Zn141  1  0.44072572  0.94294467  0.18843287  1
  Zn  Zn142  1  0.42253988  0.82756559  0.66306462  1
  Zn  Zn143  1  0.93525501  0.43825340  0.18817700  1
  Zn  Zn144  1  0.93769765  0.43508540  0.69047285  1
  Zn  Zn145  1  0.93716230  0.94054118  0.18700277  1
  Zn  Zn146  1  0.94348273  0.93566489  0.68573001  1
  Zn  Zn147  1  0.06374013  0.06217816  0.31070461  1
  Zn  Zn148  1  0.06436131  0.06381425  0.81000191  1
  Zn  Zn149  1  0.06176346  0.56313686  0.31150372  1
  Zn  Zn150  1  0.06748838  0.55979307  0.81196565  1
  Zn  Zn151  1  0.55697043  0.06360662  0.31356263  1
  Zn  Zn152  1  0.56684780  0.06179932  0.81462149  1
  Zn  Zn153  1  0.56271039  0.56480665  0.30966105  1
  Zn  Zn154  1  0.56134258  0.57073774  0.80377463  1
  Zn  Zn155  1  0.43453041  0.18112343  0.44356029  1
  Zn  Zn156  1  0.43801741  0.19160650  0.94069608  1
  Zn  Zn157  1  0.44200517  0.68729781  0.44363182  1
  Zn  Zn158  1  0.43130459  0.68418632  0.94732131  1
  Zn  Zn159  1  0.93520509  0.18356396  0.43585082  1
  Zn  Zn160  1  0.94133827  0.19232330  0.94424873  1
  Zn  Zn161  1  0.93874665  0.68830122  0.43653150  1
  Zn  Zn162  1  0.93699986  0.68694220  0.93979351  1
  Zn  Zn163  1  0.06245440  0.31044315  0.06412067  1
  Zn  Zn164  1  0.06150798  0.31165407  0.56575974  1
  Zn  Zn165  1  0.05778861  0.80779445  0.05869234  1
  Zn  Zn166  1  0.06205726  0.81418995  0.55882202  1
  Zn  Zn167  1  0.55562569  0.31292629  0.06511695  1
  Zn  Zn168  1  0.56570660  0.31358774  0.56604626  1
  Zn  Zn169  1  0.56012614  0.80815558  0.06345932  1
  Zn  Zn170  1  0.57343232  0.81422047  0.56238616  1
  O  O171  1  0.11750774  0.12244553  0.11774534  1
  O  O172  1  0.10951431  0.13042891  0.62386815  1
  O  O173  1  0.11625908  0.62210131  0.11822764  1
  O  O174  1  0.11594027  0.62395301  0.61702795  1
  O  O175  1  0.62501707  0.12554120  0.11308900  1
  O  O176  1  0.62355814  0.12222443  0.62165031  1
  O  O177  1  0.61325306  0.63129224  0.11815538  1
  O  O178  1  0.62667072  0.61289048  0.62457452  1
  O  O179  1  0.37132221  0.37895771  0.38928931  1
  O  O180  1  0.37753138  0.38227658  0.88345587  1
  O  O181  1  0.38655393  0.88434545  0.37311756  1
  O  O182  1  0.37776517  0.87725817  0.88203620  1
  O  O183  1  0.88021998  0.37913726  0.38005119  1
  O  O184  1  0.88229614  0.38042502  0.88457626  1
  O  O185  1  0.88032595  0.88382971  0.37379230  1
  O  O186  1  0.87560050  0.86915170  0.88548588  1
  O  O187  1  0.25236018  0.01172464  0.37127104  1
  O  O188  1  0.25192488  0.01583611  0.86979048  1
  O  O189  1  0.25590764  0.50572642  0.36574012  1
  O  O190  1  0.25927553  0.50849168  0.86674904  1
  O  O191  1  0.75687615  0.00798894  0.38024143  1
  O  O192  1  0.75018047  0.01051528  0.86657420  1
  O  O193  1  0.75766220  0.49949168  0.36298569  1
  O  O194  1  0.75804026  0.50734138  0.87291784  1
  O  O195  1  0.24830568  0.49876800  0.14021696  1
  O  O196  1  0.24964488  0.49139235  0.63162096  1
  O  O197  1  0.23753768  1.00137344  0.13339305  1
  O  O198  1  0.23904039  1.02627494  0.62759996  1
  O  O199  1  0.75232964  0.49210743  0.13640882  1
  O  O200  1  0.74076919  0.49691446  0.62976943  1
  O  O201  1  0.74838127  0.98893943  0.12056899  1
  O  O202  1  0.75210905  0.99804231  0.63166099  1
  O  O203  1  0.00517316  0.36919547  0.25425813  1
  O  O204  1  0.00780618  0.36811987  0.75842475  1
  O  O205  1  -0.00506015  0.87198844  0.26153648  1
  O  O206  1  0.00624173  0.86652348  0.75370310  1
  O  O207  1  0.51112304  0.37644083  0.24425617  1
  O  O208  1  0.51137748  0.36900187  0.75358413  1
  O  O209  1  0.50643891  0.87510166  0.25921356  1
  O  O210  1  0.50195315  0.87816586  0.75815153  1
  O  O211  1  0.48238480  0.12483034  0.24985553  1
  O  O212  1  0.49850735  0.13453378  0.74760148  1
  O  O213  1  0.49288438  0.62829493  0.24137862  1
  O  O214  1  0.50500957  0.62996775  0.72518536  1
  O  O215  1  1.00052744  0.13363785  0.24297027  1
  O  O216  1  1.00147975  0.13803689  0.74480431  1
  O  O217  1  0.99162959  0.62732144  0.24246817  1
  O  O218  1  1.00444181  0.63024913  0.74216527  1
  O  O219  1  0.37453276  0.26170840  0.00664397  1
  O  O220  1  0.38235903  0.26265746  0.50915106  1
  O  O221  1  0.36265400  0.75958348  0.00314639  1
  O  O222  1  0.35720017  0.75155641  0.49281236  1
  O  O223  1  0.86632734  0.26219963  -0.00154291  1
  O  O224  1  0.86946735  0.25498491  0.50454306  1
  O  O225  1  0.86835464  0.75739128  0.00555872  1
  O  O226  1  0.87657406  0.74424000  0.51474865  1
  O  O227  1  0.11941215  0.25313431  0.48672692  1
  O  O228  1  0.11886978  0.24166811  0.98883507  1
  O  O229  1  0.13153564  0.74414615  0.49134454  1
  O  O230  1  0.13577385  0.74188148  1.00290197  1
  O  O231  1  0.62924530  0.24440522  0.49512040  1
  O  O232  1  0.63112501  0.24535573  0.99721356  1
  O  O233  1  0.63029565  0.75303561  0.48551176  1
  O  O234  1  0.62992009  0.74295919  0.99080674  1
  O  O235  1  0.48401728  0.24625914  0.12932097  1
  O  O236  1  0.49618029  0.24867617  0.63599874  1
  O  O237  1  0.49299080  0.74002680  0.12893987  1
  O  O238  1  0.49638176  0.75183097  0.62118145  1
  O  O239  1  1.00455254  0.24053886  0.13558368  1
  O  O240  1  0.99335849  0.24604998  0.63308513  1
  O  O241  1  0.99143809  0.74004493  0.12635962  1
  O  O242  1  0.99688220  0.74198684  0.62955410  1
  O  O243  1  0.00596097  0.25287048  0.36812155  1
  O  O244  1  0.00343235  0.26014438  0.87073261  1
  O  O245  1  0.00683851  0.75803319  0.37429403  1
  O  O246  1  -0.00296849  0.74767958  0.86161146  1
  O  O247  1  0.51103222  0.24157388  0.37623320  1
  O  O248  1  0.50749910  0.25133568  0.86603547  1
  O  O249  1  0.50592260  0.76125283  0.37479979  1
  O  O250  1  0.50394503  0.75155606  0.87838028  1
  O  O251  1  0.24961466  0.12816421  0.49121369  1
  O  O252  1  0.23841392  0.12197263  0.99341564  1
  O  O253  1  0.23997799  0.62647795  0.49704421  1
  O  O254  1  0.24285483  0.63313271  0.99543826  1
  O  O255  1  0.74432545  0.13263603  0.49180334  1
  O  O256  1  0.74555304  0.13217921  0.99743620  1
  O  O257  1  0.74424568  0.62956715  0.49492712  1
  O  O258  1  0.74375643  0.62969170  0.99178159  1
  O  O259  1  0.26531994  0.37709100  0.00077749  1
  O  O260  1  0.25197876  0.37674900  0.51293880  1
  O  O261  1  0.25330926  0.86308406  -0.00772157  1
  O  O262  1  0.24531871  0.87171146  0.49973324  1
  O  O263  1  0.75455774  0.36913583  0.00780842  1
  O  O264  1  0.75719631  0.36535675  0.49930027  1
  O  O265  1  0.75693052  0.87170836  0.00633875  1
  O  O266  1  0.74860072  0.87376520  0.51686225  1
  O  O267  1  0.13064645  0.48749279  0.25243178  1
  O  O268  1  0.13745625  0.48941314  0.74949212  1
  O  O269  1  0.13152865  1.00364491  0.23829253  1
  O  O270  1  0.12095393  0.99013962  0.74345017  1
  O  O271  1  0.63450033  0.49222979  0.25576737  1
  O  O272  1  0.62748459  0.49320227  0.74373280  1
  O  O273  1  0.61998734  0.98936155  0.24885395  1
  O  O274  1  0.63547640  1.00325053  0.74060919  1
  O  O275  1  0.36804963  0.00692512  0.25908920  1
  O  O276  1  0.37704776  0.01728641  0.75529821  1
  O  O277  1  0.36830434  0.50659154  0.25705789  1
  O  O278  1  0.36254945  0.49231251  0.75713488  1
  O  O279  1  0.88027043  0.00515184  0.26529229  1
  O  O280  1  0.86966677  0.00015665  0.74782564  1
  O  O281  1  0.86875936  0.51000416  0.25366883  1
  O  O282  1  0.87395536  0.49974994  0.76379476  1
  O  O283  1  0.12005284  0.36790487  0.36957167  1
  O  O284  1  0.12021403  0.37128982  0.87482412  1
  O  O285  1  0.11278549  0.86544726  0.37577664  1
  O  O286  1  0.12524683  0.87795162  0.85606793  1
  O  O287  1  0.62976436  0.36479681  0.36499117  1
  O  O288  1  0.62365864  0.36998816  0.87005314  1
  O  O289  1  0.62015822  0.87328793  0.36832118  1
  O  O290  1  0.62993706  0.86457483  0.87507041  1
  O  O291  1  0.37162253  0.13168670  0.13162727  1
  O  O292  1  0.38553939  0.13744956  0.63509370  1
  O  O293  1  0.38280661  0.62392074  0.13321071  1
  O  O294  1  0.38404453  0.62814020  0.62306623  1
  O  O295  1  0.89053255  0.11980524  0.12597774  1
  O  O296  1  0.88418246  0.13982856  0.61889235  1
  O  O297  1  0.87959853  0.62851422  0.12869642  1
  O  O298  1  0.88827001  0.62688686  0.62702612  1
  O  O299  1  0.26149317  0.25115506  0.13184663  1
  O  O300  1  0.26720803  0.25278090  0.62711240  1
  O  O301  1  0.25246127  0.74585119  0.11081315  1
  O  O302  1  0.24900085  0.74953682  0.60837832  1
  O  O303  1  0.74939476  0.25743310  0.11464993  1
  O  O304  1  0.75716687  0.25137239  0.61902874  1
  O  O305  1  0.75497558  0.75764430  0.11857765  1
  O  O306  1  0.76013714  0.75828062  0.62858404  1
  O  O307  1  0.24137619  0.23553778  0.37219341  1
  O  O308  1  0.24089208  0.24213683  0.87155412  1
  O  O309  1  0.24222667  0.74475390  0.38492655  1
  O  O310  1  0.25014005  0.73785679  0.88936486  1
  O  O311  1  0.73982900  0.24200712  0.38063420  1
  O  O312  1  0.74556820  0.24542011  0.88659327  1
  O  O313  1  0.74235687  0.75028848  0.37539006  1
  O  O314  1  0.74538488  0.74302788  0.88026256  1
  O  O315  1  0.00901220  0.11980402  0.00654768  1
  O  O316  1  -0.00346165  0.11451239  0.50443162  1
  O  O317  1  0.01104223  0.63066991  0.00695834  1
  O  O318  1  0.01051237  0.62135642  0.50525414  1
  O  O319  1  0.50905481  0.12115516  0.00123706  1
  O  O320  1  0.50367461  0.11416683  0.51093031  1
  O  O321  1  0.50617082  0.62743429  0.01320198  1
  O  O322  1  0.50653051  0.63025693  0.51893161  1
  O  O323  1  0.49118294  0.37615316  0.50190408  1
  O  O324  1  0.48391166  0.37504783  0.99896676  1
  O  O325  1  0.51399758  0.88792444  0.48996913  1
  O  O326  1  0.48917286  0.88193072  1.00399645  1
  O  O327  1  0.99422802  0.37956382  0.49560745  1
  O  O328  1  0.99154713  0.37073121  0.99384769  1
  O  O329  1  0.99895438  0.88815943  0.48974482  1
  O  O330  1  0.99284748  0.88115871  0.99543804  1
  O  O331  1  0.48734657  0.50278366  0.37128619  1
  O  O332  1  0.48610329  0.50557123  0.86514057  1
  O  O333  1  0.48846188  0.99457278  0.37814111  1
  O  O334  1  0.49839492  1.00632093  0.88988963  1
  O  O335  1  0.99425810  0.49332332  0.37997260  1
  O  O336  1  0.99507839  0.48768339  0.87164477  1
  O  O337  1  0.99571575  0.99494593  0.37990775  1
  O  O338  1  1.00585428  1.00245949  0.88944711  1
  O  O339  1  0.00893781  0.00608159  0.11750432  1
  O  O340  1  -0.00395805  0.00873000  0.61117802  1
  O  O341  1  -0.00028255  0.51265435  0.12815406  1
  O  O342  1  0.00275493  0.50650870  0.62058510  1
  O  O343  1  0.50256448  0.00561644  0.11284401  1
  O  O344  1  0.51646749  0.00981769  0.62682892  1
  O  O345  1  0.49930424  0.51694707  0.12957280  1
  O  O346  1  0.51488144  0.50307311  0.62820921  1
  O  O347  1  0.24161071  0.38065559  0.25231045  1
  O  O348  1  0.24611804  0.37882269  0.74059789  1
  O  O349  1  0.25306487  0.89014177  0.26099970  1
  O  O350  1  0.23758693  0.88255825  0.74198051  1
  O  O351  1  0.74376890  0.38049031  0.24220237  1
  O  O352  1  0.73756738  0.37290596  0.75145180  1
  O  O353  1  0.74207887  0.87247552  0.23947688  1
  O  O354  1  0.75087551  0.88628745  0.74151274  1
  O  O355  1  0.25851834  0.11649277  0.25549717  1
  O  O356  1  0.26288866  0.13011511  0.75732167  1
  O  O357  1  0.25651566  0.61746503  0.25593363  1
  O  O358  1  0.24362367  0.61714432  0.75827691  1
  O  O359  1  0.74736710  0.13089136  0.26054293  1
  O  O360  1  0.75136492  0.11816950  0.76223223  1
  O  O361  1  0.75597028  0.61797787  0.24859587  1
  O  O362  1  0.75355978  0.62524200  0.76418916  1
  O  O363  1  0.36267868  0.12194029  0.37057182  1
  O  O364  1  0.36770238  0.13149785  0.86974877  1
  O  O365  1  0.37197417  0.61751979  0.37131026  1
  O  O366  1  0.36371209  0.61862582  0.88089176  1
  O  O367  1  0.86242517  0.11925395  0.37092965  1
  O  O368  1  0.86484144  0.13105675  0.88426105  1
  O  O369  1  0.87565777  0.61953952  0.36531324  1
  O  O370  1  0.86792631  0.61663504  0.87769278  1
  O  O371  1  0.12673888  0.37619777  0.13401300  1
  O  O372  1  0.13387777  0.37242681  0.63221760  1
  O  O373  1  0.11843561  0.88396495  0.12153413  1
  O  O374  1  0.11422291  0.87918336  0.63779149  1
  O  O375  1  0.63551167  0.36928675  0.13256268  1
  O  O376  1  0.62675779  0.38512044  0.63310268  1
  O  O377  1  0.63323163  0.87440790  0.13249790  1
  O  O378  1  0.63514049  0.88531997  0.63192138  1
  O  O379  1  0.11842211  0.25927775  0.25766205  1
  O  O380  1  0.11416375  0.25904187  0.76678409  1
  O  O381  1  0.12646458  0.74157298  0.26472831  1
  O  O382  1  0.11827889  0.76251801  0.74388822  1
  O  O383  1  0.61960270  0.25843711  0.25835456  1
  O  O384  1  0.61937995  0.25663563  0.75496059  1
  O  O385  1  0.62320018  0.76227709  0.26042282  1
  O  O386  1  0.62945523  0.75186987  0.76552709  1
  O  O387  1  0.37424960  0.24410638  0.24622370  1
  O  O388  1  0.38625643  0.24944727  0.74494658  1
  O  O389  1  0.37198192  0.73567288  0.25266774  1
  O  O390  1  0.38338442  0.77707230  0.76196904  1
  O  O391  1  0.88627472  0.24908517  0.25522989  1
  O  O392  1  0.88406468  0.25829962  0.74211454  1
  O  O393  1  0.87356112  0.73768801  0.24423189  1
  O  O394  1  0.88650964  0.74491534  0.73946897  1
  O  O395  1  0.37099776  0.48503334  0.49274051  1
  O  O396  1  0.37141506  0.49133704  0.99032755  1
  O  O397  1  0.37288185  1.00854299  0.48554832  1
  O  O398  1  0.37917725  0.99203997  0.99873050  1
  O  O399  1  0.88038298  0.49445902  0.49537279  1
  O  O400  1  0.87031410  0.49082793  0.98838723  1
  O  O401  1  0.88644388  1.00533731  0.48345019  1
  O  O402  1  0.88609642  0.98947656  1.00512354  1
  O  O403  1  0.12069756  0.00684415  0.00807120  1
  O  O404  1  0.10751679  0.00066664  0.49783544  1
  O  O405  1  0.13202397  0.51245259  0.00358174  1
  O  O406  1  0.11920573  0.50811038  0.50042539  1
  O  O407  1  0.61945795  0.00788781  0.00163169  1
  O  O408  1  0.63310263  0.00814893  0.51626726  1
  O  O409  1  0.62863770  0.51383496  -0.00418270  1
  O  O410  1  0.62796946  0.49742579  0.51359477  1
  O  O411  1  0.37121955  0.37056869  0.11559792  1
  O  O412  1  0.37222111  0.37127930  0.61537716  1
  O  O413  1  0.37416719  0.87544206  0.11809937  1
  O  O414  1  0.39794264  0.91456222  0.59931976  1
  O  O415  1  0.86507398  0.38122015  0.11538470  1
  O  O416  1  0.87531113  0.36455609  0.61835581  1
  O  O417  1  0.86887831  0.87008723  0.12010515  1
  O  O418  1  0.87096553  0.86540188  0.62882831  1
  O  O419  1  0.13735306  0.13074849  0.37167686  1
  O  O420  1  0.13126819  0.13332923  0.88035621  1
  O  O421  1  0.12914687  0.62977305  0.38306915  1
  O  O422  1  0.13525567  0.61971620  0.88317714  1
  O  O423  1  0.62932492  0.12829578  0.38046346  1
  O  O424  1  0.63395789  0.13120760  0.88687527  1
  O  O425  1  0.62461819  0.63661707  0.37413825  1
  O  O426  1  0.63057843  0.63059247  0.88052600  1
