# generated using pymatgen
data_V85Zn86O256
_symmetry_space_group_name_H-M   'P 1'
_cell_length_a   16.96288081
_cell_length_b   16.96549932
_cell_length_c   16.95366434
_cell_angle_alpha   90.03691390
_cell_angle_beta   89.94508760
_cell_angle_gamma   89.97405765
_symmetry_Int_Tables_number   1
_chemical_formula_structural   V85Zn86O256
_chemical_formula_sum   'V85 Zn86 O256'
_cell_volume   4878.98522360
_cell_formula_units_Z   1
loop_
 _symmetry_equiv_pos_site_id
 _symmetry_equiv_pos_as_xyz
  1  'x, y, z'
loop_
 _atom_site_type_symbol
 _atom_site_label
 _atom_site_symmetry_multiplicity
 _atom_site_fract_x
 _atom_site_fract_y
 _atom_site_fract_z
 _atom_site_occupancy
  V  V0  1  0.75241284  0.12405498  0.37414904  1
  V  V1  1  0.37015752  0.00044319  0.87113976  1
  V  V2  1  0.88026903  0.62730970  0.74936631  1
  V  V3  1  0.25026934  0.87222523  0.12821711  1
  V  V4  1  0.37234451  0.49647902  0.38284381  1
  V  V5  1  0.61607872  0.37628853  0.75455973  1
  V  V6  1  0.13200383  0.61645230  0.49652238  1
  V  V7  1  0.87439354  0.24944007  0.62838047  1
  V  V8  1  -0.00300628  0.37445553  0.87042838  1
  V  V9  1  0.24896620  0.87356412  0.61938848  1
  V  V10  1  0.74822890  0.50127246  0.75781050  1
  V  V11  1  0.49870354  0.00107236  0.00006711  1
  V  V12  1  0.24160300  0.24525255  0.00371399  1
  V  V13  1  0.24296793  0.37864073  0.12449091  1
  V  V14  1  0.24798950  -0.00206477  0.25106685  1
  V  V15  1  0.86968912  0.86419576  -0.00514198  1
  V  V16  1  0.00382123  0.75003578  0.74308745  1
  V  V17  1  0.49776236  0.87587420  0.87346269  1
  V  V18  1  0.62632520  0.00131924  0.12430779  1
  V  V19  1  0.87509487  0.74404802  0.13587417  1
  V  V20  1  0.13537801  0.87923664  0.75308673  1
  V  V21  1  0.62676262  -0.00015529  0.62332531  1
  V  V22  1  0.50135277  0.87429368  0.37502233  1
  V  V23  1  0.49779199  0.12588669  0.62544890  1
  V  V24  1  0.74896263  0.25165962  0.00180201  1
  V  V25  1  0.00257771  0.01202772  0.00286991  1
  V  V26  1  0.13092694  0.73758431  0.87623985  1
  V  V27  1  0.37359935  0.00048613  0.37650248  1
  V  V28  1  0.62672851  0.12544821  0.49959962  1
  V  V29  1  0.12479996  0.75736626  0.38291120  1
  V  V30  1  0.62410476  0.12618511  -0.00075997  1
  V  V31  1  0.75115025  0.25304434  0.49820873  1
  V  V32  1  0.10924478  0.86659778  0.25058706  1
  V  V33  1  -0.00312475  0.39602293  0.37973908  1
  V  V34  1  0.74875901  0.37683702  0.62523988  1
  V  V35  1  0.50283054  0.73754774  0.24440514  1
  V  V36  1  0.00321919  0.24865271  0.26401120  1
  V  V37  1  0.11759610  0.24450269  0.87640871  1
  V  V38  1  0.24873259  0.37743534  0.62470886  1
  V  V39  1  0.05536825  0.17379121  0.56824611  1
  V  V40  1  0.87912086  -0.01416609  0.37900730  1
  V  V41  1  0.37372999  0.87609606  0.00255464  1
  V  V42  1  0.24696758  0.50636444  0.24877585  1
  V  V43  1  0.24429942  0.11901718  0.87845147  1
  V  V44  1  0.62284306  0.87738949  0.74706904  1
  V  V45  1  0.73993965  0.37433643  0.13673372  1
  V  V46  1  0.37081424  0.86464463  0.49691146  1
  V  V47  1  0.49929815  -0.00044398  0.49977952  1
  V  V48  1  0.87686875  0.00352008  0.87634919  1
  V  V49  1  0.61523556  0.25483863  0.87640442  1
  V  V50  1  0.12307816  0.37204435  0.75203368  1
  V  V51  1  0.50455236  0.25690850  0.25291373  1
  V  V52  1  0.75077856  0.64418528  0.87845109  1
  V  V53  1  0.88891114  0.13112001  0.74842524  1
  V  V54  1  0.88272101  0.12142139  0.24564794  1
  V  V55  1  0.74747389  0.51692158  0.24063762  1
  V  V56  1  0.80804582  0.56899459  0.42803441  1
  V  V57  1  0.50347123  0.38176283  0.38287426  1
  V  V58  1  0.75210330  0.00000185  0.24959501  1
  V  V59  1  0.37459706  0.51513358  0.87344657  1
  V  V60  1  0.12306078  -0.00004802  0.62437309  1
  V  V61  1  0.76153299  0.75755276  0.50473033  1
  V  V62  1  0.63239908  0.74631297  0.37628956  1
  V  V63  1  0.61589229  0.50211661  0.62524013  1
  V  V64  1  0.75110618  0.00501594  0.74688791  1
  V  V65  1  0.49837824  0.12548955  0.12810933  1
  V  V66  1  -0.00143696  -0.02332430  0.50065785  1
  V  V67  1  0.49647727  0.62659680  0.62026876  1
  V  V68  1  0.12056970  0.00919344  0.12458952  1
  V  V69  1  0.12404384  0.37567601  0.25492192  1
  V  V70  1  0.37190631  0.25010078  0.62287726  1
  V  V71  1  0.88515471  0.24857017  0.12617488  1
  V  V72  1  0.62579635  0.87632449  0.24847980  1
  V  V73  1  0.87447778  0.37897031  0.00410667  1
  V  V74  1  0.00434144  0.87381097  0.87765936  1
  V  V75  1  0.36782807  0.12001239  0.74841551  1
  V  V76  1  0.62218583  0.62124113  0.49225128  1
  V  V77  1  -0.00031626  0.61794007  0.61643012  1
  V  V78  1  0.25138051  0.74181426  -0.00218903  1
  V  V79  1  0.00730334  0.50019406  0.00990525  1
  V  V80  1  0.37375290  0.12639786  0.25375284  1
  V  V81  1  0.49817311  0.74508655  0.74716277  1
  V  V82  1  0.23424111  0.13072044  0.37981683  1
  V  V83  1  0.37849883  0.37196332  -0.01002773  1
  V  V84  1  0.74933084  0.12866372  0.87316041  1
  Zn  Zn85  1  0.12419543  0.50176772  0.62836735  1
  Zn  Zn86  1  0.62910650  0.25349340  0.36977899  1
  Zn  Zn87  1  0.87500622  0.50142545  0.87789358  1
  Zn  Zn88  1  0.87409969  0.38981387  0.49684541  1
  Zn  Zn89  1  0.36753676  0.74642826  0.62019724  1
  Zn  Zn90  1  0.49368408  0.25279028  0.75383704  1
  Zn  Zn91  1  0.37059410  0.25021639  0.12648682  1
  Zn  Zn92  1  0.37259744  0.37411382  0.50183807  1
  Zn  Zn93  1  0.38676411  0.73727097  0.11703124  1
  Zn  Zn94  1  0.14035885  0.60943508  0.00350898  1
  Zn  Zn95  1  0.01316605  0.63672939  0.13093293  1
  Zn  Zn96  1  0.61399965  0.63211403  0.01753906  1
  Zn  Zn97  1  0.88321528  0.61742663  0.25863167  1
  Zn  Zn98  1  0.25772431  0.63309286  0.37888890  1
  Zn  Zn99  1  0.24412906  0.50876956  0.75931893  1
  Zn  Zn100  1  0.50012974  0.50506020  0.01330383  1
  Zn  Zn101  1  0.38800685  0.61274391  0.24841170  1
  Zn  Zn102  1  0.23723577  0.24721241  0.49890363  1
  Zn  Zn103  1  0.74812661  0.87429450  0.11382947  1
  Zn  Zn104  1  0.76975926  0.87777437  0.61754148  1
  Zn  Zn105  1  0.36160450  0.63208066  0.74960029  1
  Zn  Zn106  1  0.62777318  0.75455087  0.87991991  1
  Zn  Zn107  1  0.18502489  0.18997320  0.19279071  1
  Zn  Zn108  1  0.19037291  0.19171339  0.69557785  1
  Zn  Zn109  1  0.18903288  0.68776322  0.18440806  1
  Zn  Zn110  1  0.18689835  0.68924789  0.68314295  1
  Zn  Zn111  1  0.69029807  0.18833016  0.18687978  1
  Zn  Zn112  1  0.68762650  0.18930834  0.68813628  1
  Zn  Zn113  1  0.69593004  0.69435312  0.18182433  1
  Zn  Zn114  1  0.68557376  0.68885266  0.68902059  1
  Zn  Zn115  1  0.31201409  0.31182124  0.31409832  1
  Zn  Zn116  1  0.30507956  0.30807767  0.81148951  1
  Zn  Zn117  1  0.31252611  0.80835991  0.31237167  1
  Zn  Zn118  1  0.31209935  0.81093045  0.81097664  1
  Zn  Zn119  1  0.81897059  0.31539753  0.31369671  1
  Zn  Zn120  1  0.80872267  0.31404481  0.81270263  1
  Zn  Zn121  1  0.81014217  0.80838490  0.30997338  1
  Zn  Zn122  1  0.82420897  0.82404227  0.78607314  1
  Zn  Zn123  1  0.18581038  0.43509201  0.43439610  1
  Zn  Zn124  1  0.19054862  0.43331677  0.93533518  1
  Zn  Zn125  1  0.18501233  0.93981451  0.43662725  1
  Zn  Zn126  1  0.18615479  0.93665605  0.94222917  1
  Zn  Zn127  1  0.67966496  0.43667380  0.43616481  1
  Zn  Zn128  1  0.68653799  0.43745102  0.94569538  1
  Zn  Zn129  1  0.69080479  0.93562717  0.43639662  1
  Zn  Zn130  1  0.68728721  0.93901484  0.93172106  1
  Zn  Zn131  1  0.30865093  0.06206656  0.06436975  1
  Zn  Zn132  1  0.30706334  0.05919335  0.55985826  1
  Zn  Zn133  1  0.32219343  0.55893695  0.06773111  1
  Zn  Zn134  1  0.30941148  0.56095987  0.56453216  1
  Zn  Zn135  1  0.81493103  0.06146243  0.06178350  1
  Zn  Zn136  1  0.81876572  0.06373857  0.56200169  1
  Zn  Zn137  1  0.80349511  0.56511060  0.06195847  1
  Zn  Zn138  1  0.80499616  0.57303191  0.58861970  1
  Zn  Zn139  1  0.42698378  0.43236580  0.18731549  1
  Zn  Zn140  1  0.43419527  0.44013542  0.69339684  1
  Zn  Zn141  1  0.43809999  0.93600387  0.18838578  1
  Zn  Zn142  1  0.43502440  0.93760902  0.68486942  1
  Zn  Zn143  1  0.93293831  0.44050473  0.19421584  1
  Zn  Zn144  1  0.93609399  0.43847301  0.68744368  1
  Zn  Zn145  1  0.93587656  0.93556929  0.18018117  1
  Zn  Zn146  1  0.94177331  0.93959756  0.68798605  1
  Zn  Zn147  1  0.05825577  0.05400603  0.31310211  1
  Zn  Zn148  1  0.06358892  0.06044310  0.81158695  1
  Zn  Zn149  1  0.06621844  0.56826184  0.30836670  1
  Zn  Zn150  1  0.06198846  0.55843491  0.81655292  1
  Zn  Zn151  1  0.56314305  0.06466193  0.31444167  1
  Zn  Zn152  1  0.55804085  0.06576029  0.81153960  1
  Zn  Zn153  1  0.57552677  0.54671945  0.18157125  1
  Zn  Zn154  1  0.57798502  0.54283665  0.85623874  1
  Zn  Zn155  1  0.43572660  0.18947580  0.43750406  1
  Zn  Zn156  1  0.43215564  0.18854002  0.93930123  1
  Zn  Zn157  1  0.44273262  0.68277497  0.43099641  1
  Zn  Zn158  1  0.44430312  0.68807191  0.93762223  1
  Zn  Zn159  1  0.92981649  0.18600983  0.43431423  1
  Zn  Zn160  1  0.93574227  0.19051910  0.93797558  1
  Zn  Zn161  1  0.94971302  0.70128155  0.43755370  1
  Zn  Zn162  1  0.94103788  0.68356850  0.93438039  1
  Zn  Zn163  1  0.06261062  0.31420110  0.06395958  1
  Zn  Zn164  1  0.05957073  0.33481544  0.55857299  1
  Zn  Zn165  1  0.06274612  0.81187237  0.06231181  1
  Zn  Zn166  1  0.06701620  0.80800082  0.56314618  1
  Zn  Zn167  1  0.55738112  0.31531013  0.06700485  1
  Zn  Zn168  1  0.56172454  0.31206428  0.56317867  1
  Zn  Zn169  1  0.56687984  0.81003749  0.05949562  1
  Zn  Zn170  1  0.56550994  0.81107100  0.56163414  1
  O  O171  1  0.13115678  0.10779325  0.13409988  1
  O  O172  1  0.11989335  0.12021641  0.63189568  1
  O  O173  1  0.12390927  0.63772851  0.11061669  1
  O  O174  1  0.11899719  0.62507348  0.61206703  1
  O  O175  1  0.62030861  0.12074496  0.11868144  1
  O  O176  1  0.62030776  0.11952978  0.61974332  1
  O  O177  1  0.64611994  0.61405900  0.12563471  1
  O  O178  1  0.61853805  0.61955277  0.61908953  1
  O  O179  1  0.38174251  0.37624788  0.37993526  1
  O  O180  1  0.36872744  0.36565629  0.88882113  1
  O  O181  1  0.37964368  0.88018613  0.38004229  1
  O  O182  1  0.37777122  0.88223584  0.88083014  1
  O  O183  1  0.89091202  0.37428168  0.37814678  1
  O  O184  1  0.88085996  0.37220102  0.88409464  1
  O  O185  1  0.86954852  0.88759002  0.36788357  1
  O  O186  1  0.88437973  0.88156220  0.87886435  1
  O  O187  1  0.25472446  0.00910118  0.37014040  1
  O  O188  1  0.25190215  0.01188486  0.88227397  1
  O  O189  1  0.25650866  0.49898318  0.36755154  1
  O  O190  1  0.26762890  0.49199618  0.87620191  1
  O  O191  1  0.75664603  0.00533169  0.36947209  1
  O  O192  1  0.75674287  0.01072666  0.86901328  1
  O  O193  1  0.75118337  0.50549144  0.37192469  1
  O  O194  1  0.75264646  0.50179152  0.86365946  1
  O  O195  1  0.25262655  0.48912098  0.13514439  1
  O  O196  1  0.24751602  0.48591832  0.62807516  1
  O  O197  1  0.24319127  0.98961883  0.12923097  1
  O  O198  1  0.23163452  0.99270078  0.61772975  1
  O  O199  1  0.75470316  0.48635401  0.13246899  1
  O  O200  1  0.73557864  0.49818090  0.63982014  1
  O  O201  1  0.74478444  0.99756030  0.13127989  1
  O  O202  1  0.74574044  0.99879842  0.62928961  1
  O  O203  1  0.00435293  0.36994568  0.25909312  1
  O  O204  1  0.00211371  0.37788259  0.76354292  1
  O  O205  1  0.01143743  0.87729784  0.24657776  1
  O  O206  1  0.01107435  0.86709743  0.76148506  1
  O  O207  1  0.49162441  0.35891081  0.26047205  1
  O  O208  1  0.51261392  0.37155236  0.74556206  1
  O  O209  1  0.51260309  0.87545975  0.25700716  1
  O  O210  1  0.50667745  0.87199916  0.75127166  1
  O  O211  1  0.49170718  0.13028867  0.24780153  1
  O  O212  1  0.48644059  0.12737293  0.74317869  1
  O  O213  1  0.51021344  0.63665738  0.24739299  1
  O  O214  1  0.49887483  0.64051798  0.73855301  1
  O  O215  1  0.99000065  0.13024200  0.25526686  1
  O  O216  1  0.98799745  0.12785178  0.75657931  1
  O  O217  1  0.99242770  0.60896081  0.23806941  1
  O  O218  1  0.99857518  0.62944675  0.74669732  1
  O  O219  1  0.36212994  0.25603837  0.00202098  1
  O  O220  1  0.37078422  0.24654605  0.51465761  1
  O  O221  1  0.37029447  0.76334117  -0.00145856  1
  O  O222  1  0.38123022  0.76192017  0.49673396  1
  O  O223  1  0.87088332  0.25881861  0.00797656  1
  O  O224  1  0.86300180  0.24746317  0.50996286  1
  O  O225  1  0.87813909  0.76377406  -0.00784317  1
  O  O226  1  0.85982451  0.74787063  0.49469705  1
  O  O227  1  0.11489043  0.23771587  0.51483429  1
  O  O228  1  0.13338348  0.25288533  0.99315397  1
  O  O229  1  0.12792667  0.74644391  0.48824265  1
  O  O230  1  0.13714463  0.75933425  0.98924400  1
  O  O231  1  0.63784649  0.24454928  0.50161990  1
  O  O232  1  0.62709290  0.24594789  0.99438372  1
  O  O233  1  0.63299322  0.74348079  0.49312496  1
  O  O234  1  0.62473625  0.74616339  0.99245835  1
  O  O235  1  0.49540182  0.24431479  0.13751331  1
  O  O236  1  0.49123677  0.24254513  0.62722886  1
  O  O237  1  0.50124361  0.76226195  0.14262691  1
  O  O238  1  0.49803271  0.74461563  0.62914537  1
  O  O239  1  0.98862764  0.25573210  0.13352864  1
  O  O240  1  0.99448376  0.24484818  0.61538315  1
  O  O241  1  0.98047537  0.75245590  0.11390436  1
  O  O242  1  1.00919212  0.74210786  0.63937035  1
  O  O243  1  -0.00520359  0.25149192  0.36553531  1
  O  O244  1  0.01074906  0.25788949  0.88360741  1
  O  O245  1  0.02416580  0.75032886  0.36812479  1
  O  O246  1  0.01165471  0.75624080  0.87112707  1
  O  O247  1  0.50042990  0.25370210  0.36550056  1
  O  O248  1  0.51166877  0.24195797  0.87376405  1
  O  O249  1  0.51380930  0.75451210  0.36573513  1
  O  O250  1  0.49855200  0.76011307  0.86255074  1
  O  O251  1  0.24899237  0.12487514  0.48417361  1
  O  O252  1  0.25466277  0.13367558  0.99192762  1
  O  O253  1  0.23630274  0.62610978  0.50056961  1
  O  O254  1  0.25710210  0.63929233  1.00228079  1
  O  O255  1  0.74726658  0.13137603  0.49429689  1
  O  O256  1  0.74537914  0.13211505  0.99477414  1
  O  O257  1  0.74737254  0.62891744  0.49560512  1
  O  O258  1  0.75082912  0.62462527  0.97841328  1
  O  O259  1  0.25274041  0.36509703  0.00738596  1
  O  O260  1  0.24626492  0.36693601  0.50915301  1
  O  O261  1  0.25833986  0.87210199  0.00827416  1
  O  O262  1  0.26019127  0.88270443  0.50518648  1
  O  O263  1  0.75746321  0.37067863  0.00795520  1
  O  O264  1  0.75138494  0.36863854  0.50448617  1
  O  O265  1  0.76679681  0.88375883  -0.00645901  1
  O  O266  1  0.74961046  0.86344261  0.50331100  1
  O  O267  1  0.13407720  0.48479868  0.25648085  1
  O  O268  1  0.12533550  0.48564796  0.75379879  1
  O  O269  1  0.12908530  0.98722940  0.24600601  1
  O  O270  1  0.11602030  0.98944390  0.73844297  1
  O  O271  1  0.65023694  0.49715779  0.25786301  1
  O  O272  1  0.62932755  0.49269137  0.75197903  1
  O  O273  1  0.62970293  0.99536465  0.24563816  1
  O  O274  1  0.62623754  0.99912981  0.74192195  1
  O  O275  1  0.36947207  0.00598547  0.25596342  1
  O  O276  1  0.37776998  0.00785917  0.75814184  1
  O  O277  1  0.36284452  0.49362137  0.26212724  1
  O  O278  1  0.36965503  0.50230470  0.76330451  1
  O  O279  1  0.87352064  0.00526967  0.25298752  1
  O  O280  1  0.87243890  0.01419140  0.75859389  1
  O  O281  1  0.85395119  0.49585666  0.25339624  1
  O  O282  1  0.86686077  0.50918416  0.75044447  1
  O  O283  1  0.10880372  0.37445683  0.37001428  1
  O  O284  1  0.11709199  0.36605374  0.87086148  1
  O  O285  1  0.13070846  0.86852068  0.36209315  1
  O  O286  1  0.12027140  0.87300525  0.86893411  1
  O  O287  1  0.60867722  0.37031492  0.37740269  1
  O  O288  1  0.63173242  0.36448547  0.86705302  1
  O  O289  1  0.62066646  0.86903883  0.36888474  1
  O  O290  1  0.61283679  0.87853801  0.86707523  1
  O  O291  1  0.37750382  0.12358963  0.13856050  1
  O  O292  1  0.37391539  0.12775970  0.63147572  1
  O  O293  1  0.36886677  0.62912264  0.13894972  1
  O  O294  1  0.38353485  0.62680906  0.62369148  1
  O  O295  1  0.86902864  0.13448412  0.13493765  1
  O  O296  1  0.87067916  0.13604070  0.63599004  1
  O  O297  1  0.87172622  0.64083022  0.11851809  1
  O  O298  1  0.88756041  0.63069385  0.63606618  1
  O  O299  1  0.24839382  0.25252587  0.11800285  1
  O  O300  1  0.25474811  0.25760748  0.62404371  1
  O  O301  1  0.25466280  0.76336140  0.11803603  1
  O  O302  1  0.24850592  0.76886112  0.62387213  1
  O  O303  1  0.75821343  0.25795949  0.12087601  1
  O  O304  1  0.75595543  0.25646392  0.61886916  1
  O  O305  1  0.76887496  0.76124345  0.12401219  1
  O  O306  1  0.74416856  0.74975432  0.60758730  1
  O  O307  1  0.25022889  0.23493064  0.37696784  1
  O  O308  1  0.23858549  0.23956620  0.88245868  1
  O  O309  1  0.23428314  0.74627729  0.36500851  1
  O  O310  1  0.24166792  0.75836098  0.88473795  1
  O  O311  1  0.75122507  0.24557099  0.38196386  1
  O  O312  1  0.74097536  0.24565021  0.88209806  1
  O  O313  1  0.73901920  0.75466126  0.38457489  1
  O  O314  1  0.75715169  0.74432236  0.86276083  1
  O  O315  1  -0.00475734  0.11131625  -0.00573556  1
  O  O316  1  -0.00084265  0.12100560  0.50328726  1
  O  O317  1  -0.00461921  0.60510108  0.00088088  1
  O  O318  1  0.01314872  0.63550849  0.50931105  1
  O  O319  1  0.50157484  0.12067627  0.00787126  1
  O  O320  1  0.50562605  0.12064217  0.50510058  1
  O  O321  1  0.49842540  0.62160382  0.00494990  1
  O  O322  1  0.50866649  0.63048091  0.51131527  1
  O  O323  1  0.49477619  0.36696921  0.48688900  1
  O  O324  1  0.47985298  0.36810228  1.00277246  1
  O  O325  1  0.49477060  0.88014680  0.49390848  1
  O  O326  1  0.49109348  0.88196713  0.99599341  1
  O  O327  1  0.99265176  0.38334733  0.48616424  1
  O  O328  1  0.99290923  0.38045286  0.99277145  1
  O  O329  1  0.99518308  0.87783621  0.50438497  1
  O  O330  1  0.99298872  0.88087861  0.98848129  1
  O  O331  1  0.48990980  0.48086992  0.37057418  1
  O  O332  1  0.47612989  0.49386939  0.87704496  1
  O  O333  1  0.49479586  0.99468975  0.38028621  1
  O  O334  1  0.49195105  0.99667354  0.88150598  1
  O  O335  1  0.99950060  0.49364747  0.37273859  1
  O  O336  1  0.99467163  0.48958631  0.88540812  1
  O  O337  1  0.99351625  0.99851272  0.39096072  1
  O  O338  1  0.99658646  0.99202836  0.88033163  1
  O  O339  1  0.00764896  -0.00293392  0.11496122  1
  O  O340  1  0.00681101  -0.00377086  0.61243845  1
  O  O341  1  -0.00348478  0.48903569  0.10954335  1
  O  O342  1  0.00281060  0.51347751  0.62940333  1
  O  O343  1  0.50545984  0.00625323  0.12024692  1
  O  O344  1  0.50538087  0.00662710  0.61856728  1
  O  O345  1  0.50448289  0.48186593  0.12669400  1
  O  O346  1  0.50941949  0.50913042  0.63374440  1
  O  O347  1  0.24167552  0.37585305  0.24509884  1
  O  O348  1  0.23930703  0.37377602  0.74290567  1
  O  O349  1  0.25101596  0.88131402  0.24176936  1
  O  O350  1  0.23994612  0.87632389  0.74368487  1
  O  O351  1  0.75128375  0.36945436  0.23789996  1
  O  O352  1  0.74205089  0.38290775  0.74394239  1
  O  O353  1  0.73737795  0.88121092  0.25057768  1
  O  O354  1  0.72900414  0.88910663  0.76125960  1
  O  O355  1  0.25674954  0.12029029  0.25891801  1
  O  O356  1  0.26059586  0.12705088  0.76042257  1
  O  O357  1  0.24313351  0.61079683  0.25438083  1
  O  O358  1  0.24874656  0.62202024  0.74374587  1
  O  O359  1  0.75872117  0.11982623  0.25466082  1
  O  O360  1  0.75418797  0.12161045  0.75586564  1
  O  O361  1  0.76010075  0.61944614  0.24980635  1
  O  O362  1  0.76143589  0.62018876  0.75001625  1
  O  O363  1  0.37173945  0.11974845  0.36598294  1
  O  O364  1  0.36671773  0.12073354  0.86833738  1
  O  O365  1  0.37625637  0.61358236  0.36852260  1
  O  O366  1  0.37496118  0.61784044  0.87214561  1
  O  O367  1  0.86838409  0.11518564  0.36541578  1
  O  O368  1  0.86710758  0.12681507  0.86850909  1
  O  O369  1  0.87586130  0.62765669  0.37942125  1
  O  O370  1  0.86636800  0.62082155  0.86809446  1
  O  O371  1  0.13551272  0.37027330  0.13377687  1
  O  O372  1  0.12969765  0.37769033  0.63501028  1
  O  O373  1  0.13161946  0.87834687  0.13553484  1
  O  O374  1  0.12939939  0.88094448  0.63177419  1
  O  O375  1  0.64198984  0.36827428  0.12086955  1
  O  O376  1  0.62851984  0.38271039  0.63102706  1
  O  O377  1  0.62662065  0.88389897  0.13184492  1
  O  O378  1  0.62539306  0.88548489  0.63141738  1
  O  O379  1  0.11392529  0.26098369  0.24746695  1
  O  O380  1  0.12513192  0.26136776  0.76156335  1
  O  O381  1  0.12863161  0.76459255  0.25216392  1
  O  O382  1  0.12143530  0.75809054  0.75928436  1
  O  O383  1  0.60850975  0.24088670  0.25116504  1
  O  O384  1  0.62451327  0.25788407  0.75861017  1
  O  O385  1  0.62170757  0.75787427  0.25586862  1
  O  O386  1  0.61650430  0.76285283  0.74855205  1
  O  O387  1  0.38292478  0.24047170  0.25010479  1
  O  O388  1  0.37354309  0.24202322  0.74011581  1
  O  O389  1  0.39769437  0.75068528  0.25661313  1
  O  O390  1  0.38389763  0.75308934  0.74283095  1
  O  O391  1  0.88213641  0.24134384  0.24431352  1
  O  O392  1  0.86867474  0.24764286  0.73675293  1
  O  O393  1  0.87642316  0.74770290  0.23907828  1
  O  O394  1  0.89301000  0.73346321  0.76427230  1
  O  O395  1  0.36804872  0.49635834  0.48745920  1
  O  O396  1  0.37194114  0.48558581  0.99126433  1
  O  O397  1  0.38151167  0.99415356  0.49393099  1
  O  O398  1  0.37705305  0.99232954  0.99448430  1
  O  O399  1  0.85599126  0.51187056  0.49772510  1
  O  O400  1  0.87743506  0.48812924  1.00066727  1
  O  O401  1  0.88781694  1.00001549  0.49424268  1
  O  O402  1  0.88311896  0.99348463  0.99408192  1
  O  O403  1  0.11464954  -0.00668356  0.01205100  1
  O  O404  1  0.10787162  -0.00617205  0.50576307  1
  O  O405  1  0.11151123  0.49485679  -0.00514181  1
  O  O406  1  0.12646643  0.51366573  0.50096660  1
  O  O407  1  0.61971409  0.00687146  0.00329925  1
  O  O408  1  0.62096751  0.00464659  0.50434964  1
  O  O409  1  0.61123426  0.51468686  -0.03199518  1
  O  O410  1  0.63056223  0.50929102  0.51296979  1
  O  O411  1  0.35848395  0.36879802  0.11540119  1
  O  O412  1  0.36771245  0.36738752  0.62598201  1
  O  O413  1  0.36864744  0.87565714  0.11685841  1
  O  O414  1  0.36592823  0.87817133  0.61402886  1
  O  O415  1  0.86814328  0.36616235  0.11932814  1
  O  O416  1  0.86886254  0.36987667  0.62060108  1
  O  O417  1  0.87457012  0.86914260  0.10792479  1
  O  O418  1  0.86094842  0.86573221  0.68024851  1
  O  O419  1  0.13673317  0.12016408  0.36757302  1
  O  O420  1  0.13229150  0.13195947  0.86852686  1
  O  O421  1  0.12725051  0.63229171  0.38638142  1
  O  O422  1  0.12136168  0.63510232  0.88372119  1
  O  O423  1  0.63365524  0.12746065  0.38258619  1
  O  O424  1  0.63007122  0.13099161  0.87984507  1
  O  O425  1  0.62177710  0.63376361  0.39031463  1
  O  O426  1  0.64703127  0.63581604  0.85402543  1
