# generated using pymatgen
data_V85Zn86O256
_symmetry_space_group_name_H-M   'P 1'
_cell_length_a   17.00294402
_cell_length_b   16.99633682
_cell_length_c   17.00702453
_cell_angle_alpha   89.95163245
_cell_angle_beta   89.95571616
_cell_angle_gamma   89.93125931
_symmetry_Int_Tables_number   1
_chemical_formula_structural   V85Zn86O256
_chemical_formula_sum   'V85 Zn86 O256'
_cell_volume   4914.81523165
_cell_formula_units_Z   1
loop_
 _symmetry_equiv_pos_site_id
 _symmetry_equiv_pos_as_xyz
  1  'x, y, z'
loop_
 _atom_site_type_symbol
 _atom_site_label
 _atom_site_symmetry_multiplicity
 _atom_site_fract_x
 _atom_site_fract_y
 _atom_site_fract_z
 _atom_site_occupancy
  V  V0  1  0.87925503  0.50138079  0.36738972  1
  V  V1  1  0.88021801  0.37367946  0.49239172  1
  V  V2  1  0.50477776  0.49526116  0.49869414  1
  V  V3  1  0.24516111  0.49753346  0.24434433  1
  V  V4  1  0.73604677  0.74566717  -0.00534179  1
  V  V5  1  0.62422941  0.87629130  0.25146987  1
  V  V6  1  0.25006060  0.75023516  -0.00470668  1
  V  V7  1  0.49464692  0.25031203  0.24932828  1
  V  V8  1  0.87739329  0.37456037  0.00117106  1
  V  V9  1  -0.00416400  0.24902903  0.74996707  1
  V  V10  1  0.12512652  -0.00124467  0.12442204  1
  V  V11  1  0.00029212  0.12400454  0.12359232  1
  V  V12  1  -0.00446357  0.75338472  0.26553129  1
  V  V13  1  0.75467838  0.75246098  0.50744331  1
  V  V14  1  0.00015415  0.86715347  0.87121490  1
  V  V15  1  0.63273709  0.50226407  0.63734880  1
  V  V16  1  0.75433186  0.86776828  0.12671912  1
  V  V17  1  0.87593983  0.24855995  0.12750131  1
  V  V18  1  0.48435738  0.12343830  0.12422999  1
  V  V19  1  0.75601450  -0.00164715  0.25549100  1
  V  V20  1  0.24594834  0.00135014  0.75517026  1
  V  V21  1  0.37867675  0.00438180  0.37004191  1
  V  V22  1  0.87666676  0.86449446  0.00487656  1
  V  V23  1  0.25407568  0.12922827  0.36880860  1
  V  V24  1  -0.00292773  0.11920513  0.61990184  1
  V  V25  1  -0.00092343  -0.00226582  0.00159147  1
  V  V26  1  0.12187770  0.87023835  0.75075330  1
  V  V27  1  0.00184796  0.62567163  0.63091744  1
  V  V28  1  0.55905743  0.70000874  0.80018868  1
  V  V29  1  0.62069141  0.37907502  0.25057111  1
  V  V30  1  0.62623969  0.75228992  0.37639163  1
  V  V31  1  0.12477596  0.62178984  0.01042375  1
  V  V32  1  0.38140727  0.87425543  0.49847357  1
  V  V33  1  0.24701535  0.37444883  0.62260929  1
  V  V34  1  0.87225854  0.88709996  0.48768152  1
  V  V35  1  0.75033823  0.24358121  0.00001139  1
  V  V36  1  0.63174629  0.00057891  0.62414567  1
  V  V37  1  0.87360305  0.25041171  0.62276576  1
  V  V38  1  0.25321394  0.87231118  0.62639873  1
  V  V39  1  0.24690888  0.25087331  0.49621459  1
  V  V40  1  0.88111331  0.75354375  0.63095692  1
  V  V41  1  0.12447920  0.73986967  0.87085228  1
  V  V42  1  0.87918620  0.12017644  0.25609141  1
  V  V43  1  0.25179383  0.00449747  0.24601596  1
  V  V44  1  0.11884501  0.12558641  0.49467682  1
  V  V45  1  0.62529557  0.00545313  0.12635980  1
  V  V46  1  0.74763064  0.12493869  0.37656037  1
  V  V47  1  0.37726639  0.87823926  -0.00207137  1
  V  V48  1  0.24451476  0.63077734  0.37682665  1
  V  V49  1  0.13136576  0.12330899  -0.00910953  1
  V  V50  1  0.87283119  -0.00662965  0.87109562  1
  V  V51  1  0.75872365  0.50181427  0.75829402  1
  V  V52  1  0.00415239  0.49923931  0.49535732  1
  V  V53  1  0.75105408  0.37747103  0.12806404  1
  V  V54  1  0.50202822  0.88384580  0.86096672  1
  V  V55  1  0.12154767  -0.00199912  0.62426813  1
  V  V56  1  0.73993337  0.25037544  0.49758203  1
  V  V57  1  0.37909605  0.49723814  0.37498329  1
  V  V58  1  0.62782039  0.62375291  0.49945447  1
  V  V59  1  0.37105760  0.63228685  0.74836169  1
  V  V60  1  0.25039638  0.26034472  -0.00596360  1
  V  V61  1  0.38181131  0.62759760  0.25309948  1
  V  V62  1  0.12221142  0.26044361  0.37294874  1
  V  V63  1  -0.01931993  0.63554361  0.12885495  1
  V  V64  1  0.50828005  0.62274383  0.11067592  1
  V  V65  1  -0.00015103  0.25875979  0.25252677  1
  V  V66  1  0.12724341  0.37821533  0.23626231  1
  V  V67  1  -0.00684474  0.37542664  0.87236674  1
  V  V68  1  0.04613498  -0.05579226  0.43680516  1
  V  V69  1  0.12330992  0.37623026  0.74781162  1
  V  V70  1  0.36654342  0.26973977  0.12553292  1
  V  V71  1  0.30351967  0.56833912  0.91492673  1
  V  V72  1  0.37039783  0.24803526  0.62316167  1
  V  V73  1  0.74942283  0.11866206  0.87780502  1
  V  V74  1  0.50320301  0.63160035  0.62282439  1
  V  V75  1  0.37420862  0.37571124  0.49591497  1
  V  V76  1  0.00276882  0.49922877  0.00973440  1
  V  V77  1  0.37184125  0.01119197  0.87472217  1
  V  V78  1  0.25375784  0.50405340  0.74710635  1
  V  V79  1  0.24880263  0.87232380  0.12642966  1
  V  V80  1  0.50660706  0.12830742  0.61243433  1
  V  V81  1  0.75575351  0.62541012  0.36706727  1
  V  V82  1  0.86950420  0.12100880  0.75014064  1
  V  V83  1  0.62041762  0.25196597  0.37363118  1
  V  V84  1  0.36737308  0.12565396  0.74615112  1
  Zn  Zn85  1  0.63385074  0.88252830  0.75379537  1
  Zn  Zn86  1  0.38330619  0.75476802  0.62631811  1
  Zn  Zn87  1  0.87840563  0.51287939  0.87794825  1
  Zn  Zn88  1  0.49520490  0.25447323  0.75837189  1
  Zn  Zn89  1  0.11752729  0.63942595  0.49439982  1
  Zn  Zn90  1  -0.12146430  0.63042985  0.75199051  1
  Zn  Zn91  1  0.50255733  0.74896368  0.24852476  1
  Zn  Zn92  1  0.75164235  0.50662653  0.24579204  1
  Zn  Zn93  1  0.74834257  0.37681253  0.62019342  1
  Zn  Zn94  1  0.44150381  0.44433580  -0.04195414  1
  Zn  Zn95  1  0.12245569  0.86894896  0.26226848  1
  Zn  Zn96  1  0.12564302  0.50385512  0.62042879  1
  Zn  Zn97  1  0.62158981  0.12713330  0.00160866  1
  Zn  Zn98  1  0.50746668  0.00559142  0.49197826  1
  Zn  Zn99  1  0.50172273  0.00227307  -0.00262361  1
  Zn  Zn100  1  0.75872238  0.88474373  0.63534412  1
  Zn  Zn101  1  0.24884423  0.75213580  0.49535238  1
  Zn  Zn102  1  0.62253165  0.49911704  0.10711930  1
  Zn  Zn103  1  0.60808779  0.27156556  0.86622553  1
  Zn  Zn104  1  0.12628459  0.24335231  0.87062250  1
  Zn  Zn105  1  0.37908752  0.75182639  0.12658088  1
  Zn  Zn106  1  0.50058585  0.87667868  0.37339702  1
  Zn  Zn107  1  0.18740145  0.18770834  0.18305321  1
  Zn  Zn108  1  0.18314507  0.18654095  0.68530631  1
  Zn  Zn109  1  0.18456705  0.69014046  0.19278505  1
  Zn  Zn110  1  0.18538513  0.68819149  0.68289989  1
  Zn  Zn111  1  0.68735089  0.18791266  0.19052968  1
  Zn  Zn112  1  0.68822729  0.19018971  0.68471534  1
  Zn  Zn113  1  0.68708879  0.69003970  0.18592341  1
  Zn  Zn114  1  0.74495397  0.63728664  0.86495464  1
  Zn  Zn115  1  0.31440060  0.31664199  0.30933862  1
  Zn  Zn116  1  0.30961132  0.31505676  0.81350783  1
  Zn  Zn117  1  0.31489511  0.81368645  0.31040165  1
  Zn  Zn118  1  0.31263597  0.81344860  0.81367128  1
  Zn  Zn119  1  0.81265521  0.31430381  0.31326189  1
  Zn  Zn120  1  0.78769730  0.32174824  0.81908208  1
  Zn  Zn121  1  0.81743636  0.80729426  0.31190519  1
  Zn  Zn122  1  0.80613880  0.81428343  0.81037575  1
  Zn  Zn123  1  0.18812588  0.44127188  0.43107144  1
  Zn  Zn124  1  0.17700965  0.43175665  0.93770772  1
  Zn  Zn125  1  0.20734569  0.93954228  0.43848793  1
  Zn  Zn126  1  0.18626744  0.93471104  0.93684145  1
  Zn  Zn127  1  0.69083240  0.43511157  0.43423435  1
  Zn  Zn128  1  0.68582987  0.42894424  0.93489109  1
  Zn  Zn129  1  0.68761553  0.94034334  0.44175653  1
  Zn  Zn130  1  0.68701594  0.93636351  0.93994551  1
  Zn  Zn131  1  0.31022013  0.06559484  0.05855381  1
  Zn  Zn132  1  0.30944131  0.06029414  0.55732430  1
  Zn  Zn133  1  0.31325247  0.56813039  0.08072595  1
  Zn  Zn134  1  0.31467281  0.56308964  0.56277735  1
  Zn  Zn135  1  0.81547775  0.05581206  0.06614618  1
  Zn  Zn136  1  0.81133149  0.06472510  0.55817110  1
  Zn  Zn137  1  0.80720629  0.56153600  0.05737667  1
  Zn  Zn138  1  0.81683304  0.56703030  0.55819428  1
  Zn  Zn139  1  0.44125882  0.44145806  0.18633924  1
  Zn  Zn140  1  0.45235944  0.43896493  0.79364830  1
  Zn  Zn141  1  0.43722160  0.93756666  0.18903503  1
  Zn  Zn142  1  0.43886721  0.94856956  0.68312846  1
  Zn  Zn143  1  0.94019938  0.43943860  0.18656222  1
  Zn  Zn144  1  0.93287353  0.43896733  0.68238943  1
  Zn  Zn145  1  0.93854874  0.93082933  0.19286359  1
  Zn  Zn146  1  0.93621751  0.93489253  0.68718739  1
  Zn  Zn147  1  0.07003923  0.06899298  0.30461718  1
  Zn  Zn148  1  0.05553019  0.05846386  0.81149326  1
  Zn  Zn149  1  0.06011597  0.56629830  0.30814700  1
  Zn  Zn150  1  0.06297879  0.55888700  0.81351718  1
  Zn  Zn151  1  0.56342561  0.06846295  0.30832284  1
  Zn  Zn152  1  0.57299479  0.10117741  0.79384468  1
  Zn  Zn153  1  0.56341947  0.56163965  0.31501236  1
  Zn  Zn154  1  0.56881684  0.56050979  0.92678335  1
  Zn  Zn155  1  0.43581222  0.19166004  0.43337325  1
  Zn  Zn156  1  0.43863038  0.28145529  0.93508058  1
  Zn  Zn157  1  0.43816046  0.68895894  0.43800790  1
  Zn  Zn158  1  0.43909830  0.69806095  0.93884772  1
  Zn  Zn159  1  0.93631717  0.18707601  0.43517557  1
  Zn  Zn160  1  0.93636371  0.18625252  0.93629703  1
  Zn  Zn161  1  0.93543980  0.68585012  0.44183379  1
  Zn  Zn162  1  0.93642443  0.68725545  0.93861987  1
  Zn  Zn163  1  0.06445171  0.30903035  0.06090216  1
  Zn  Zn164  1  0.05810309  0.31282212  0.56180337  1
  Zn  Zn165  1  0.06432623  0.80909645  0.06384938  1
  Zn  Zn166  1  0.06537715  0.80593829  0.56232140  1
  Zn  Zn167  1  0.56697108  0.31023833  0.06674805  1
  Zn  Zn168  1  0.52604776  0.35373912  0.62007552  1
  Zn  Zn169  1  0.56036667  0.81529016  0.06615115  1
  Zn  Zn170  1  0.56740409  0.81718213  0.56357437  1
  O  O171  1  0.11822861  0.11819618  0.11722154  1
  O  O172  1  0.11730128  0.11765428  0.61512136  1
  O  O173  1  0.12637803  0.62864460  0.11125811  1
  O  O174  1  0.11686143  0.62332633  0.61785782  1
  O  O175  1  0.62144473  0.11730464  0.12729249  1
  O  O176  1  0.60964226  0.12269261  0.61807730  1
  O  O177  1  0.61002201  0.62216418  0.13279545  1
  O  O178  1  0.62331891  0.61827242  0.60686558  1
  O  O179  1  0.37058207  0.38495143  0.38313695  1
  O  O180  1  0.38831303  0.36798440  0.87060448  1
  O  O181  1  0.37637463  0.88355015  0.38110932  1
  O  O182  1  0.38253604  0.88115042  0.88060583  1
  O  O183  1  0.87147206  0.38250969  0.38527447  1
  O  O184  1  0.88466120  0.37292116  0.88010840  1
  O  O185  1  0.87114816  0.87491123  0.38882921  1
  O  O186  1  0.88352581  0.87727310  0.88157304  1
  O  O187  1  0.25634755  0.01005467  0.36457349  1
  O  O188  1  0.25438299  -0.00873142  0.86198894  1
  O  O189  1  0.26196022  0.50988489  0.36846648  1
  O  O190  1  0.23916063  0.50134955  0.86575561  1
  O  O191  1  0.74213300  0.00871233  0.36264764  1
  O  O192  1  0.76776452  0.00167848  0.88591744  1
  O  O193  1  0.75857014  0.50912114  0.37289073  1
  O  O194  1  0.75569367  0.50372095  0.86333909  1
  O  O195  1  0.24761825  0.50450520  0.14563329  1
  O  O196  1  0.24856989  0.49230985  0.63059190  1
  O  O197  1  0.24800694  0.99418488  0.13093231  1
  O  O198  1  0.24266463  0.99025929  0.62989754  1
  O  O199  1  0.74759303  0.49102317  0.12801067  1
  O  O200  1  0.74013530  0.50633044  0.61866389  1
  O  O201  1  0.74303513  0.99333918  0.13678356  1
  O  O202  1  0.73545828  1.00684477  0.62116050  1
  O  O203  1  0.00702362  0.36443538  0.24701261  1
  O  O204  1  0.00311679  0.37210491  0.75436081  1
  O  O205  1  0.00517616  0.86145203  0.25091826  1
  O  O206  1  0.00751629  0.87876293  0.76175418  1
  O  O207  1  0.50838635  0.36295580  0.24097497  1
  O  O208  1  0.49850864  0.36392912  0.72760014  1
  O  O209  1  0.51227506  0.87339163  0.25165419  1
  O  O210  1  0.49623670  0.88265270  0.76016863  1
  O  O211  1  0.50540986  0.14036196  0.23659987  1
  O  O212  1  0.47611201  0.12075668  0.72786168  1
  O  O213  1  0.49043417  0.62523808  0.25108732  1
  O  O214  1  0.49451647  0.63741434  0.74019892  1
  O  O215  1  0.99491336  0.13357616  0.24364713  1
  O  O216  1  0.99092803  0.12936120  0.74334550  1
  O  O217  1  1.00487292  0.63387979  0.23363909  1
  O  O218  1  1.00069967  0.61737713  0.73467046  1
  O  O219  1  0.35696736  0.24636554  0.01268303  1
  O  O220  1  0.36537790  0.25481797  0.50143376  1
  O  O221  1  0.36633338  0.76052655  0.00221029  1
  O  O222  1  0.37112367  0.76038940  0.50182190  1
  O  O223  1  0.87226321  0.25360046  0.00961702  1
  O  O224  1  0.86969725  0.25658176  0.50175412  1
  O  O225  1  0.86861500  0.76298388  -0.00004977  1
  O  O226  1  0.87069438  0.76034071  0.50440037  1
  O  O227  1  0.12742837  0.24744829  0.49003489  1
  O  O228  1  0.13343769  0.24016088  0.99946880  1
  O  O229  1  0.13569839  0.75128220  0.49820131  1
  O  O230  1  0.13331885  0.74227908  0.99402024  1
  O  O231  1  0.63896086  0.25352524  0.48804731  1
  O  O232  1  0.64278122  0.24536619  1.00053118  1
  O  O233  1  0.63468990  0.74679060  0.49417880  1
  O  O234  1  0.63829061  0.75939340  1.00273828  1
  O  O235  1  0.48464192  0.24050764  0.12847489  1
  O  O236  1  0.48509873  0.23869504  0.62178655  1
  O  O237  1  0.49997021  0.73859190  0.12778181  1
  O  O238  1  0.50202915  0.73617703  0.61199346  1
  O  O239  1  0.99526170  0.24371487  0.13210413  1
  O  O240  1  0.99517314  0.23805148  0.62948773  1
  O  O241  1  0.99676968  0.73648695  0.11950670  1
  O  O242  1  0.99177490  0.74040970  0.62058371  1
  O  O243  1  0.01072850  0.24273509  0.36337946  1
  O  O244  1  0.00016453  0.25716800  0.86799310  1
  O  O245  1  0.00058142  0.73877066  0.36392674  1
  O  O246  1  0.00938412  0.76047870  0.88276860  1
  O  O247  1  0.50788547  0.24514952  0.36327334  1
  O  O248  1  0.50755478  0.22322153  0.86982786  1
  O  O249  1  0.51583792  0.75179434  0.37540520  1
  O  O250  1  0.50249733  0.76192098  0.86639780  1
  O  O251  1  0.23983620  0.12916261  0.48889827  1
  O  O252  1  0.23706658  0.13422527  1.00529482  1
  O  O253  1  0.25352710  0.62378075  0.48473449  1
  O  O254  1  0.24679825  0.62920600  0.99410238  1
  O  O255  1  0.75898314  0.13412022  0.48307026  1
  O  O256  1  0.75477227  0.12820372  0.99796593  1
  O  O257  1  0.74435940  0.63380318  0.48993424  1
  O  O258  1  0.75118391  0.64351226  0.99935054  1
  O  O259  1  0.23717085  0.35870541  0.00220156  1
  O  O260  1  0.25176183  0.37105790  0.50263616  1
  O  O261  1  0.25817869  0.86966758  0.00548608  1
  O  O262  1  0.26499146  0.87652648  0.50915490  1
  O  O263  1  0.75991854  0.36377197  0.01410827  1
  O  O264  1  0.75945191  0.36588074  0.49928589  1
  O  O265  1  0.75708650  0.87017159  0.00869423  1
  O  O266  1  0.76035056  0.87058587  0.50299387  1
  O  O267  1  0.13683767  0.49224156  0.25905126  1
  O  O268  1  0.13358668  0.49240918  0.74650272  1
  O  O269  1  0.13418825  0.99456441  0.24202056  1
  O  O270  1  0.13026226  0.99400388  0.74613632  1
  O  O271  1  0.62636183  0.48534555  0.25498257  1
  O  O272  1  0.64103270  0.50262811  0.73613060  1
  O  O273  1  0.63213881  0.99426529  0.24356956  1
  O  O274  1  0.61177404  1.00866218  0.72728863  1
  O  O275  1  0.36621433  -0.00544891  0.26145214  1
  O  O276  1  0.36294756  0.00392500  0.75283921  1
  O  O277  1  0.36837880  0.50548441  0.25658512  1
  O  O278  1  0.35962890  0.51377296  0.75571255  1
  O  O279  1  0.86734175  0.00786376  0.24619595  1
  O  O280  1  0.88321920  0.00742770  0.76064008  1
  O  O281  1  0.87387579  0.49241504  0.26398210  1
  O  O282  1  0.87063879  0.50509896  0.75206470  1
  O  O283  1  0.13031135  0.36290203  0.36535026  1
  O  O284  1  0.11084353  0.37122923  0.86218014  1
  O  O285  1  0.11645279  0.89263948  0.38254829  1
  O  O286  1  0.11708665  0.86609678  0.87232671  1
  O  O287  1  0.63167489  0.36083022  0.36539836  1
  O  O288  1  0.68116954  0.35115503  0.85979102  1
  O  O289  1  0.62717811  0.86964777  0.36813446  1
  O  O290  1  0.60629649  0.88866472  0.87307427  1
  O  O291  1  0.38371977  0.12286805  0.12727794  1
  O  O292  1  0.37029004  0.13365726  0.62319651  1
  O  O293  1  0.38951043  0.62985234  0.13541784  1
  O  O294  1  0.38658702  0.62453489  0.63212674  1
  O  O295  1  0.88017421  0.12791496  0.13664962  1
  O  O296  1  0.88003353  0.12712832  0.63042881  1
  O  O297  1  0.88316785  0.62324796  0.12346970  1
  O  O298  1  0.88462209  0.63635223  0.62141918  1
  O  O299  1  0.26259128  0.24805002  0.12179689  1
  O  O300  1  0.24997647  0.25269662  0.61499419  1
  O  O301  1  0.25157491  0.75691285  0.11531942  1
  O  O302  1  0.25283465  0.76588101  0.62583536  1
  O  O303  1  0.75769152  0.25300032  0.12105930  1
  O  O304  1  0.75419615  0.24891835  0.61383116  1
  O  O305  1  0.74617819  0.76283044  0.11826588  1
  O  O306  1  0.76086158  0.75309195  0.60943197  1
  O  O307  1  0.24495573  0.24454911  0.37480859  1
  O  O308  1  0.24509585  0.25141819  0.88958342  1
  O  O309  1  0.25669188  0.73360392  0.37113937  1
  O  O310  1  0.23998507  0.75883550  0.88830554  1
  O  O311  1  0.74471290  0.24308145  0.37664983  1
  O  O312  1  0.77228343  0.22807000  0.89026309  1
  O  O313  1  0.74300145  0.74507523  0.38120485  1
  O  O314  1  0.74969364  0.75430783  0.89057499  1
  O  O315  1  0.00449904  0.11836668  0.00627958  1
  O  O316  1  0.00487461  0.12963441  0.50835678  1
  O  O317  1  0.00519718  0.61911723  0.01071455  1
  O  O318  1  0.00070214  0.61521492  0.50760969  1
  O  O319  1  0.50396174  0.12020865  0.02112968  1
  O  O320  1  0.49025663  0.12577494  0.51010270  1
  O  O321  1  0.50201393  0.63086336  0.00794970  1
  O  O322  1  0.50659793  0.61693720  0.50204114  1
  O  O323  1  0.49093680  0.39065714  0.51266754  1
  O  O324  1  0.49482587  0.35798000  1.00032769  1
  O  O325  1  0.49035731  0.87922244  0.49723529  1
  O  O326  1  0.48745484  0.87787312  0.99711045  1
  O  O327  1  0.99214978  0.38355408  0.50013712  1
  O  O328  1  0.99832887  0.38061948  0.99425818  1
  O  O329  1  0.99173095  0.87924156  0.49714720  1
  O  O330  1  0.99456904  0.87812782  0.99571631  1
  O  O331  1  0.48741952  0.50440420  0.38335000  1
  O  O332  1  0.48633132  0.50838805  0.87490113  1
  O  O333  1  0.49265850  1.00323034  0.37269824  1
  O  O334  1  0.48677965  0.99337844  0.87786006  1
  O  O335  1  0.99170799  0.50926144  0.38221235  1
  O  O336  1  0.99809701  0.49120998  0.88469004  1
  O  O337  1  1.00031989  1.00764433  0.37607843  1
  O  O338  1  0.99292454  0.98809493  0.88241892  1
  O  O339  1  0.00567150  0.00276007  0.12108055  1
  O  O340  1  0.00552680  0.01224714  0.63040966  1
  O  O341  1  -0.00253291  0.51057045  0.11525357  1
  O  O342  1  0.00023029  0.50710603  0.61347980  1
  O  O343  1  0.50580881  0.01105332  0.13143145  1
  O  O344  1  0.50153712  0.01528295  0.61420614  1
  O  O345  1  0.50141931  0.51672093  0.12411247  1
  O  O346  1  0.51958378  0.51591403  0.61515774  1
  O  O347  1  0.24331895  0.38997692  0.25462198  1
  O  O348  1  0.24019682  0.38063077  0.74414393  1
  O  O349  1  0.24603541  0.88179445  0.24272275  1
  O  O350  1  0.24475316  0.88282563  0.74352061  1
  O  O351  1  0.74466024  0.37242069  0.23821008  1
  O  O352  1  0.76682003  0.39693142  0.73250460  1
  O  O353  1  0.74614617  0.88048470  0.24601409  1
  O  O354  1  0.74744743  0.88282395  0.74792363  1
  O  O355  1  0.24348748  0.11327873  0.25451866  1
  O  O356  1  0.25508577  0.11326611  0.74034361  1
  O  O357  1  0.25780194  0.61806453  0.25771948  1
  O  O358  1  0.25667345  0.61651172  0.74191221  1
  O  O359  1  0.75898695  0.11830265  0.25594500  1
  O  O360  1  0.76465675  0.12603985  0.75986759  1
  O  O361  1  0.74360923  0.62577345  0.26294137  1
  O  O362  1  0.75752969  0.60643011  0.74708072  1
  O  O363  1  0.36159129  0.12060551  0.37605306  1
  O  O364  1  0.36943710  0.11150563  0.86033083  1
  O  O365  1  0.36986743  0.61916403  0.36852779  1
  O  O366  1  0.36836404  0.63680739  0.86813332  1
  O  O367  1  0.86747034  0.13043907  0.36103299  1
  O  O368  1  0.87504063  0.11182597  0.86819034  1
  O  O369  1  0.86499544  0.61517398  0.38164379  1
  O  O370  1  0.87045036  0.62920221  0.87020121  1
  O  O371  1  0.12196609  0.37182972  0.13725946  1
  O  O372  1  0.12666054  0.37485758  0.63530082  1
  O  O373  1  0.13904318  0.88101120  0.11794007  1
  O  O374  1  0.13054809  0.88104900  0.63023829  1
  O  O375  1  0.63448709  0.37662436  0.13275378  1
  O  O376  1  0.63127461  0.40036578  0.61305953  1
  O  O377  1  0.63127362  0.88235730  0.13563591  1
  O  O378  1  0.62486957  0.89102737  0.62861330  1
  O  O379  1  0.11976639  0.25601045  0.25354175  1
  O  O380  1  0.11665107  0.25672982  0.74985121  1
  O  O381  1  0.10839403  0.75488626  0.24305116  1
  O  O382  1  0.13280922  0.75646417  0.76118912  1
  O  O383  1  0.61768117  0.25950623  0.25317673  1
  O  O384  1  0.61098800  0.21101515  0.75981414  1
  O  O385  1  0.62699855  0.76074010  0.25864963  1
  O  O386  1  0.61504235  0.75859395  0.74611323  1
  O  O387  1  0.38032095  0.25570404  0.23695270  1
  O  O388  1  0.36431909  0.23957291  0.73793291  1
  O  O389  1  0.37937218  0.74166559  0.24829162  1
  O  O390  1  0.36523505  0.73794832  0.74483659  1
  O  O391  1  0.88394448  0.24528487  0.24726349  1
  O  O392  1  0.87915994  0.24136453  0.74107708  1
  O  O393  1  0.89379996  0.75332483  0.24850553  1
  O  O394  1  0.87070156  0.75182135  0.73369102  1
  O  O395  1  0.38179032  0.49623010  0.49344207  1
  O  O396  1  0.35166078  0.51094263  0.99047308  1
  O  O397  1  0.37305596  0.99452294  0.48415008  1
  O  O398  1  0.37141660  0.99442339  0.99037028  1
  O  O399  1  0.88337229  0.49228000  0.49171699  1
  O  O400  1  0.88236511  0.49155155  0.99836145  1
  O  O401  1  0.87239530  0.98622771  0.50189401  1
  O  O402  1  0.88297704  0.98996789  0.99454754  1
  O  O403  1  0.12122564  0.00566418  0.00430351  1
  O  O404  1  0.11644860  -0.00035164  0.49839684  1
  O  O405  1  0.11429503  0.50954878  -0.00580138  1
  O  O406  1  0.11235822  0.49774576  0.49748941  1
  O  O407  1  0.62331758  -0.00282012  0.01787274  1
  O  O408  1  0.62129666  -0.00109071  0.51332401  1
  O  O409  1  0.63512313  0.50329048  -0.00534775  1
  O  O410  1  0.61833644  0.50892267  0.48926881  1
  O  O411  1  0.37301976  0.36767303  0.12592749  1
  O  O412  1  0.36241412  0.35772587  0.61430751  1
  O  O413  1  0.36532456  0.87643659  0.11772885  1
  O  O414  1  0.37034802  0.87796400  0.61810859  1
  O  O415  1  0.87006232  0.36933187  0.12285871  1
  O  O416  1  0.87658086  0.36640058  0.60987442  1
  O  O417  1  0.86444506  0.88408024  0.11655116  1
  O  O418  1  0.87778047  0.86891453  0.61456969  1
  O  O419  1  0.13522717  0.13503381  0.37627118  1
  O  O420  1  0.11482195  0.12350812  0.88726082  1
  O  O421  1  0.14251145  0.61757061  0.37476489  1
  O  O422  1  0.11580974  0.63664840  0.88370175  1
  O  O423  1  0.63604577  0.13926301  0.36509396  1
  O  O424  1  0.64661479  0.10421622  0.88501791  1
  O  O425  1  0.63080893  0.63304652  0.38252679  1
  O  O426  1  0.62036060  0.64101044  0.85797846  1
