# generated using pymatgen
data_V85Zn86O256
_symmetry_space_group_name_H-M   'P 1'
_cell_length_a   16.95578236
_cell_length_b   16.94055155
_cell_length_c   16.94701628
_cell_angle_alpha   89.99753243
_cell_angle_beta   90.08134168
_cell_angle_gamma   90.03785347
_symmetry_Int_Tables_number   1
_chemical_formula_structural   V85Zn86O256
_chemical_formula_sum   'V85 Zn86 O256'
_cell_volume   4867.86015403
_cell_formula_units_Z   1
loop_
 _symmetry_equiv_pos_site_id
 _symmetry_equiv_pos_as_xyz
  1  'x, y, z'
loop_
 _atom_site_type_symbol
 _atom_site_label
 _atom_site_symmetry_multiplicity
 _atom_site_fract_x
 _atom_site_fract_y
 _atom_site_fract_z
 _atom_site_occupancy
  V  V0  1  0.62288679  0.24867576  0.35955666  1
  V  V1  1  0.86688805  0.50318699  0.86930717  1
  V  V2  1  0.75149613  0.25136409  0.49691525  1
  V  V3  1  0.25213423  0.37764846  0.13044673  1
  V  V4  1  0.38744367  0.37539640  0.50762569  1
  V  V5  1  0.87518764  0.49298763  0.37954969  1
  V  V6  1  0.00292891  0.24378556  0.24302256  1
  V  V7  1  -0.00399393  0.62704813  0.63587485  1
  V  V8  1  0.50052560  0.62950355  0.13124010  1
  V  V9  1  0.74788712  0.00467411  0.24857117  1
  V  V10  1  0.74647091  0.37390865  0.13459329  1
  V  V11  1  0.49548715  0.74822141  0.74784879  1
  V  V12  1  0.24982008  0.00025420  0.25290727  1
  V  V13  1  0.37216625  0.49715349  0.37505651  1
  V  V14  1  0.62528552  0.25065513  0.87397196  1
  V  V15  1  -0.00220225  0.49776046  -0.00027263  1
  V  V16  1  -0.05488859  0.80755166  0.69115369  1
  V  V17  1  0.75183196  0.74812262  -0.00091895  1
  V  V18  1  -0.00065697  0.62504802  0.12693869  1
  V  V19  1  0.74976386  0.62424789  0.37922381  1
  V  V20  1  0.38155150  0.13115382  0.25252683  1
  V  V21  1  -0.00124807  0.87048997  0.87843476  1
  V  V22  1  0.74866971  0.87468565  0.12512610  1
  V  V23  1  0.87342146  0.62350751  0.25184329  1
  V  V24  1  0.25608808  0.25267161  0.51012310  1
  V  V25  1  0.00137636  0.37571406  0.37464566  1
  V  V26  1  0.62388514  0.87370787  0.74380838  1
  V  V27  1  0.36889639  0.50036322  0.86788000  1
  V  V28  1  0.49968933  0.37618320  0.87439305  1
  V  V29  1  0.11736600  0.24503381  0.88053382  1
  V  V30  1  0.49905809  0.50168495  -0.00081117  1
  V  V31  1  0.36755481  0.62679334  0.74142154  1
  V  V32  1  0.49406871  0.89017880  0.87543005  1
  V  V33  1  0.12340663  0.62407280  -0.00054545  1
  V  V34  1  0.62047551  0.87246416  0.24890364  1
  V  V35  1  0.00042989  0.50035670  0.50360213  1
  V  V36  1  0.87171269  0.37320897  0.00299408  1
  V  V37  1  0.61907740  -0.00281299  0.11452606  1
  V  V38  1  0.37820443  0.11802820  0.75196422  1
  V  V39  1  0.12418550  0.87096740  0.25472644  1
  V  V40  1  0.87935517  0.11925248  0.23682786  1
  V  V41  1  0.50016707  0.12857393  0.12063582  1
  V  V42  1  0.37798674  0.75211151  0.12872275  1
  V  V43  1  0.25152895  0.12533656  0.37817749  1
  V  V44  1  0.12485500  0.63538027  0.49877552  1
  V  V45  1  0.62582346  0.12844442  0.49535673  1
  V  V46  1  0.62362537  0.49521672  0.13276876  1
  V  V47  1  0.25636473  0.12364386  0.87725992  1
  V  V48  1  0.37457361  0.37596471  -0.00038264  1
  V  V49  1  -0.00209722  0.87734100  0.38509286  1
  V  V50  1  0.36986225  0.62011636  0.24838473  1
  V  V51  1  0.49446218  0.25305951  0.74443862  1
  V  V52  1  0.12266005  0.74968284  0.86570966  1
  V  V53  1  0.12905978  0.50047507  0.13005851  1
  V  V54  1  0.24957930  0.74905900  0.00060960  1
  V  V55  1  0.49739351  0.62328131  0.61761931  1
  V  V56  1  0.50487311  0.37713001  0.35801316  1
  V  V57  1  0.13409929  0.50073900  0.62929391  1
  V  V58  1  0.12830706  0.37706134  0.25160681  1
  V  V59  1  0.87230327  -0.00000041  0.37919404  1
  V  V60  1  0.74873235  0.24460484  -0.00027243  1
  V  V61  1  0.24587731  0.62771620  0.37288389  1
  V  V62  1  0.01125822  0.00491769  0.00204623  1
  V  V63  1  0.12393649  0.11375411  0.51267499  1
  V  V64  1  0.75966543  0.75808416  0.50399202  1
  V  V65  1  0.12798768  0.25002463  0.37752094  1
  V  V66  1  0.37676869  0.86497397  0.50586148  1
  V  V67  1  0.12291916  0.01562228  0.12811504  1
  V  V68  1  0.62436135  0.62520511  -0.00078009  1
  V  V69  1  0.24759842  0.62133777  0.86965833  1
  V  V70  1  0.49981990  -0.00192039  0.49912819  1
  V  V71  1  0.62424409  0.50036302  0.61295898  1
  V  V72  1  0.49397269  0.13003386  0.62102147  1
  V  V73  1  0.25280537  0.87265947  0.62834421  1
  V  V74  1  0.62353745  0.74877103  0.37176206  1
  V  V75  1  0.12563347  0.88268175  0.74983736  1
  V  V76  1  0.62994219  0.38542148  0.74897724  1
  V  V77  1  0.13116567  0.37651012  0.75292866  1
  V  V78  1  0.25013220  0.24659929  0.00148435  1
  V  V79  1  0.75777361  0.37959196  0.62550779  1
  V  V80  1  0.00383694  0.74924196  0.25674044  1
  V  V81  1  0.87603778  0.88089880  -0.00022003  1
  V  V82  1  0.24914232  0.87445607  0.12761764  1
  V  V83  1  0.49802159  0.87005093  0.37152313  1
  V  V84  1  0.75723207  0.00234588  0.75196379  1
  Zn  Zn85  1  0.87783703  0.25064289  0.12685830  1
  Zn  Zn86  1  0.86384108  0.21067426  0.65753952  1
  Zn  Zn87  1  0.25054972  0.00274966  0.74453987  1
  Zn  Zn88  1  0.00629584  0.24426244  0.72510927  1
  Zn  Zn89  1  0.86581337  0.63150588  0.74134125  1
  Zn  Zn90  1  0.25883368  0.37708056  0.63143873  1
  Zn  Zn91  1  0.91334659  0.32689482  0.54212715  1
  Zn  Zn92  1  0.74442348  0.49563501  0.25603681  1
  Zn  Zn93  1  0.61982054  0.62385475  0.49699439  1
  Zn  Zn94  1  0.38197622  0.25595785  0.13061720  1
  Zn  Zn95  1  0.37559987  -0.00255241  0.37442614  1
  Zn  Zn96  1  0.74349913  0.62169831  0.86647634  1
  Zn  Zn97  1  -0.04113363  0.05557228  0.54416412  1
  Zn  Zn98  1  0.62511020  -0.00200980  0.62396297  1
  Zn  Zn99  1  0.25031637  0.75048158  0.50088459  1
  Zn  Zn100  1  0.76611147  0.87012396  0.62697807  1
  Zn  Zn101  1  -0.00370403  0.37092343  0.87151544  1
  Zn  Zn102  1  0.61857830  0.11773119  -0.00727016  1
  Zn  Zn103  1  0.87548675  0.74904900  0.12604848  1
  Zn  Zn104  1  0.62093941  0.74962668  0.87401049  1
  Zn  Zn105  1  0.38576357  0.88680870  0.00152875  1
  Zn  Zn106  1  0.74979884  0.12141355  0.86279002  1
  Zn  Zn107  1  0.19333915  0.19110865  0.19070305  1
  Zn  Zn108  1  0.18986377  0.19088633  0.69113978  1
  Zn  Zn109  1  0.18794686  0.68734388  0.19117680  1
  Zn  Zn110  1  0.18789196  0.69260747  0.68064939  1
  Zn  Zn111  1  0.69004025  0.18172213  0.18205406  1
  Zn  Zn112  1  0.68220750  0.18940451  0.68306206  1
  Zn  Zn113  1  0.68748127  0.68679669  0.18874035  1
  Zn  Zn114  1  0.68637894  0.68602133  0.68694547  1
  Zn  Zn115  1  0.31405127  0.31197093  0.31520860  1
  Zn  Zn116  1  0.31211045  0.30863563  0.81220312  1
  Zn  Zn117  1  0.31466648  0.80731081  0.31276183  1
  Zn  Zn118  1  0.31351365  0.81036001  0.81203833  1
  Zn  Zn119  1  0.81212934  0.30716558  0.31373752  1
  Zn  Zn120  1  0.81291844  0.31606352  0.81276065  1
  Zn  Zn121  1  0.81264295  0.81297321  0.31413453  1
  Zn  Zn122  1  0.80789727  0.81518991  0.81778430  1
  Zn  Zn123  1  0.19136026  0.44039417  0.44160367  1
  Zn  Zn124  1  0.18736980  0.43408058  0.93929533  1
  Zn  Zn125  1  0.18947826  0.93597440  0.43695384  1
  Zn  Zn126  1  0.21745927  0.95563507  0.95634208  1
  Zn  Zn127  1  0.68612667  0.43206197  0.43890200  1
  Zn  Zn128  1  0.68718245  0.43576530  0.94276370  1
  Zn  Zn129  1  0.68813349  0.93674767  0.43673297  1
  Zn  Zn130  1  0.68463148  0.93220767  0.93183799  1
  Zn  Zn131  1  0.31646914  0.06311035  0.06644537  1
  Zn  Zn132  1  0.31416385  0.05653708  0.56461649  1
  Zn  Zn133  1  0.31183226  0.56210664  0.05984759  1
  Zn  Zn134  1  0.31397182  0.55931695  0.55713906  1
  Zn  Zn135  1  0.85888690  0.09702056  0.01976785  1
  Zn  Zn136  1  0.79459630  0.05789783  0.56391401  1
  Zn  Zn137  1  0.81028626  0.56084037  0.06319998  1
  Zn  Zn138  1  0.81200489  0.56121397  0.56286642  1
  Zn  Zn139  1  0.43633358  0.44226824  0.18764471  1
  Zn  Zn140  1  0.44105558  0.44266188  0.68792608  1
  Zn  Zn141  1  0.43780955  0.94189677  0.18841663  1
  Zn  Zn142  1  0.43938830  0.93797979  0.68478489  1
  Zn  Zn143  1  0.93749480  0.43678293  0.18920815  1
  Zn  Zn144  1  0.94664467  0.43706745  0.69255012  1
  Zn  Zn145  1  0.93788890  0.93503606  0.18393167  1
  Zn  Zn146  1  0.94267555  1.04549496  0.70276546  1
  Zn  Zn147  1  0.06247800  0.06085448  0.31680429  1
  Zn  Zn148  1  0.07101824  0.05950015  0.82405151  1
  Zn  Zn149  1  0.06369518  0.56204285  0.31414768  1
  Zn  Zn150  1  0.06077467  0.55824411  0.81255165  1
  Zn  Zn151  1  0.56150896  0.06166010  0.31046340  1
  Zn  Zn152  1  0.56713947  0.06288565  0.80827511  1
  Zn  Zn153  1  0.55754102  0.56158636  0.31302951  1
  Zn  Zn154  1  0.55922871  0.56395564  0.80941861  1
  Zn  Zn155  1  0.43997479  0.19344346  0.43459461  1
  Zn  Zn156  1  0.43739086  0.18807628  0.93930624  1
  Zn  Zn157  1  0.43718830  0.68739053  0.43312413  1
  Zn  Zn158  1  0.43536469  0.69042139  0.93597241  1
  Zn  Zn159  1  0.93689991  0.18382402  0.42162334  1
  Zn  Zn160  1  0.92804328  0.17150765  0.84931311  1
  Zn  Zn161  1  0.94032965  0.68788810  0.44022870  1
  Zn  Zn162  1  0.93587361  0.68853508  0.93676172  1
  Zn  Zn163  1  0.06351468  0.31207551  0.06034598  1
  Zn  Zn164  1  0.07271806  0.30780904  0.56578702  1
  Zn  Zn165  1  0.06495967  0.81180883  0.06603973  1
  Zn  Zn166  1  0.06588838  0.92085887  0.57113527  1
  Zn  Zn167  1  0.56267678  0.31127912  0.06408964  1
  Zn  Zn168  1  0.56501961  0.31341987  0.56108802  1
  Zn  Zn169  1  0.56036068  0.81185331  0.05842823  1
  Zn  Zn170  1  0.56321235  0.80525283  0.56151083  1
  O  O171  1  0.12896878  0.11498817  0.13292857  1
  O  O172  1  0.12814839  0.13094931  0.61053223  1
  O  O173  1  0.12101472  0.61735143  0.12147509  1
  O  O174  1  0.11807858  0.61892312  0.61966019  1
  O  O175  1  0.61316514  0.11559913  0.12467158  1
  O  O176  1  0.61224606  0.12458883  0.61334590  1
  O  O177  1  0.61751306  0.62120095  0.11806825  1
  O  O178  1  0.61647607  0.61651305  0.62153119  1
  O  O179  1  0.38488427  0.37967459  0.37835006  1
  O  O180  1  0.37790556  0.38268637  0.87774112  1
  O  O181  1  0.38387796  0.87499064  0.37859329  1
  O  O182  1  0.39109082  0.86921394  0.87408850  1
  O  O183  1  0.87985426  0.38731616  0.36875926  1
  O  O184  1  0.87543864  0.38628828  0.88560730  1
  O  O185  1  0.88782229  0.88543964  0.36682918  1
  O  O186  1  0.88647985  0.86807409  0.88680247  1
  O  O187  1  0.25312519  0.00850155  0.37129632  1
  O  O188  1  0.23780930  0.02214969  0.86464569  1
  O  O189  1  0.26463809  0.50764760  0.37825226  1
  O  O190  1  0.25806374  0.50778554  0.88305346  1
  O  O191  1  0.76346094  -0.01183969  0.36318115  1
  O  O192  1  0.73687631  -0.00037428  0.85652055  1
  O  O193  1  0.75645340  0.50442873  0.37706170  1
  O  O194  1  0.76372035  0.50044533  0.88368514  1
  O  O195  1  0.24037211  0.49114545  0.11777071  1
  O  O196  1  0.23717074  0.49891352  0.61974693  1
  O  O197  1  0.24039653  0.99408186  0.13642569  1
  O  O198  1  0.25365442  0.98331676  0.62772716  1
  O  O199  1  0.74019269  0.49311447  0.12701322  1
  O  O200  1  0.73863463  0.49175439  0.61956529  1
  O  O201  1  0.73583594  0.98787974  0.13617730  1
  O  O202  1  0.74311622  0.98653524  0.63528343  1
  O  O203  1  0.00800781  0.37030220  0.25620420  1
  O  O204  1  0.01549256  0.36938007  0.75416637  1
  O  O205  1  0.00665346  0.86631596  0.25374501  1
  O  O206  1  0.00801192  0.86612871  0.75907218  1
  O  O207  1  0.49556032  0.37340124  0.25923999  1
  O  O208  1  0.50627108  0.36941875  0.75440917  1
  O  O209  1  0.51141550  0.87960428  0.25674424  1
  O  O210  1  0.50191178  0.86803576  0.75589331  1
  O  O211  1  0.49100004  0.11938284  0.23960628  1
  O  O212  1  0.49710339  0.13275357  0.74178825  1
  O  O213  1  0.49200299  0.62309550  0.23693524  1
  O  O214  1  0.49091218  0.63022895  0.74206163  1
  O  O215  1  0.99520574  0.13276625  0.25382528  1
  O  O216  1  0.99635241  0.12500459  0.76756164  1
  O  O217  1  0.99401755  0.63058207  0.24943507  1
  O  O218  1  0.99711687  0.62034395  0.73911571  1
  O  O219  1  0.36911028  0.26067769  0.00293483  1
  O  O220  1  0.36992396  0.26496597  0.49359127  1
  O  O221  1  0.36580599  0.75085586  0.01051623  1
  O  O222  1  0.37669501  0.76233866  0.49610833  1
  O  O223  1  0.86530562  0.26588362  0.00608571  1
  O  O224  1  0.85807697  0.24533128  0.48069036  1
  O  O225  1  0.86680520  0.75601966  0.00419019  1
  O  O226  1  0.85785078  0.74720073  0.49221695  1
  O  O227  1  0.13773854  0.24354160  0.49327684  1
  O  O228  1  0.13558751  0.25705122  0.98999037  1
  O  O229  1  0.12706510  0.73385106  0.49945149  1
  O  O230  1  0.12974023  0.73948097  0.99562549  1
  O  O231  1  0.63172512  0.24475128  0.49330086  1
  O  O232  1  0.62866738  0.25357557  0.98655369  1
  O  O233  1  0.63221415  0.74727775  0.48537859  1
  O  O234  1  0.63105515  0.74061825  0.99945172  1
  O  O235  1  0.50096460  0.23492082  0.12512058  1
  O  O236  1  0.50621923  0.24360623  0.63297049  1
  O  O237  1  0.49042891  0.74181854  0.11927540  1
  O  O238  1  0.50362377  0.73913853  0.63766790  1
  O  O239  1  1.00054150  0.25761918  0.13940957  1
  O  O240  1  0.97986061  0.26020237  0.61358487  1
  O  O241  1  0.99901243  0.74211544  0.13764540  1
  O  O242  1  0.99709177  0.74224850  0.63220981  1
  O  O243  1  0.00777350  0.25752367  0.36464328  1
  O  O244  1  0.01475799  0.25100231  0.88813782  1
  O  O245  1  -0.00728147  0.76079393  0.36435814  1
  O  O246  1  0.01103500  0.75800177  0.88370680  1
  O  O247  1  0.51196576  0.26322602  0.37504744  1
  O  O248  1  0.50721228  0.25723193  0.86948951  1
  O  O249  1  0.50737114  0.76127373  0.37606213  1
  O  O250  1  0.50109689  0.74837316  0.86108294  1
  O  O251  1  0.24539822  0.12865678  0.49615685  1
  O  O252  1  0.25898134  0.14050729  0.99498572  1
  O  O253  1  0.24334163  0.62421571  0.49268456  1
  O  O254  1  0.24430538  0.63279506  0.99459465  1
  O  O255  1  0.73241369  0.13148643  0.50064062  1
  O  O256  1  0.73929958  0.14320353  1.01572215  1
  O  O257  1  0.74737385  0.63078774  0.48887024  1
  O  O258  1  0.74086410  0.63145130  1.00089122  1
  O  O259  1  0.25535477  0.36823768  0.00981532  1
  O  O260  1  0.26229414  0.36740915  0.50081594  1
  O  O261  1  0.23602735  0.85450935  0.01074659  1
  O  O262  1  0.26004673  0.87416180  0.50429474  1
  O  O263  1  0.75403294  0.36902433  0.01091385  1
  O  O264  1  0.74582394  0.36392432  0.51160333  1
  O  O265  1  0.75669863  0.86899464  0.00284021  1
  O  O266  1  0.74826145  0.86256184  0.50107471  1
  O  O267  1  0.11957763  0.49551907  0.23655295  1
  O  O268  1  0.12257737  0.49123012  0.74201909  1
  O  O269  1  0.12931300  0.99334142  0.24599492  1
  O  O270  1  0.12666919  0.98540999  0.75486549  1
  O  O271  1  0.62510337  0.50647465  0.23676206  1
  O  O272  1  0.62006114  0.48852367  0.74418458  1
  O  O273  1  0.63144257  0.99232286  0.24667918  1
  O  O274  1  0.62660272  0.98891014  0.74415479  1
  O  O275  1  0.36680830  0.00988974  0.25234721  1
  O  O276  1  0.37726701  0.01501090  0.74749192  1
  O  O277  1  0.37608379  0.51220570  0.25592950  1
  O  O278  1  0.37785173  0.50734405  0.76186798  1
  O  O279  1  0.86804640  0.00178223  0.24987678  1
  O  O280  1  0.85557162  -0.00868741  0.75556091  1
  O  O281  1  0.87587931  0.51087337  0.25855804  1
  O  O282  1  0.88186341  0.49823105  0.76880269  1
  O  O283  1  0.12430843  0.37224291  0.37016965  1
  O  O284  1  0.12543369  0.36482082  0.87057905  1
  O  O285  1  0.11314595  0.88293944  0.36348641  1
  O  O286  1  0.12085418  0.86324111  0.86848847  1
  O  O287  1  0.61147934  0.36958800  0.37403283  1
  O  O288  1  0.62086688  0.37290137  0.86738138  1
  O  O289  1  0.61913144  0.86820717  0.36802341  1
  O  O290  1  0.61099274  0.87156064  0.86354539  1
  O  O291  1  0.38554276  0.12578460  0.13229510  1
  O  O292  1  0.38747128  0.12402794  0.62922015  1
  O  O293  1  0.38012714  0.62806388  0.12976506  1
  O  O294  1  0.38120501  0.61364753  0.63381621  1
  O  O295  1  0.87590433  0.12769531  0.13233613  1
  O  O296  1  0.88129487  0.10761019  0.61777579  1
  O  O297  1  0.87990490  0.62360237  0.13482476  1
  O  O298  1  0.88867062  0.61815607  0.62483929  1
  O  O299  1  0.25263088  0.25889353  0.11765169  1
  O  O300  1  0.25055653  0.25311254  0.61311683  1
  O  O301  1  0.25672461  0.75142175  0.12004625  1
  O  O302  1  0.25280476  0.76401130  0.61948090  1
  O  O303  1  0.74948705  0.25955726  0.12054998  1
  O  O304  1  0.75732665  0.25484719  0.61727984  1
  O  O305  1  0.74811958  0.75460489  0.11504033  1
  O  O306  1  0.74352462  0.75128318  0.60729535  1
  O  O307  1  0.24772186  0.24257194  0.38417921  1
  O  O308  1  0.24343338  0.24523266  0.88317805  1
  O  O309  1  0.25688327  0.73276113  0.37884985  1
  O  O310  1  0.24377813  0.74234979  0.88362806  1
  O  O311  1  0.73099874  0.26083537  0.38125341  1
  O  O312  1  0.73948380  0.25445363  0.88275161  1
  O  O313  1  0.74395465  0.74280173  0.38025042  1
  O  O314  1  0.74388641  0.74861644  0.88956733  1
  O  O315  1  -0.00561952  0.10075661  -0.00132257  1
  O  O316  1  0.02111946  0.12994713  0.48451201  1
  O  O317  1  0.00320777  0.61783795  0.00723799  1
  O  O318  1  0.00738512  0.61886669  0.50533952  1
  O  O319  1  0.49937248  0.12439793  0.01394055  1
  O  O320  1  0.50349891  0.12004871  0.50281580  1
  O  O321  1  0.50447775  0.62201040  0.00904763  1
  O  O322  1  0.49791561  0.63115260  0.51309832  1
  O  O323  1  0.48931956  0.37025806  0.49172774  1
  O  O324  1  0.49440388  0.38084989  0.99464978  1
  O  O325  1  0.49650516  0.88001256  0.49433298  1
  O  O326  1  0.50062601  0.87253833  0.98172664  1
  O  O327  1  1.00357231  0.38270273  0.49268347  1
  O  O328  1  0.99013523  0.38284609  1.00210300  1
  O  O329  1  1.00833134  0.86887298  0.48279439  1
  O  O330  1  0.99454576  0.87297794  0.99647002  1
  O  O331  1  0.49112457  0.48668432  0.37100779  1
  O  O332  1  0.49175712  0.49546022  0.87978271  1
  O  O333  1  0.50100058  0.98733360  0.38100127  1
  O  O334  1  0.50048193  0.98910002  0.87016260  1
  O  O335  1  0.99453181  0.49563689  0.38246343  1
  O  O336  1  0.99309968  0.49782688  0.88888530  1
  O  O337  1  0.98833888  0.98743040  0.37020589  1
  O  O338  1  1.01249483  0.98181973  0.89188339  1
  O  O339  1  0.01297083  -0.01098739  0.11448221  1
  O  O340  1  0.00277612  -0.00725844  0.62426940  1
  O  O341  1  0.00557639  0.50426879  0.11672273  1
  O  O342  1  0.00928264  0.50610035  0.61890763  1
  O  O343  1  0.50819631  0.00950000  0.12715916  1
  O  O344  1  0.50307792  0.00815165  0.61425125  1
  O  O345  1  0.50501280  0.50735035  0.11842762  1
  O  O346  1  0.51099667  0.51080758  0.62943844  1
  O  O347  1  0.24606771  0.37014761  0.23836464  1
  O  O348  1  0.23845332  0.36773263  0.74804276  1
  O  O349  1  0.24349207  0.87786326  0.24987549  1
  O  O350  1  0.24484437  0.87535181  0.74632551  1
  O  O351  1  0.75565359  0.37713939  0.23855625  1
  O  O352  1  0.73972390  0.36879858  0.73929058  1
  O  O353  1  0.73863248  0.87765246  0.24566126  1
  O  O354  1  0.73921850  0.87772371  0.74845535  1
  O  O355  1  0.25662735  0.12089629  0.26038305  1
  O  O356  1  0.26244978  0.12953427  0.75546551  1
  O  O357  1  0.25769309  0.62454770  0.25730662  1
  O  O358  1  0.25772060  0.62983097  0.75476562  1
  O  O359  1  0.75811878  0.11090331  0.24461766  1
  O  O360  1  0.74327326  0.10967772  0.74334307  1
  O  O361  1  0.75672192  0.62276499  0.26148118  1
  O  O362  1  0.75365511  0.63027945  0.75470892  1
  O  O363  1  0.36847597  0.12457148  0.37086748  1
  O  O364  1  0.36885141  0.13318494  0.86515279  1
  O  O365  1  0.37326702  0.61694737  0.36708800  1
  O  O366  1  0.36813092  0.61805967  0.86796028  1
  O  O367  1  0.87908242  0.10587817  0.35696784  1
  O  O368  1  0.85188871  0.12452357  0.91028676  1
  O  O369  1  0.86890979  0.61535102  0.37115455  1
  O  O370  1  0.87444585  0.61068146  0.87851166  1
  O  O371  1  0.13263924  0.38201212  0.12922235  1
  O  O372  1  0.12962521  0.38326389  0.63339605  1
  O  O373  1  0.13166141  0.87661088  0.13950272  1
  O  O374  1  0.13596242  0.86519643  0.63982929  1
  O  O375  1  0.63179264  0.38432583  0.12072945  1
  O  O376  1  0.63104217  0.38177831  0.63082972  1
  O  O377  1  0.62427698  0.87850849  0.13132987  1
  O  O378  1  0.61860396  0.87306082  0.63662063  1
  O  O379  1  0.12122355  0.25519009  0.25737310  1
  O  O380  1  0.12194870  0.25435587  0.76213071  1
  O  O381  1  0.11618580  0.75705416  0.25036401  1
  O  O382  1  0.13020769  0.75192304  0.76302647  1
  O  O383  1  0.62988366  0.24351289  0.26145682  1
  O  O384  1  0.61686974  0.25803478  0.75779659  1
  O  O385  1  0.63002203  0.75705226  0.26157939  1
  O  O386  1  0.61584860  0.75650651  0.75224651  1
  O  O387  1  0.36904989  0.23578371  0.24818768  1
  O  O388  1  0.39021424  0.24497812  0.75260454  1
  O  O389  1  0.37125855  0.73829568  0.23639066  1
  O  O390  1  0.38085899  0.73627704  0.75198689  1
  O  O391  1  0.88384923  0.23865522  0.25167569  1
  O  O392  1  0.88744966  0.24649017  0.76381181  1
  O  O393  1  0.87958275  0.73731694  0.25068913  1
  O  O394  1  0.88247244  0.75241943  0.75334102  1
  O  O395  1  0.37499422  0.48482710  0.49010353  1
  O  O396  1  0.38021131  0.49652543  0.99017295  1
  O  O397  1  0.38805506  0.99303040  0.49606972  1
  O  O398  1  0.32662798  0.98109697  0.99478172  1
  O  O399  1  0.88952223  0.50411424  0.49220148  1
  O  O400  1  0.88049635  0.49300459  0.99708086  1
  O  O401  1  0.86799450  1.00720446  0.48140438  1
  O  O402  1  0.89094680  0.98331327  1.01092420  1
  O  O403  1  0.11985354  -0.00520548  0.01309722  1
  O  O404  1  0.12715115  0.00936455  0.50269624  1
  O  O405  1  0.11652266  0.50267766  0.00807707  1
  O  O406  1  0.11559116  0.50463394  0.50756163  1
  O  O407  1  0.63083380  -0.00170092  0.01153500  1
  O  O408  1  0.61579263  0.00784905  0.49644835  1
  O  O409  1  0.61958624  0.50737008  0.00944606  1
  O  O410  1  0.62305237  0.50083607  0.50874814  1
  O  O411  1  0.36820627  0.37721304  0.12068761  1
  O  O412  1  0.37773268  0.38204916  0.61198852  1
  O  O413  1  0.37021523  0.86727599  0.12562627  1
  O  O414  1  0.37149867  0.87663434  0.61566342  1
  O  O415  1  0.86587276  0.37742897  0.11970879  1
  O  O416  1  0.86312261  0.38874609  0.62712353  1
  O  O417  1  0.86587894  0.86884447  0.12029514  1
  O  O418  1  0.88504324  0.86259907  0.63514753  1
  O  O419  1  0.13905663  0.12814863  0.37964126  1
  O  O420  1  0.13620266  0.14104836  0.87638067  1
  O  O421  1  0.13575297  0.61463714  0.38408089  1
  O  O422  1  0.12812086  0.62800147  0.87960946  1
  O  O423  1  0.61360620  0.14016088  0.38069690  1
  O  O424  1  0.62791551  0.13569655  0.87594445  1
  O  O425  1  0.63034869  0.63023771  0.37367651  1
  O  O426  1  0.62256056  0.62167316  0.88911053  1
