# generated using pymatgen
data_V85Zn86O256
_symmetry_space_group_name_H-M   'P 1'
_cell_length_a   16.96508459
_cell_length_b   16.95696140
_cell_length_c   16.97313099
_cell_angle_alpha   90.05677511
_cell_angle_beta   89.98375631
_cell_angle_gamma   89.94050237
_symmetry_Int_Tables_number   1
_chemical_formula_structural   V85Zn86O256
_chemical_formula_sum   'V85 Zn86 O256'
_cell_volume   4882.76203362
_cell_formula_units_Z   1
loop_
 _symmetry_equiv_pos_site_id
 _symmetry_equiv_pos_as_xyz
  1  'x, y, z'
loop_
 _atom_site_type_symbol
 _atom_site_label
 _atom_site_symmetry_multiplicity
 _atom_site_fract_x
 _atom_site_fract_y
 _atom_site_fract_z
 _atom_site_occupancy
  V  V0  1  0.48944175  0.13023290  0.12325109  1
  V  V1  1  0.36678593  0.87459755  -0.00374300  1
  V  V2  1  0.37934375  0.11424060  0.75169840  1
  V  V3  1  0.74755858  0.00321800  0.25135387  1
  V  V4  1  0.50205178  0.37243437  0.86501186  1
  V  V5  1  0.00201785  0.37749122  0.87304162  1
  V  V6  1  0.00216378  0.50316970  0.00117916  1
  V  V7  1  0.74752366  0.75385314  0.49786803  1
  V  V8  1  0.00158859  0.24927334  0.74656876  1
  V  V9  1  0.64439610  0.37772430  0.74755592  1
  V  V10  1  0.74815945  0.12753600  0.38164742  1
  V  V11  1  0.87391825  0.12265652  0.76165878  1
  V  V12  1  0.50062240  0.49921143  -0.00095767  1
  V  V13  1  0.49730466  0.75297191  0.25028528  1
  V  V14  1  0.87809926  0.12918780  0.25274526  1
  V  V15  1  0.63731183  0.49816832  0.62814205  1
  V  V16  1  0.62764811  0.62489130  0.00071825  1
  V  V17  1  0.87458694  0.50128360  0.87218717  1
  V  V18  1  0.36026727  0.89822811  0.45859777  1
  V  V19  1  0.37476753  0.27628484  0.62958565  1
  V  V20  1  0.12951335  0.22975205  0.37195807  1
  V  V21  1  0.75220453  0.00523333  0.76912835  1
  V  V22  1  0.25365743  0.74504149  0.50218504  1
  V  V23  1  0.75021783  0.87775949  0.12357181  1
  V  V24  1  0.36703459  0.10775043  0.26040455  1
  V  V25  1  0.62602248  0.88014746  0.74588523  1
  V  V26  1  0.00648987  0.11981175  0.61962626  1
  V  V27  1  0.75013833  0.37900909  0.12731708  1
  V  V28  1  0.24590616  0.88275184  0.12758968  1
  V  V29  1  0.24669200  0.25428276  0.50866099  1
  V  V30  1  0.48540636  0.25065566  0.24748260  1
  V  V31  1  0.12839984  0.62980168  0.00161398  1
  V  V32  1  0.62323555  0.63042855  0.50117936  1
  V  V33  1  0.86852600  0.37607024  0.49550093  1
  V  V34  1  0.87316523  0.75022573  0.62275338  1
  V  V35  1  0.50433412  0.74951393  0.75077486  1
  V  V36  1  0.37353154  0.75415348  0.62935720  1
  V  V37  1  0.12591637  0.75753368  0.87375755  1
  V  V38  1  0.62772013  0.37205538  0.25265677  1
  V  V39  1  0.12475187  0.62248436  0.49564684  1
  V  V40  1  0.24954935  0.49715524  0.74734277  1
  V  V41  1  0.87876877  0.75232172  0.12889895  1
  V  V42  1  0.50043054  0.62701214  0.12479424  1
  V  V43  1  0.62699147  0.49996724  0.12796347  1
  V  V44  1  0.61941844  0.87820807  0.25221798  1
  V  V45  1  0.49909577  0.87851118  0.87399130  1
  V  V46  1  0.49555257  0.00194910  -0.00503453  1
  V  V47  1  0.37663442  0.62189237  0.75232105  1
  V  V48  1  0.11646199  0.88107507  0.25870944  1
  V  V49  1  0.75106766  0.24308770  -0.00275535  1
  V  V50  1  0.12863858  0.49317243  0.62092977  1
  V  V51  1  0.50131522  0.62661766  0.62361181  1
  V  V52  1  -0.00038033  0.62208700  0.62328961  1
  V  V53  1  0.61850373  0.24538188  0.37787656  1
  V  V54  1  0.74919443  0.89036335  0.62220814  1
  V  V55  1  0.36475357  0.74935609  0.12043937  1
  V  V56  1  0.74951854  0.62054031  0.87017987  1
  V  V57  1  0.12784837  0.49886911  0.13181204  1
  V  V58  1  0.50069738  -0.00121272  0.49420279  1
  V  V59  1  0.87719499  0.25367106  0.13257577  1
  V  V60  1  0.75137151  0.74962338  0.00003429  1
  V  V61  1  0.12578289  0.12786096  -0.00325159  1
  V  V62  1  0.87037039  0.61072613  0.25442575  1
  V  V63  1  0.37432774  0.62689818  0.25097077  1
  V  V64  1  0.37450298  0.49767137  0.87668529  1
  V  V65  1  0.25469151  0.25055899  0.00451995  1
  V  V66  1  0.13036652  0.37334504  0.74596711  1
  V  V67  1  -0.00187745  0.49343721  0.48875163  1
  V  V68  1  0.62463672  0.75598498  0.37772915  1
  V  V69  1  0.87215565  0.61883695  0.74640636  1
  V  V70  1  0.87568079  0.37647070  0.00081373  1
  V  V71  1  0.86668612  0.25347693  0.62579954  1
  V  V72  1  0.49174275  0.37036801  0.38169340  1
  V  V73  1  0.62860060  0.24435588  0.87095619  1
  V  V74  1  -0.00383248  0.00348344  -0.00846780  1
  V  V75  1  0.49679686  0.49939150  0.50267808  1
  V  V76  1  0.24939080  0.62885696  0.87815507  1
  V  V77  1  0.00332330  0.75634620  0.74798304  1
  V  V78  1  0.87402580  0.88038058  -0.01007331  1
  V  V79  1  0.62256175  0.00570022  0.12521981  1
  V  V80  1  0.88189143  -0.00174695  0.37517369  1
  V  V81  1  0.00075237  0.12890421  0.12624524  1
  V  V82  1  0.37528881  0.50221558  0.37671166  1
  V  V83  1  0.37839297  0.37021341  0.00909260  1
  V  V84  1  0.88375893  0.87680632  0.49518613  1
  Zn  Zn85  1  0.01537905  0.00392024  0.48990827  1
  Zn  Zn86  1  0.00106679  0.62936613  0.12824036  1
  Zn  Zn87  1  0.25075397  0.49667811  0.25130304  1
  Zn  Zn88  1  0.62712902  0.12395973  -0.00578161  1
  Zn  Zn89  1  0.75460050  0.60880321  0.37488729  1
  Zn  Zn90  1  0.24226427  0.87187577  0.63779064  1
  Zn  Zn91  1  0.11969684  0.75759911  0.37984681  1
  Zn  Zn92  1  0.00170235  0.36194071  0.36604106  1
  Zn  Zn93  1  0.25924286  0.12211251  0.87550239  1
  Zn  Zn94  1  0.12788544  0.25252321  0.87495270  1
  Zn  Zn95  1  0.62211272  0.11976057  0.51368450  1
  Zn  Zn96  1  0.13024292  -0.01368194  0.62586484  1
  Zn  Zn97  1  0.00008323  0.88253677  0.86777976  1
  Zn  Zn98  1  0.12654027  0.00385579  0.12519221  1
  Zn  Zn99  1  0.24118048  -0.00984857  0.76014750  1
  Zn  Zn100  1  0.24817525  0.62658947  0.37232737  1
  Zn  Zn101  1  -0.00463859  0.75462909  0.26368813  1
  Zn  Zn102  1  0.74202887  0.25390252  0.50779696  1
  Zn  Zn103  1  0.62665009  0.74927102  0.87540394  1
  Zn  Zn104  1  0.12415490  0.36245716  0.25407884  1
  Zn  Zn105  1  0.25393454  0.37242753  0.13146016  1
  Zn  Zn106  1  0.49983093  0.14428179  0.63285704  1
  Zn  Zn107  1  0.19356062  0.18651365  0.18682364  1
  Zn  Zn108  1  0.19496165  0.18293130  0.68706047  1
  Zn  Zn109  1  0.18598558  0.69302696  0.18948512  1
  Zn  Zn110  1  0.18519157  0.68651095  0.68819080  1
  Zn  Zn111  1  0.68641006  0.18939961  0.18924081  1
  Zn  Zn112  1  0.68501830  0.18451144  0.69091292  1
  Zn  Zn113  1  0.69130433  0.68920969  0.18907929  1
  Zn  Zn114  1  0.68834103  0.69104263  0.68569182  1
  Zn  Zn115  1  0.30265530  0.31010979  0.31836463  1
  Zn  Zn116  1  0.31289613  0.30551621  0.81617421  1
  Zn  Zn117  1  0.29786214  0.82782220  0.31792360  1
  Zn  Zn118  1  0.31529918  0.81198050  0.81470541  1
  Zn  Zn119  1  0.80962731  0.31389807  0.31614683  1
  Zn  Zn120  1  0.81467695  0.31071136  0.81364515  1
  Zn  Zn121  1  0.81010397  0.81393809  0.31225665  1
  Zn  Zn122  1  0.81173802  0.80856217  0.80971775  1
  Zn  Zn123  1  0.19013137  0.42671721  0.43462303  1
  Zn  Zn124  1  0.18929565  0.43765908  0.93877490  1
  Zn  Zn125  1  0.19513610  0.95327113  0.43874185  1
  Zn  Zn126  1  0.18638063  0.94262719  0.93632919  1
  Zn  Zn127  1  0.68518483  0.43541612  0.44223555  1
  Zn  Zn128  1  0.68950289  0.43580567  0.93777260  1
  Zn  Zn129  1  0.68545789  0.94146388  0.43728065  1
  Zn  Zn130  1  0.68173868  0.93655263  0.93834124  1
  Zn  Zn131  1  0.31405977  0.06249888  0.05931302  1
  Zn  Zn132  1  0.30664462  0.06533910  0.57410298  1
  Zn  Zn133  1  0.31066671  0.56069968  0.06216779  1
  Zn  Zn134  1  0.31309598  0.56188925  0.56377754  1
  Zn  Zn135  1  0.81406820  0.06336875  0.06258434  1
  Zn  Zn136  1  0.81980905  0.06732723  0.56394580  1
  Zn  Zn137  1  0.81411106  0.56393268  0.06586160  1
  Zn  Zn138  1  0.81321663  0.56260280  0.55643524  1
  Zn  Zn139  1  0.44167572  0.44015605  0.19123881  1
  Zn  Zn140  1  0.44324141  0.43814347  0.68844874  1
  Zn  Zn141  1  0.43731149  0.93736317  0.18296903  1
  Zn  Zn142  1  0.43622620  0.94635224  0.68282961  1
  Zn  Zn143  1  0.94571052  0.43745795  0.19079411  1
  Zn  Zn144  1  0.93907300  0.43531959  0.68094889  1
  Zn  Zn145  1  0.93805991  0.94183597  0.18336053  1
  Zn  Zn146  1  0.93432438  0.94015973  0.68660480  1
  Zn  Zn147  1  0.06530520  0.06384277  0.30703783  1
  Zn  Zn148  1  0.06749559  0.06344015  0.81074179  1
  Zn  Zn149  1  0.05511845  0.56691714  0.31153866  1
  Zn  Zn150  1  0.06268342  0.56556280  0.81054626  1
  Zn  Zn151  1  0.54903453  0.06381916  0.31874274  1
  Zn  Zn152  1  0.56201093  0.06356786  0.80659012  1
  Zn  Zn153  1  0.59407603  0.54490731  0.33171732  1
  Zn  Zn154  1  0.56531403  0.55880012  0.81125170  1
  Zn  Zn155  1  0.39377021  0.16056549  0.46538332  1
  Zn  Zn156  1  0.44087054  0.19055400  0.93264056  1
  Zn  Zn157  1  0.43163923  0.70790102  0.42995928  1
  Zn  Zn158  1  0.43894815  0.69034158  0.93712334  1
  Zn  Zn159  1  0.93910287  0.19135536  0.43941973  1
  Zn  Zn160  1  0.94002128  0.19239285  0.93762214  1
  Zn  Zn161  1  0.93798461  0.68548401  0.43234224  1
  Zn  Zn162  1  0.93880632  0.69018343  0.93666048  1
  Zn  Zn163  1  0.06401796  0.31300250  0.06604560  1
  Zn  Zn164  1  0.06431846  0.30796848  0.55692500  1
  Zn  Zn165  1  0.06067755  0.81383393  0.05883398  1
  Zn  Zn166  1  0.06327055  0.81281977  0.55956191  1
  Zn  Zn167  1  0.56256201  0.31008709  0.05971811  1
  Zn  Zn168  1  0.56087546  0.31152459  0.56557591  1
  Zn  Zn169  1  0.56171661  0.81444597  0.06272428  1
  Zn  Zn170  1  0.53976909  0.84694286  0.57298881  1
  O  O171  1  0.11540830  0.12772152  0.11735114  1
  O  O172  1  0.10576050  0.13218739  0.62946797  1
  O  O173  1  0.12469959  0.62214761  0.11650398  1
  O  O174  1  0.11867160  0.61661945  0.61459435  1
  O  O175  1  0.61930598  0.11507653  0.12604206  1
  O  O176  1  0.61202985  0.13734649  0.62469170  1
  O  O177  1  0.62383171  0.61737146  0.12232067  1
  O  O178  1  0.61932288  0.62120007  0.62108402  1
  O  O179  1  0.38730683  0.38562872  0.36589041  1
  O  O180  1  0.38536263  0.37886870  0.88121282  1
  O  O181  1  0.38493621  0.82088761  0.39001618  1
  O  O182  1  0.39074103  0.86535195  0.88497589  1
  O  O183  1  0.87992126  0.36573613  0.39068505  1
  O  O184  1  0.88173492  0.38331078  0.87919453  1
  O  O185  1  0.86448839  0.88781423  0.38283472  1
  O  O186  1  0.87606251  0.86653797  0.88779036  1
  O  O187  1  0.29235379  -0.06233611  0.38535544  1
  O  O188  1  0.24713007  0.00886779  0.87555722  1
  O  O189  1  0.26630901  0.50212568  0.37688856  1
  O  O190  1  0.25467912  0.50867342  0.86932294  1
  O  O191  1  0.75482878  0.01099463  0.36868530  1
  O  O192  1  0.75084324  -0.00317338  0.86746343  1
  O  O193  1  0.70168260  0.50972636  0.36333922  1
  O  O194  1  0.75816411  0.51296101  0.88233121  1
  O  O195  1  0.24122631  0.49715933  0.12638652  1
  O  O196  1  0.23639956  0.50528600  0.63131316  1
  O  O197  1  0.24982462  0.98522738  0.11885035  1
  O  O198  1  0.25126090  0.99170237  0.63535669  1
  O  O199  1  0.74264348  0.48727224  0.11942551  1
  O  O200  1  0.73589560  0.50642245  0.61939665  1
  O  O201  1  0.74206803  0.99885380  0.13111431  1
  O  O202  1  0.75475345  0.99153425  0.62831530  1
  O  O203  1  0.00904707  0.37442867  0.25179633  1
  O  O204  1  0.00821790  0.36973117  0.75295398  1
  O  O205  1  0.01331854  0.87487115  0.23975366  1
  O  O206  1  -0.01311548  0.86024641  0.75124500  1
  O  O207  1  0.50856892  0.36764938  0.25407106  1
  O  O208  1  0.50999535  0.38155009  0.76329748  1
  O  O209  1  0.51222342  0.86844325  0.23959619  1
  O  O210  1  0.50848459  0.87369072  0.75686176  1
  O  O211  1  0.49406685  0.13318279  0.24088206  1
  O  O212  1  0.48762233  0.12639736  0.75129606  1
  O  O213  1  0.48857891  0.63370631  0.24020796  1
  O  O214  1  0.49819496  0.62941530  0.74571367  1
  O  O215  1  0.98544889  0.12170977  0.24141118  1
  O  O216  1  0.99191235  0.13410638  0.74537279  1
  O  O217  1  0.98415478  0.63083763  0.24677132  1
  O  O218  1  0.99216778  0.63231759  0.74284183  1
  O  O219  1  0.37011282  0.25993102  -0.00302786  1
  O  O220  1  0.37197903  0.25970504  0.52113442  1
  O  O221  1  0.38536794  0.76099364  0.01156672  1
  O  O222  1  0.36226632  0.72612465  0.51845398  1
  O  O223  1  0.86939662  0.25703168  0.00922398  1
  O  O224  1  0.87130822  0.25930513  0.50852706  1
  O  O225  1  0.86884921  0.75596611  0.00688397  1
  O  O226  1  0.86583642  0.75699830  0.50209882  1
  O  O227  1  0.13949373  0.24495864  0.49918518  1
  O  O228  1  0.13027207  0.24455336  0.99880551  1
  O  O229  1  0.13513795  0.73783036  0.50376449  1
  O  O230  1  0.11705290  0.73559925  0.99112962  1
  O  O231  1  0.62376169  0.24858539  0.48991704  1
  O  O232  1  0.63559963  0.25053831  0.99173534  1
  O  O233  1  0.62981496  0.75461548  0.49269560  1
  O  O234  1  0.63303580  0.74418542  1.00060832  1
  O  O235  1  0.50780766  0.24024058  0.13339271  1
  O  O236  1  0.48154787  0.26356140  0.62851956  1
  O  O237  1  0.49601489  0.74604763  0.13261084  1
  O  O238  1  0.49507174  0.74632821  0.63140115  1
  O  O239  1  0.98845049  0.24004146  0.11838509  1
  O  O240  1  0.99229233  0.24497041  0.63400947  1
  O  O241  1  0.98606256  0.74998474  0.12098856  1
  O  O242  1  0.99188018  0.74167526  0.62910119  1
  O  O243  1  0.02161473  0.24534447  0.38687458  1
  O  O244  1  0.00068150  0.25934538  0.86197520  1
  O  O245  1  0.00657489  0.75185283  0.37765933  1
  O  O246  1  0.00746067  0.74960559  0.86498975  1
  O  O247  1  0.50563293  0.25839734  0.36587195  1
  O  O248  1  0.51623109  0.26434813  0.88428395  1
  O  O249  1  0.51177341  0.74593771  0.35583362  1
  O  O250  1  0.50490928  0.75658518  0.86736433  1
  O  O251  1  0.27999289  0.14555844  0.49818273  1
  O  O252  1  0.24264529  0.13219791  1.00201896  1
  O  O253  1  0.24004105  0.62705030  0.49956864  1
  O  O254  1  0.24096696  0.61990100  0.99008847  1
  O  O255  1  0.74871699  0.12652154  0.48998852  1
  O  O256  1  0.74847176  0.13926554  1.00667630  1
  O  O257  1  0.74353075  0.63632749  0.49699229  1
  O  O258  1  0.74571004  0.62964549  0.99499935  1
  O  O259  1  0.26269095  0.37020978  -0.00090729  1
  O  O260  1  0.25506444  0.35623187  0.49663654  1
  O  O261  1  0.26258998  0.87615090  0.00629654  1
  O  O262  1  0.27390283  0.85782801  0.51352495  1
  O  O263  1  0.75713586  0.36857942  0.00853468  1
  O  O264  1  0.76279560  0.37383899  0.49820308  1
  O  O265  1  0.75472267  0.87146667  0.00423364  1
  O  O266  1  0.75348508  0.87192305  0.50687815  1
  O  O267  1  0.12546236  0.51169607  0.23656691  1
  O  O268  1  0.12691913  0.49398538  0.74119247  1
  O  O269  1  0.12094984  0.98702493  0.24050130  1
  O  O270  1  0.12588450  1.00626518  0.74000420  1
  O  O271  1  0.61100482  0.48746274  0.23191017  1
  O  O272  1  0.62476767  0.48904342  0.74200312  1
  O  O273  1  0.62451178  0.99576746  0.24530806  1
  O  O274  1  0.64011113  0.99243750  0.75507264  1
  O  O275  1  0.38155793  0.00828458  0.24825046  1
  O  O276  1  0.37768343  0.01088643  0.75335424  1
  O  O277  1  0.37793232  0.51090675  0.25804467  1
  O  O278  1  0.37191462  0.50440407  0.75821479  1
  O  O279  1  0.86737495  0.00766331  0.25502260  1
  O  O280  1  0.86204066  0.00714060  0.75049391  1
  O  O281  1  0.87223718  0.51282760  0.23929872  1
  O  O282  1  0.88301365  0.51239754  0.75172754  1
  O  O283  1  0.12142545  0.36154587  0.37469881  1
  O  O284  1  0.11650833  0.37777206  0.86751928  1
  O  O285  1  0.12856496  0.88173142  0.35971542  1
  O  O286  1  0.12032940  0.85945542  0.88769024  1
  O  O287  1  0.61582887  0.36472149  0.36730812  1
  O  O288  1  0.62222674  0.37473580  0.86517968  1
  O  O289  1  0.63066373  0.86649319  0.36413151  1
  O  O290  1  0.61669978  0.87133229  0.86694566  1
  O  O291  1  0.38728073  0.12114414  0.12932674  1
  O  O292  1  0.38263513  0.12954930  0.64103421  1
  O  O293  1  0.37835161  0.63267766  0.12711819  1
  O  O294  1  0.38393991  0.62528937  0.63650618  1
  O  O295  1  0.87777325  0.13459126  0.13296614  1
  O  O296  1  0.88278177  0.13493811  0.63615656  1
  O  O297  1  0.87417685  0.63598012  0.13328728  1
  O  O298  1  0.87795074  0.62862533  0.62935042  1
  O  O299  1  0.24584635  0.25541105  0.10969490  1
  O  O300  1  0.25646953  0.25099005  0.61741818  1
  O  O301  1  0.26066247  0.75851949  0.12400202  1
  O  O302  1  0.25869377  0.74270787  0.62205873  1
  O  O303  1  0.75504617  0.26057391  0.11950072  1
  O  O304  1  0.76328969  0.24531964  0.62656373  1
  O  O305  1  0.75759147  0.75762981  0.11848334  1
  O  O306  1  0.75489996  0.75764965  0.61414389  1
  O  O307  1  0.23891089  0.24688487  0.38759217  1
  O  O308  1  0.24540487  0.24720924  0.88959166  1
  O  O309  1  0.23974442  0.74647539  0.38857093  1
  O  O310  1  0.24210929  0.73571793  0.87107655  1
  O  O311  1  0.73865276  0.24224222  0.37664649  1
  O  O312  1  0.74299132  0.25897269  0.88709350  1
  O  O313  1  0.74388061  0.75298707  0.38710536  1
  O  O314  1  0.75034657  0.73760423  0.88164353  1
  O  O315  1  0.00337751  0.12273294  0.00583881  1
  O  O316  1  -0.01073224  0.12176604  0.51698334  1
  O  O317  1  0.00614405  0.61683328  -0.00003466  1
  O  O318  1  0.00359698  0.61477480  0.50525830  1
  O  O319  1  0.50191861  0.11918108  0.00561364  1
  O  O320  1  0.49109262  0.10754496  0.50953524  1
  O  O321  1  0.50863512  0.62075056  0.00414065  1
  O  O322  1  0.50676496  0.62202747  0.50499022  1
  O  O323  1  0.50739485  0.38585746  0.48954375  1
  O  O324  1  0.49601114  0.38121221  0.99356691  1
  O  O325  1  0.47076701  0.87979552  0.48793732  1
  O  O326  1  0.49596035  0.88276736  0.99370459  1
  O  O327  1  0.99037885  0.38030911  0.50004889  1
  O  O328  1  0.99511587  0.38324119  0.99477658  1
  O  O329  1  0.98538478  0.87737079  0.50206640  1
  O  O330  1  0.98983837  0.88631783  0.99995661  1
  O  O331  1  0.49611030  0.49437771  0.38254068  1
  O  O332  1  0.49624463  0.49423167  0.88214718  1
  O  O333  1  0.49743297  0.99472639  0.39070437  1
  O  O334  1  0.50883668  0.99114326  0.88460081  1
  O  O335  1  1.00289293  0.49692532  0.38768888  1
  O  O336  1  0.99595756  0.49853501  0.88365536  1
  O  O337  1  0.98496234  1.00857279  0.37383466  1
  O  O338  1  1.00112534  1.00097254  0.88720623  1
  O  O339  1  -0.00380275  0.01637179  0.11442345  1
  O  O340  1  -0.00459730  0.01434394  0.62534330  1
  O  O341  1  0.00718102  0.50483602  0.11280907  1
  O  O342  1  0.01064718  0.50509767  0.61794858  1
  O  O343  1  0.50729216  0.00678957  0.11627904  1
  O  O344  1  0.51015269  -0.03478538  0.60157801  1
  O  O345  1  0.50611037  0.50743420  0.11688711  1
  O  O346  1  0.50633920  0.50731876  0.61876698  1
  O  O347  1  0.24399363  0.37910863  0.24788325  1
  O  O348  1  0.23537808  0.38123355  0.76058795  1
  O  O349  1  0.23620774  0.87139313  0.23295307  1
  O  O350  1  0.25351388  0.87403790  0.75213507  1
  O  O351  1  0.73577703  0.36920632  0.24327882  1
  O  O352  1  0.74276641  0.38211560  0.75521257  1
  O  O353  1  0.73818880  0.88200129  0.24299773  1
  O  O354  1  0.74699167  0.88431683  0.74544865  1
  O  O355  1  0.26876176  0.12303708  0.24237576  1
  O  O356  1  0.26457000  0.12436401  0.75402284  1
  O  O357  1  0.26319531  0.62604231  0.25007906  1
  O  O358  1  0.25526411  0.61652797  0.75779887  1
  O  O359  1  0.75826668  0.12290428  0.25752935  1
  O  O360  1  0.75617056  0.11095494  0.75018616  1
  O  O361  1  0.76636243  0.63295783  0.25216103  1
  O  O362  1  0.75864495  0.62994058  0.75851411  1
  O  O363  1  0.38361330  0.12443408  0.35746375  1
  O  O364  1  0.37642959  0.13829579  0.85777386  1
  O  O365  1  0.37699770  0.62082405  0.36520852  1
  O  O366  1  0.36853177  0.62046051  0.87283445  1
  O  O367  1  0.86691067  0.12448680  0.36918696  1
  O  O368  1  0.87701305  0.13561653  0.86077546  1
  O  O369  1  0.87086480  0.62164419  0.36124138  1
  O  O370  1  0.86976020  0.62101913  0.86676278  1
  O  O371  1  0.12708292  0.38826705  0.12342817  1
  O  O372  1  0.11807873  0.38314946  0.63329861  1
  O  O373  1  0.13814188  0.87421921  0.11940061  1
  O  O374  1  0.12748239  0.86820625  0.62790907  1
  O  O375  1  0.63175999  0.37910527  0.12907682  1
  O  O376  1  0.62415461  0.38156794  0.64007350  1
  O  O377  1  0.62964030  0.88757754  0.12902533  1
  O  O378  1  0.63623095  0.86727445  0.63953527  1
  O  O379  1  0.13281539  0.24177208  0.26599639  1
  O  O380  1  0.11860399  0.25736118  0.74966590  1
  O  O381  1  0.12001176  0.76540301  0.24944484  1
  O  O382  1  0.11271503  0.73899254  0.76059208  1
  O  O383  1  0.61706385  0.25605125  0.25677440  1
  O  O384  1  0.63575027  0.26648762  0.76010265  1
  O  O385  1  0.62087739  0.75913522  0.25295669  1
  O  O386  1  0.62099220  0.75857356  0.75285835  1
  O  O387  1  0.38436774  0.25055835  0.25157933  1
  O  O388  1  0.36581648  0.24989175  0.73425893  1
  O  O389  1  0.38169021  0.74713908  0.23887699  1
  O  O390  1  0.38413824  0.73796091  0.74816313  1
  O  O391  1  0.86731489  0.24451701  0.23983097  1
  O  O392  1  0.88201439  0.24778740  0.74368015  1
  O  O393  1  0.87584283  0.75387541  0.24024228  1
  O  O394  1  0.87952208  0.73842445  0.74307403  1
  O  O395  1  0.38900160  0.50850147  0.49318503  1
  O  O396  1  0.38087334  0.49428012  0.99323195  1
  O  O397  1  0.38010916  0.99392097  0.50398050  1
  O  O398  1  0.38822973  0.99015160  1.00462533  1
  O  O399  1  0.88266509  0.48539267  0.50581349  1
  O  O400  1  0.88392881  0.49656755  0.99680728  1
  O  O401  1  0.87376119  0.99289497  0.49064384  1
  O  O402  1  0.88037075  0.99152826  1.00357908  1
  O  O403  1  0.11409931  0.00970968  0.00593807  1
  O  O404  1  0.12537658  -0.00424391  0.50853435  1
  O  O405  1  0.11925761  0.50915286  0.00530477  1
  O  O406  1  0.12035907  0.50118781  0.50534197  1
  O  O407  1  0.61696177  0.00312727  0.00819464  1
  O  O408  1  0.61073784  0.00425629  0.49288775  1
  O  O409  1  0.62132260  0.50297440  0.00995883  1
  O  O410  1  0.61359958  0.50634621  0.51063687  1
  O  O411  1  0.37904655  0.38282377  0.11165334  1
  O  O412  1  0.36661597  0.37623420  0.63460021  1
  O  O413  1  0.36490877  0.86908791  0.11956650  1
  O  O414  1  0.37776975  0.85500660  0.63670543  1
  O  O415  1  0.86867563  0.37019647  0.12317966  1
  O  O416  1  0.87952665  0.36410307  0.61360496  1
  O  O417  1  0.86789605  0.87068052  0.11748808  1
  O  O418  1  0.86624767  0.87015391  0.61648322  1
  O  O419  1  0.12668186  0.12912634  0.37586073  1
  O  O420  1  0.11888395  0.13157445  0.89047784  1
  O  O421  1  0.12572866  0.61998524  0.38807122  1
  O  O422  1  0.13217402  0.62895787  0.88111987  1
  O  O423  1  0.62997403  0.13381379  0.37283614  1
  O  O424  1  0.62249261  0.14073064  0.87323167  1
  O  O425  1  0.62337943  0.64540189  0.38364139  1
  O  O426  1  0.63396867  0.62366224  0.88043346  1
