# generated using pymatgen
data_V85Zn86O256
_symmetry_space_group_name_H-M   'P 1'
_cell_length_a   16.92676432
_cell_length_b   16.93459554
_cell_length_c   16.92611527
_cell_angle_alpha   89.98991997
_cell_angle_beta   89.91894354
_cell_angle_gamma   89.97832129
_symmetry_Int_Tables_number   1
_chemical_formula_structural   V85Zn86O256
_chemical_formula_sum   'V85 Zn86 O256'
_cell_volume   4851.83025020
_cell_formula_units_Z   1
loop_
 _symmetry_equiv_pos_site_id
 _symmetry_equiv_pos_as_xyz
  1  'x, y, z'
loop_
 _atom_site_type_symbol
 _atom_site_label
 _atom_site_symmetry_multiplicity
 _atom_site_fract_x
 _atom_site_fract_y
 _atom_site_fract_z
 _atom_site_occupancy
  V  V0  1  0.37043298  0.87305762  0.00570839  1
  V  V1  1  0.25241039  0.50650557  0.24407662  1
  V  V2  1  0.88224036  0.12568729  0.25246403  1
  V  V3  1  0.11701342  0.62629827  0.01645571  1
  V  V4  1  0.25168405  0.12531058  0.37616164  1
  V  V5  1  0.37424644  0.62717560  0.75421759  1
  V  V6  1  0.11868557  0.37528735  0.74324983  1
  V  V7  1  0.25327771  0.37932585  0.61941647  1
  V  V8  1  0.75291138  -0.00204913  0.25010792  1
  V  V9  1  0.61524888  0.36908924  0.76345416  1
  V  V10  1  0.25520660  0.25539002  0.49845996  1
  V  V11  1  0.87385986  -0.01352015  0.88123503  1
  V  V12  1  0.62679132  0.00033687  0.12394332  1
  V  V13  1  0.12188590  0.24997913  0.86664087  1
  V  V14  1  0.37581485  0.26081013  0.12081460  1
  V  V15  1  0.49982044  0.49960793  0.00105236  1
  V  V16  1  0.12416981  0.74738511  0.37324124  1
  V  V17  1  0.38027974  -0.00314941  0.37504226  1
  V  V18  1  0.50587422  0.86843769  0.87700113  1
  V  V19  1  0.74946491  0.50064126  0.75123519  1
  V  V20  1  0.87410961  0.25019725  0.12991844  1
  V  V21  1  0.62425606  0.62561472  0.00371575  1
  V  V22  1  0.62501634  0.75412181  0.37831086  1
  V  V23  1  0.12344846  0.37383129  0.24295779  1
  V  V24  1  0.12660450  0.12976359  -0.00243536  1
  V  V25  1  0.12416089  -0.00704828  0.62494611  1
  V  V26  1  0.74845933  0.75681194  0.00265938  1
  V  V27  1  0.23677911  0.62891431  0.87557770  1
  V  V28  1  0.87451139  0.37502405  0.00149828  1
  V  V29  1  0.88015993  0.74898093  0.12773459  1
  V  V30  1  0.00271096  0.12883199  0.12660278  1
  V  V31  1  0.24360879  0.75133125  0.00141589  1
  V  V32  1  0.49843582  0.12479101  0.12727047  1
  V  V33  1  0.50119056  0.25170190  0.25054209  1
  V  V34  1  0.62425097  0.25029253  0.37422023  1
  V  V35  1  0.75015456  0.12577020  0.37535179  1
  V  V36  1  0.12064712  0.51053246  0.62122939  1
  V  V37  1  0.88599579  0.74952059  0.61821752  1
  V  V38  1  0.75660065  0.87388097  0.61646908  1
  V  V39  1  0.74930121  0.37544781  0.62677695  1
  V  V40  1  0.87491074  0.49910428  0.87438980  1
  V  V41  1  0.38140377  0.87229592  0.49813786  1
  V  V42  1  0.75000973  0.25017893  0.50206323  1
  V  V43  1  0.62751395  0.39228891  0.25159528  1
  V  V44  1  0.00366894  0.50075917  0.01265527  1
  V  V45  1  -0.00108874  0.37228677  0.87130968  1
  V  V46  1  0.74730126  0.38538574  0.13052223  1
  V  V47  1  0.37487347  -0.00011990  0.87061268  1
  V  V48  1  0.50006428  -0.00139004  0.50089141  1
  V  V49  1  0.62368175  0.12476735  0.50259342  1
  V  V50  1  0.86874322  0.11933127  0.75284920  1
  V  V51  1  0.50131124  0.62267532  0.13606203  1
  V  V52  1  0.63580086  0.87322673  0.75319066  1
  V  V53  1  0.00059012  0.12762512  0.63020521  1
  V  V54  1  0.50063353  -0.00558272  0.00166771  1
  V  V55  1  0.49503080  0.12488670  0.63535687  1
  V  V56  1  0.74384256  0.24761354  -0.00566931  1
  V  V57  1  0.25352101  0.26029353  -0.00443554  1
  V  V58  1  0.37594858  0.75175299  0.62820937  1
  V  V59  1  -0.00320900  0.36751240  0.37431148  1
  V  V60  1  0.11957382  0.87096339  0.76985068  1
  V  V61  1  0.12575503  0.12384362  0.50037544  1
  V  V62  1  -0.00669968  0.87409188  0.36682785  1
  V  V63  1  0.12748761  0.87373778  0.24367181  1
  V  V64  1  0.88069904  0.25283911  0.63038705  1
  V  V65  1  0.74322170  0.62943548  0.87537657  1
  V  V66  1  0.88413722  0.62683704  0.74743043  1
  V  V67  1  0.48929917  0.37452840  0.38112267  1
  V  V68  1  0.37475993  0.24846356  0.63272610  1
  V  V69  1  -0.00468335  -0.00586928  0.49923545  1
  V  V70  1  0.25109992  -0.00233711  0.24798743  1
  V  V71  1  0.50767404  0.74893160  0.75328988  1
  V  V72  1  0.25134299  0.00438709  0.74974759  1
  V  V73  1  0.12947942  0.00085451  0.12311450  1
  V  V74  1  0.87477738  -0.00194482  0.37688806  1
  V  V75  1  0.37387712  0.74735974  0.13064550  1
  V  V76  1  0.87552832  0.60881731  0.24867620  1
  V  V77  1  -0.00686499  0.50711731  0.49391883  1
  V  V78  1  0.75070760  0.60879095  0.37088334  1
  V  V79  1  0.62278551  0.50071863  0.62512800  1
  V  V80  1  0.61456792  0.87527619  0.25530594  1
  V  V81  1  0.63166247  -0.00109124  0.63024375  1
  V  V82  1  0.37435475  0.49822002  0.87991094  1
  V  V83  1  0.49001680  0.49933103  0.50357058  1
  V  V84  1  0.24991704  0.74971131  0.50017073  1
  Zn  Zn85  1  0.50184513  0.62519884  0.62709000  1
  Zn  Zn86  1  0.75317329  0.87522820  0.12264176  1
  Zn  Zn87  1  0.62098299  0.12959388  -0.00838675  1
  Zn  Zn88  1  0.49738589  0.24666286  0.76823709  1
  Zn  Zn89  1  0.24809063  0.50271447  0.74906424  1
  Zn  Zn90  1  0.00073265  -0.00327706  -0.01006053  1
  Zn  Zn91  1  0.49155903  0.74960235  0.26113449  1
  Zn  Zn92  1  0.75617067  0.74919832  0.49567084  1
  Zn  Zn93  1  0.37266296  0.50697933  0.37386448  1
  Zn  Zn94  1  0.62765809  0.62643235  0.50073543  1
  Zn  Zn95  1  0.24711735  0.38289949  0.11920155  1
  Zn  Zn96  1  0.74196653  0.12311679  0.86711660  1
  Zn  Zn97  1  0.00167990  0.73679701  0.24610367  1
  Zn  Zn98  1  0.87219694  0.37919925  0.49489604  1
  Zn  Zn99  1  0.24982189  0.87430616  0.62851033  1
  Zn  Zn100  1  0.25922430  0.62801199  0.36922783  1
  Zn  Zn101  1  0.25389178  0.12856587  0.86924144  1
  Zn  Zn102  1  0.37244731  0.12799417  0.24803107  1
  Zn  Zn103  1  0.00122064  0.75280973  0.76500218  1
  Zn  Zn104  1  0.12409283  0.24877228  0.37100218  1
  Zn  Zn105  1  0.43981038  0.33636159  -0.06506246  1
  Zn  Zn106  1  0.12152493  0.62812647  0.50003126  1
  Zn  Zn107  1  0.19031736  0.19293588  0.18776025  1
  Zn  Zn108  1  0.18693797  0.18709872  0.68598984  1
  Zn  Zn109  1  0.18849515  0.68934692  0.18458276  1
  Zn  Zn110  1  0.18644139  0.69143404  0.68911216  1
  Zn  Zn111  1  0.68888761  0.18905064  0.18561994  1
  Zn  Zn112  1  0.68545533  0.18999237  0.68943482  1
  Zn  Zn113  1  0.68749208  0.68571300  0.19090587  1
  Zn  Zn114  1  0.69297241  0.68928010  0.68656892  1
  Zn  Zn115  1  0.30984758  0.31577388  0.30707303  1
  Zn  Zn116  1  0.30585966  0.31527530  0.80529366  1
  Zn  Zn117  1  0.31235058  0.81492746  0.31523882  1
  Zn  Zn118  1  0.31038551  0.81497786  0.81655072  1
  Zn  Zn119  1  0.81173421  0.31523729  0.31190667  1
  Zn  Zn120  1  0.81249511  0.30989683  0.80953726  1
  Zn  Zn121  1  0.80957488  0.80808343  0.30734032  1
  Zn  Zn122  1  0.81526898  0.80685452  0.81267994  1
  Zn  Zn123  1  0.18396989  0.43995931  0.43160210  1
  Zn  Zn124  1  0.18510793  0.44291343  0.93527000  1
  Zn  Zn125  1  0.18764089  0.93331005  0.43568483  1
  Zn  Zn126  1  0.19186655  0.94020097  0.94194770  1
  Zn  Zn127  1  0.68076618  0.43600033  0.44126157  1
  Zn  Zn128  1  0.68691952  0.44070962  0.94297901  1
  Zn  Zn129  1  0.68730206  0.93613063  0.43907301  1
  Zn  Zn130  1  0.69117378  0.94266085  0.93384747  1
  Zn  Zn131  1  0.31199393  0.06788213  0.05978394  1
  Zn  Zn132  1  0.31293958  0.06264178  0.56401566  1
  Zn  Zn133  1  0.31263307  0.56548854  0.06443294  1
  Zn  Zn134  1  0.31112957  0.56714598  0.56316085  1
  Zn  Zn135  1  0.81475130  0.06178442  0.06080027  1
  Zn  Zn136  1  0.81268025  0.06155974  0.56463271  1
  Zn  Zn137  1  0.81481068  0.56522356  0.06263103  1
  Zn  Zn138  1  0.81296416  0.56684681  0.56103018  1
  Zn  Zn139  1  0.43779649  0.44026666  0.18907816  1
  Zn  Zn140  1  0.43465722  0.43750704  0.69083168  1
  Zn  Zn141  1  0.43567219  0.93571255  0.18788306  1
  Zn  Zn142  1  0.44026609  0.93495193  0.68786090  1
  Zn  Zn143  1  0.93820226  0.43424272  0.19249618  1
  Zn  Zn144  1  0.93902356  0.44082922  0.68301520  1
  Zn  Zn145  1  0.98049733  0.89072248  0.13259512  1
  Zn  Zn146  1  0.93645288  0.93699337  0.69155950  1
  Zn  Zn147  1  0.06328333  0.06328521  0.31148163  1
  Zn  Zn148  1  0.05886160  0.06120096  0.81058778  1
  Zn  Zn149  1  0.06414840  0.55684918  0.31119430  1
  Zn  Zn150  1  0.06091867  0.55765850  0.81443286  1
  Zn  Zn151  1  0.56230643  0.06304306  0.31198758  1
  Zn  Zn152  1  0.56473305  0.05891875  0.81363077  1
  Zn  Zn153  1  0.55889133  0.56637036  0.32120667  1
  Zn  Zn154  1  0.56232269  0.55923874  0.81609986  1
  Zn  Zn155  1  0.43530782  0.18756835  0.44285070  1
  Zn  Zn156  1  0.43972881  0.17454085  0.93792112  1
  Zn  Zn157  1  0.44074549  0.68254492  0.43825200  1
  Zn  Zn158  1  0.43547569  0.68608709  0.94037296  1
  Zn  Zn159  1  0.93747617  0.18848457  0.44304207  1
  Zn  Zn160  1  0.93756646  0.18778454  0.93878178  1
  Zn  Zn161  1  0.93408310  0.68528324  0.43032045  1
  Zn  Zn162  1  0.93028669  0.68384535  0.93975487  1
  Zn  Zn163  1  0.06051045  0.31133584  0.06107474  1
  Zn  Zn164  1  0.06452751  0.31415520  0.55607961  1
  Zn  Zn165  1  0.04776411  0.81309718  -0.04698633  1
  Zn  Zn166  1  0.05878526  0.81416920  0.55933992  1
  Zn  Zn167  1  0.56710136  0.31576291  0.06799214  1
  Zn  Zn168  1  0.56048833  0.31377918  0.56597255  1
  Zn  Zn169  1  0.56542071  0.80819108  0.06679840  1
  Zn  Zn170  1  0.56434586  0.81112794  0.56336869  1
  O  O171  1  0.12118617  0.12716633  0.11863485  1
  O  O172  1  0.11782479  0.11423793  0.62270058  1
  O  O173  1  0.11955068  0.62639248  0.11485347  1
  O  O174  1  0.12796770  0.61400764  0.62537030  1
  O  O175  1  0.61827979  0.11443147  0.12519081  1
  O  O176  1  0.62081466  0.11711701  0.62229865  1
  O  O177  1  0.61061268  0.62841735  0.11984833  1
  O  O178  1  0.62708495  0.61102154  0.62928120  1
  O  O179  1  0.38733829  0.37491036  0.37191603  1
  O  O180  1  0.36369464  0.39267779  0.86984717  1
  O  O181  1  0.37389325  0.88462809  0.38488284  1
  O  O182  1  0.38184745  0.88084578  0.88612231  1
  O  O183  1  0.88994211  0.37026394  0.37437032  1
  O  O184  1  0.88142700  0.37762117  0.87730220  1
  O  O185  1  0.88706732  0.87880720  0.36426321  1
  O  O186  1  0.87234486  0.88801191  0.86940399  1
  O  O187  1  0.25846999  0.00662757  0.37138917  1
  O  O188  1  0.25714723  0.00047571  0.86748931  1
  O  O189  1  0.25098398  0.50270197  0.36375870  1
  O  O190  1  0.25560703  0.51197179  0.87312250  1
  O  O191  1  0.75408182  0.00617272  0.37037751  1
  O  O192  1  0.76733029  0.00699095  0.87733102  1
  O  O193  1  0.74463322  0.50992818  0.37900792  1
  O  O194  1  0.75598436  0.50464006  0.87023069  1
  O  O195  1  0.25205986  0.49899375  0.13630006  1
  O  O196  1  0.24182483  0.49376825  0.62347125  1
  O  O197  1  0.24057312  1.01142349  0.13440461  1
  O  O198  1  0.24173556  0.99774561  0.63082995  1
  O  O199  1  0.75357956  0.48376274  0.11681140  1
  O  O200  1  0.74485989  0.49323298  0.62967649  1
  O  O201  1  0.74400645  0.99972510  0.13194086  1
  O  O202  1  0.74200246  0.99154173  0.62343375  1
  O  O203  1  0.01007347  0.37915588  0.26270526  1
  O  O204  1  0.00990578  0.37856417  0.75470453  1
  O  O205  1  0.01175554  0.87250576  0.25116038  1
  O  O206  1  0.01795314  0.87840580  0.74874085  1
  O  O207  1  0.51008918  0.37145251  0.25653695  1
  O  O208  1  0.51202778  0.37445029  0.74942370  1
  O  O209  1  0.51111575  0.87527093  0.25055287  1
  O  O210  1  0.50840896  0.86685373  0.75725433  1
  O  O211  1  0.49819318  0.13011052  0.23994866  1
  O  O212  1  0.50368657  0.12643072  0.73841466  1
  O  O213  1  0.50335304  0.62694395  0.23914843  1
  O  O214  1  0.49388184  0.63333972  0.75319915  1
  O  O215  1  0.98971688  0.12473710  0.24545726  1
  O  O216  1  0.99171441  0.12290079  0.73560524  1
  O  O217  1  0.98177500  0.62096131  0.26079890  1
  O  O218  1  0.98698970  0.62374950  0.75527228  1
  O  O219  1  0.36860358  0.25340088  0.00241292  1
  O  O220  1  0.36179932  0.24690749  0.51136918  1
  O  O221  1  0.36888724  0.75581142  0.00808647  1
  O  O222  1  0.37124662  0.75643365  0.50538696  1
  O  O223  1  0.86845145  0.25497256  0.01068343  1
  O  O224  1  0.86667312  0.25038347  0.51281548  1
  O  O225  1  0.86072712  0.73270395  0.01924156  1
  O  O226  1  0.87838985  0.74594269  0.51404093  1
  O  O227  1  0.13780309  0.24059828  0.49978930  1
  O  O228  1  0.12947643  0.24663395  0.98818481  1
  O  O229  1  0.13179052  0.75211363  0.49265228  1
  O  O230  1  0.13082404  0.73524468  0.99864798  1
  O  O231  1  0.63014912  0.24545460  0.49612253  1
  O  O232  1  0.64037985  0.25033614  1.00789543  1
  O  O233  1  0.63014050  0.74871452  0.49403003  1
  O  O234  1  0.63276532  0.73650026  1.00376092  1
  O  O235  1  0.49560848  0.24313636  0.12739582  1
  O  O236  1  0.49062694  0.24234022  0.62462458  1
  O  O237  1  0.49299138  0.73971122  0.12841651  1
  O  O238  1  0.49397231  0.74872456  0.63561614  1
  O  O239  1  0.99103221  0.23777139  0.12070121  1
  O  O240  1  0.99279704  0.24025635  0.61507883  1
  O  O241  1  0.98162582  0.74953909  0.12789593  1
  O  O242  1  0.98847534  0.75520471  0.62963557  1
  O  O243  1  0.00395892  0.26208779  0.38331752  1
  O  O244  1  0.00692734  0.26346527  0.87998792  1
  O  O245  1  0.00567488  0.75853859  0.37143987  1
  O  O246  1  -0.00872183  0.75324506  0.87876885  1
  O  O247  1  0.50334161  0.25533186  0.37297627  1
  O  O248  1  0.49122365  0.25351492  0.88078605  1
  O  O249  1  0.51787038  0.74377274  0.37542263  1
  O  O250  1  0.49505938  0.76092777  0.86993959  1
  O  O251  1  0.24592888  0.12925098  0.49340248  1
  O  O252  1  0.24092580  0.13879063  0.99601562  1
  O  O253  1  0.24669426  0.64009125  0.49936211  1
  O  O254  1  0.23691590  0.62869269  0.99551150  1
  O  O255  1  0.74333673  0.12934826  0.49654574  1
  O  O256  1  0.75041186  0.14101670  1.00447582  1
  O  O257  1  0.74941543  0.62673683  0.48640280  1
  O  O258  1  0.74136443  0.62745799  0.99472786  1
  O  O259  1  0.23988307  0.36447750  0.00036326  1
  O  O260  1  0.24220810  0.36676871  0.50659574  1
  O  O261  1  0.25856670  0.86519961  -0.00273960  1
  O  O262  1  0.25965958  0.86542255  0.50065490  1
  O  O263  1  0.75484995  0.36624748  0.00694717  1
  O  O264  1  0.75031614  0.37148721  0.51113996  1
  O  O265  1  0.74183845  0.86029792  0.00012281  1
  O  O266  1  0.75155710  0.87413431  0.51294422  1
  O  O267  1  0.13506409  0.48527150  0.25398613  1
  O  O268  1  0.12379904  0.49266818  0.73954170  1
  O  O269  1  0.13330355  0.99698685  0.24571625  1
  O  O270  1  0.12942461  0.99050460  0.74472055  1
  O  O271  1  0.62047936  0.48993050  0.25547745  1
  O  O272  1  0.62952268  0.49115253  0.74507036  1
  O  O273  1  0.63122061  0.99615993  0.24544262  1
  O  O274  1  0.61861572  0.98788754  0.73686426  1
  O  O275  1  0.36918609  0.00174511  0.25727288  1
  O  O276  1  0.36489321  -0.01246158  0.75855175  1
  O  O277  1  0.35682790  0.49130748  0.25249894  1
  O  O278  1  0.37273269  0.51173892  0.75680802  1
  O  O279  1  0.86547642  0.01211648  0.25867735  1
  O  O280  1  0.87716996  0.01418031  0.75646819  1
  O  O281  1  0.87089569  0.50953911  0.24693082  1
  O  O282  1  0.86878627  0.50597470  0.75160979  1
  O  O283  1  0.11444462  0.37043372  0.36780463  1
  O  O284  1  0.11872989  0.37119708  0.86497075  1
  O  O285  1  0.11673108  0.86804667  0.36574493  1
  O  O286  1  0.12327402  0.87746417  0.87222236  1
  O  O287  1  0.61916279  0.36910262  0.36599331  1
  O  O288  1  0.63090692  0.38005714  0.86111197  1
  O  O289  1  0.62874761  0.86871298  0.36783006  1
  O  O290  1  0.61737973  0.88189571  0.86570509  1
  O  O291  1  0.38303160  0.13510273  0.12500121  1
  O  O292  1  0.38396022  0.13276845  0.62153469  1
  O  O293  1  0.38825009  0.63618584  0.12000516  1
  O  O294  1  0.37514591  0.63193033  0.63990296  1
  O  O295  1  0.88290296  0.12840330  0.13218755  1
  O  O296  1  0.88098427  0.12952942  0.63301604  1
  O  O297  1  0.86557929  0.63019617  0.14195792  1
  O  O298  1  0.86898610  0.63941935  0.63401903  1
  O  O299  1  0.25987464  0.25220266  0.11432416  1
  O  O300  1  0.25447163  0.25587176  0.61927546  1
  O  O301  1  0.25872577  0.74364440  0.11182826  1
  O  O302  1  0.25648149  0.75351682  0.61832741  1
  O  O303  1  0.75733772  0.25755853  0.11840715  1
  O  O304  1  0.75505872  0.25839827  0.62188262  1
  O  O305  1  0.75196865  0.75099297  0.11903405  1
  O  O306  1  0.76058832  0.75769138  0.62133662  1
  O  O307  1  0.25324602  0.24255074  0.38187985  1
  O  O308  1  0.24252799  0.24897064  0.87805837  1
  O  O309  1  0.24151090  0.75160166  0.38158384  1
  O  O310  1  0.25812373  0.74075338  0.88971305  1
  O  O311  1  0.74558762  0.24488724  0.38144362  1
  O  O312  1  0.75664993  0.24984067  0.89157354  1
  O  O313  1  0.74003677  0.74595444  0.37646001  1
  O  O314  1  0.75861217  0.73864321  0.88700403  1
  O  O315  1  0.01159790  0.12452677  0.00682242  1
  O  O316  1  0.00571147  0.11468412  0.50740520  1
  O  O317  1  0.01104747  0.61620834  -0.00457198  1
  O  O318  1  0.00100345  0.61130607  0.49169313  1
  O  O319  1  0.50154484  0.11341131  0.01379860  1
  O  O320  1  0.50612018  0.11944971  0.50956631  1
  O  O321  1  0.50678962  0.62109005  0.00707854  1
  O  O322  1  0.50679184  0.61462663  0.50768017  1
  O  O323  1  0.50643142  0.38335789  0.49139054  1
  O  O324  1  0.50493531  0.39308387  1.01042611  1
  O  O325  1  0.48856029  0.88118750  0.50702406  1
  O  O326  1  0.49720051  0.87608277  0.99436701  1
  O  O327  1  0.99841034  0.38165288  0.48859108  1
  O  O328  1  0.99430021  0.38021005  0.99251087  1
  O  O329  1  1.00485469  0.88795487  0.48671066  1
  O  O330  1  1.01752796  0.89090093  1.02464283  1
  O  O331  1  0.49822378  0.49185268  0.38568208  1
  O  O332  1  0.48868507  0.50533586  0.88651053  1
  O  O333  1  0.48710098  1.00835710  0.38173117  1
  O  O334  1  0.49280350  0.98724670  0.87880030  1
  O  O335  1  1.00515525  0.48794200  0.38832161  1
  O  O336  1  0.99492429  0.48757952  0.88113220  1
  O  O337  1  0.99589530  0.99464542  0.37922077  1
  O  O338  1  0.98165527  1.00787670  0.87436620  1
  O  O339  1  0.01797288  0.01558495  0.12835969  1
  O  O340  1  0.00411134  0.00386736  0.61739324  1
  O  O341  1  -0.00518899  0.49270306  0.11151680  1
  O  O342  1  0.00981909  0.49270735  0.60809155  1
  O  O343  1  0.50600231  0.00623326  0.12427884  1
  O  O344  1  0.50570212  0.00663046  0.62063867  1
  O  O345  1  0.49173266  0.51587016  0.11956242  1
  O  O346  1  0.50659752  0.49904343  0.62203727  1
  O  O347  1  0.23873889  0.38234430  0.24571990  1
  O  O348  1  0.23497329  0.37957578  0.73944466  1
  O  O349  1  0.24438405  0.89104381  0.25784190  1
  O  O350  1  0.23624906  0.88298335  0.75163942  1
  O  O351  1  0.73616922  0.37297857  0.24673471  1
  O  O352  1  0.74380446  0.37805055  0.74080282  1
  O  O353  1  0.74255807  0.88931288  0.25065044  1
  O  O354  1  0.73868311  0.86545360  0.74360063  1
  O  O355  1  0.25078891  0.11693656  0.25900577  1
  O  O356  1  0.24373835  0.10937193  0.75030002  1
  O  O357  1  0.24062224  0.61032830  0.24947756  1
  O  O358  1  0.25669410  0.62820013  0.75837772  1
  O  O359  1  0.75513854  0.11645211  0.25427359  1
  O  O360  1  0.76485816  0.12869125  0.74652133  1
  O  O361  1  0.75545299  0.62355064  0.26264049  1
  O  O362  1  0.75604854  0.62096508  0.75838294  1
  O  O363  1  0.36511655  0.11839525  0.37561332  1
  O  O364  1  0.37179714  0.10456279  0.87915021  1
  O  O365  1  0.37343651  0.62248149  0.37471025  1
  O  O366  1  0.36714437  0.62069306  0.86760037  1
  O  O367  1  0.87092137  0.12347560  0.36899989  1
  O  O368  1  0.87457323  0.13181436  0.85874825  1
  O  O369  1  0.85944913  0.62750733  0.36395355  1
  O  O370  1  0.86447572  0.61569643  0.86794788  1
  O  O371  1  0.12187158  0.37014311  0.13833752  1
  O  O372  1  0.13107573  0.38008710  0.62851666  1
  O  O373  1  0.12971460  0.88823391  0.14047328  1
  O  O374  1  0.12592554  0.88646410  0.62394598  1
  O  O375  1  0.63201227  0.37285830  0.14370022  1
  O  O376  1  0.63181215  0.38434397  0.63184694  1
  O  O377  1  0.62619155  0.88629061  0.13434241  1
  O  O378  1  0.63340922  0.88069349  0.63103063  1
  O  O379  1  0.13250510  0.26624306  0.25423110  1
  O  O380  1  0.12754986  0.25643714  0.75915453  1
  O  O381  1  0.12527906  0.75754347  0.25450498  1
  O  O382  1  0.12384092  0.76785841  0.74878997  1
  O  O383  1  0.61796262  0.25031168  0.25787694  1
  O  O384  1  0.62102246  0.26539449  0.74633612  1
  O  O385  1  0.62491139  0.76149180  0.25714431  1
  O  O386  1  0.61419574  0.75567683  0.74543852  1
  O  O387  1  0.38236134  0.24884323  0.24132042  1
  O  O388  1  0.37500802  0.25205762  0.73766130  1
  O  O389  1  0.37437115  0.76177321  0.23572397  1
  O  O390  1  0.38337826  0.74708522  0.74964796  1
  O  O391  1  0.86643080  0.23991272  0.23865060  1
  O  O392  1  0.87429810  0.24110318  0.73685177  1
  O  O393  1  0.87274801  0.73799875  0.24064932  1
  O  O394  1  0.87869416  0.74184835  0.74147509  1
  O  O395  1  0.38662310  0.50190883  0.50475610  1
  O  O396  1  0.38264726  0.50863044  0.99087696  1
  O  O397  1  0.37797083  0.99246614  0.49422159  1
  O  O398  1  0.37931657  0.99150072  0.99690162  1
  O  O399  1  0.88942037  0.49753202  0.50683980  1
  O  O400  1  0.88117140  0.49418237  0.99344487  1
  O  O401  1  0.88437623  1.00623149  0.49153311  1
  O  O402  1  0.87893963  1.00379196  0.98681016  1
  O  O403  1  0.13274649  0.01467180  0.00766687  1
  O  O404  1  0.12073548  0.00379995  0.50640010  1
  O  O405  1  0.11725047  0.51448689  -0.00410595  1
  O  O406  1  0.11663161  0.50381444  0.50529227  1
  O  O407  1  0.61933038  -0.00214204  0.01053429  1
  O  O408  1  0.61958693  0.00295115  0.50992926  1
  O  O409  1  0.61593832  0.51420709  -0.00331489  1
  O  O410  1  0.61576988  0.50075349  0.51141219  1
  O  O411  1  0.37505686  0.36378337  0.12652071  1
  O  O412  1  0.35984814  0.36988924  0.63013043  1
  O  O413  1  0.38184101  0.86850971  0.11168893  1
  O  O414  1  0.37236198  0.86931155  0.61820610  1
  O  O415  1  0.86945805  0.36572143  0.12497682  1
  O  O416  1  0.86755738  0.36779018  0.62524570  1
  O  O417  1  0.86869436  0.85483044  0.13242370  1
  O  O418  1  0.86821277  0.86261889  0.63438091  1
  O  O419  1  0.13629512  0.12545477  0.37930935  1
  O  O420  1  0.12358273  0.13373931  0.87940727  1
  O  O421  1  0.12495869  0.64003544  0.37345828  1
  O  O422  1  0.13492391  0.62335054  0.87316001  1
  O  O423  1  0.62986399  0.12952078  0.38183732  1
  O  O424  1  0.62958462  0.11839913  0.87905226  1
  O  O425  1  0.63687915  0.63205953  0.37499843  1
  O  O426  1  0.63694554  0.62196614  0.88040103  1
