# generated using pymatgen
data_V85Zn86O256
_symmetry_space_group_name_H-M   'P 1'
_cell_length_a   16.93354860
_cell_length_b   16.93321269
_cell_length_c   16.93434176
_cell_angle_alpha   89.89579558
_cell_angle_beta   90.03196009
_cell_angle_gamma   89.96110116
_symmetry_Int_Tables_number   1
_chemical_formula_structural   V85Zn86O256
_chemical_formula_sum   'V85 Zn86 O256'
_cell_volume   4855.73274913
_cell_formula_units_Z   1
loop_
 _symmetry_equiv_pos_site_id
 _symmetry_equiv_pos_as_xyz
  1  'x, y, z'
loop_
 _atom_site_type_symbol
 _atom_site_label
 _atom_site_symmetry_multiplicity
 _atom_site_fract_x
 _atom_site_fract_y
 _atom_site_fract_z
 _atom_site_occupancy
  V  V0  1  0.49814389  0.12560523  0.62772366  1
  V  V1  1  0.12123451  0.49849968  0.62122884  1
  V  V2  1  0.74748870  0.12296105  0.37241452  1
  V  V3  1  0.12916932  0.75510156  0.37290861  1
  V  V4  1  0.37326589  0.62540425  0.74732087  1
  V  V5  1  0.11760980  0.12138084  0.01652990  1
  V  V6  1  0.75527061  0.36484659  0.10533217  1
  V  V7  1  0.37307907  0.88566691  0.49658639  1
  V  V8  1  0.12314314  0.37233421  0.75128679  1
  V  V9  1  0.62559567  0.25410467  0.37203132  1
  V  V10  1  0.50668163  0.11810524  0.12526843  1
  V  V11  1  0.37487481  0.37485053  -0.00087629  1
  V  V12  1  0.25181318  0.62700667  0.37510469  1
  V  V13  1  0.75463891  0.10544713  0.87360505  1
  V  V14  1  0.89268116  0.24351391  0.11875631  1
  V  V15  1  0.37458354  0.38172420  0.49700615  1
  V  V16  1  0.75078448  0.24880228  0.49868608  1
  V  V17  1  0.50090541  0.50282932  -0.00035305  1
  V  V18  1  0.25703407  0.87730635  0.12616698  1
  V  V19  1  0.62714757  0.49381099  0.12724622  1
  V  V20  1  0.41730231  0.55739181  0.31724598  1
  V  V21  1  0.87676682  0.50312906  0.36797407  1
  V  V22  1  0.25046566  0.11423558  0.88152640  1
  V  V23  1  -0.00354902  0.24848807  0.75196461  1
  V  V24  1  0.12465661  0.87794078  0.75562633  1
  V  V25  1  0.48583407  -0.00288031  -0.00165565  1
  V  V26  1  0.75729695  0.62993006  0.86962560  1
  V  V27  1  0.00225310  0.37454556  0.37091855  1
  V  V28  1  0.75278698  0.62844657  0.36346487  1
  V  V29  1  0.87501266  0.24770997  0.62369682  1
  V  V30  1  -0.00480334  0.49510861  0.00104284  1
  V  V31  1  0.24995191  0.38177028  0.12468469  1
  V  V32  1  0.74844831  0.50600026  0.74237359  1
  V  V33  1  0.50538850  0.25333856  0.24632249  1
  V  V34  1  0.75222575  0.87390331  0.63280512  1
  V  V35  1  0.87314563  0.49336111  0.87236541  1
  V  V36  1  0.37052590  0.75107624  0.62007279  1
  V  V37  1  0.24824579  0.50150820  0.74863556  1
  V  V38  1  0.87816311  0.36947704  0.49811972  1
  V  V39  1  0.37516426  0.12292128  0.75797375  1
  V  V40  1  0.00226862  0.87816998  0.38120932  1
  V  V41  1  0.48037302  0.87940286  0.87665169  1
  V  V42  1  0.87721452  0.88247680  -0.00242072  1
  V  V43  1  0.87182191  0.74311906  0.12565653  1
  V  V44  1  0.12555456  0.61843247  0.00793229  1
  V  V45  1  0.12305483  0.12221721  0.49927727  1
  V  V46  1  0.12515755  0.62909063  0.49840878  1
  V  V47  1  0.37532834  0.49949406  0.87358585  1
  V  V48  1  0.64075163  0.25107803  0.87667198  1
  V  V49  1  0.37937827  0.12073445  0.25738198  1
  V  V50  1  0.87538077  0.87146649  0.50386063  1
  V  V51  1  -0.00247697  0.74367448  0.25111603  1
  V  V52  1  0.12401607  -0.00055160  0.62314563  1
  V  V53  1  -0.00017620  0.12181713  0.62132573  1
  V  V54  1  0.38053230  0.74467425  0.14326066  1
  V  V55  1  0.07429268  0.93142362  0.19160430  1
  V  V56  1  0.62373671  0.12430775  0.50218706  1
  V  V57  1  0.62713789  0.62674360  -0.00087355  1
  V  V58  1  0.11819849  0.75180700  0.87905817  1
  V  V59  1  0.75006671  0.74934698  0.50394904  1
  V  V60  1  0.62965228  0.00017057  0.62707091  1
  V  V61  1  0.73767580  -0.00084713  0.24691313  1
  V  V62  1  0.87302298  0.10975168  0.75329948  1
  V  V63  1  -0.00132503  0.61665530  0.13005135  1
  V  V64  1  0.62875249  0.11952801  0.00027195  1
  V  V65  1  0.62112238  0.88115645  0.75453487  1
  V  V66  1  0.49960584  0.50290674  0.50919077  1
  V  V67  1  0.25311240  0.24996075  0.50076730  1
  V  V68  1  0.50176101  0.37815832  0.37040604  1
  V  V69  1  0.62809940  0.62192289  0.50926797  1
  V  V70  1  0.50074039  0.75222708  0.75039551  1
  V  V71  1  0.24922704  0.24938956  -0.00046914  1
  V  V72  1  0.75113848  0.48479789  0.24884654  1
  V  V73  1  0.87335708  -0.00189457  0.37904897  1
  V  V74  1  0.74104153  0.87600812  0.12371358  1
  V  V75  1  0.74093698  0.37698544  0.62345878  1
  V  V76  1  0.24739030  0.62450957  0.87707571  1
  V  V77  1  0.24827263  0.86766339  0.62220575  1
  V  V78  1  0.12293769  0.37515140  0.24457420  1
  V  V79  1  0.25995714  0.75240885  0.00346112  1
  V  V80  1  0.25620190  -0.00379345  0.25304063  1
  V  V81  1  0.24664219  0.50307189  0.25223989  1
  V  V82  1  0.49751526  0.87634735  0.36609648  1
  V  V83  1  0.12943777  0.25066682  0.37045093  1
  V  V84  1  0.50301823  0.37160371  0.87329555  1
  Zn  Zn85  1  0.00050136  0.00500821  -0.00074994  1
  Zn  Zn86  1  0.49600625  0.00182672  0.49670696  1
  Zn  Zn87  1  0.61712232  0.74761723  0.36874434  1
  Zn  Zn88  1  0.61761853  0.86569549  0.24347964  1
  Zn  Zn89  1  0.50476519  0.62534290  0.62913696  1
  Zn  Zn90  1  0.62171706  0.75191039  0.87702160  1
  Zn  Zn91  1  0.62368517  0.37770994  0.74596132  1
  Zn  Zn92  1  0.37606794  0.25058727  0.62638928  1
  Zn  Zn93  1  0.12150484  0.24697860  0.87715113  1
  Zn  Zn94  1  -0.00552496  0.36993019  0.88197813  1
  Zn  Zn95  1  0.25249270  0.37355752  0.62541975  1
  Zn  Zn96  1  -0.00759101  0.88569242  0.87046256  1
  Zn  Zn97  1  0.50130081  0.25101742  0.75067992  1
  Zn  Zn98  1  0.25451263  -0.00089102  0.75499225  1
  Zn  Zn99  1  0.74957480  0.75077925  -0.00009946  1
  Zn  Zn100  1  -0.00087619  0.50206660  0.50036407  1
  Zn  Zn101  1  0.88932428  0.12647911  0.23948127  1
  Zn  Zn102  1  -0.02060957  0.74758285  0.74475195  1
  Zn  Zn103  1  0.25789607  0.11726473  0.37843562  1
  Zn  Zn104  1  0.37809672  0.24853853  0.12499345  1
  Zn  Zn105  1  0.50020924  0.62633625  0.14081131  1
  Zn  Zn106  1  -0.01991335  0.63083265  0.62749327  1
  Zn  Zn107  1  0.19383700  0.18989740  0.18862069  1
  Zn  Zn108  1  0.18949355  0.18681336  0.68923777  1
  Zn  Zn109  1  0.18533416  0.68958588  0.19032770  1
  Zn  Zn110  1  0.12552646  0.68846846  0.68797324  1
  Zn  Zn111  1  0.68909236  0.18888534  0.18713481  1
  Zn  Zn112  1  0.68858903  0.18839683  0.69335165  1
  Zn  Zn113  1  0.68491285  0.68563453  0.18741048  1
  Zn  Zn114  1  0.80944786  0.68715572  0.68504124  1
  Zn  Zn115  1  0.31771009  0.31218741  0.31286651  1
  Zn  Zn116  1  0.31285391  0.30826546  0.81321171  1
  Zn  Zn117  1  0.31255020  0.81611340  0.31439789  1
  Zn  Zn118  1  0.30473050  0.80892190  0.80890029  1
  Zn  Zn119  1  0.81750318  0.30769391  0.30614437  1
  Zn  Zn120  1  0.81374739  0.31354882  0.80918374  1
  Zn  Zn121  1  0.81025858  0.81087701  0.31123475  1
  Zn  Zn122  1  0.80610197  0.81833588  0.81757003  1
  Zn  Zn123  1  0.19159893  0.44096885  0.43398772  1
  Zn  Zn124  1  0.18286271  0.43669943  0.93597112  1
  Zn  Zn125  1  0.18945736  0.93721555  0.43851292  1
  Zn  Zn126  1  0.18381483  0.93927839  0.94603206  1
  Zn  Zn127  1  0.68679160  0.43888440  0.43723852  1
  Zn  Zn128  1  0.68760277  0.44234813  0.93302652  1
  Zn  Zn129  1  0.68162427  0.93485835  0.43813344  1
  Zn  Zn130  1  0.68094175  0.93681912  0.94130146  1
  Zn  Zn131  1  0.31283816  0.06450893  0.07114187  1
  Zn  Zn132  1  0.30900155  0.06276438  0.56892725  1
  Zn  Zn133  1  0.31489236  0.56480640  0.06657418  1
  Zn  Zn134  1  0.30910320  0.56360685  0.56094670  1
  Zn  Zn135  1  0.81133148  0.06673132  0.06378538  1
  Zn  Zn136  1  0.81181168  0.05882738  0.56228000  1
  Zn  Zn137  1  0.81325616  0.56034052  0.06068201  1
  Zn  Zn138  1  0.81015283  0.55485692  0.55324980  1
  Zn  Zn139  1  0.44080460  0.43286551  0.18137408  1
  Zn  Zn140  1  0.43684864  0.43573441  0.68567753  1
  Zn  Zn141  1  0.43457183  0.93727314  0.18149918  1
  Zn  Zn142  1  0.43619416  0.94179908  0.68646040  1
  Zn  Zn143  1  0.93427427  0.43049392  0.18522346  1
  Zn  Zn144  1  0.93362053  0.43953898  0.68780192  1
  Zn  Zn145  1  0.90984719  0.93580111  0.18988110  1
  Zn  Zn146  1  0.94288173  0.93273681  0.68539812  1
  Zn  Zn147  1  0.06323924  0.06562316  0.31712037  1
  Zn  Zn148  1  0.06323230  0.06246283  0.81849076  1
  Zn  Zn149  1  0.06483008  0.56096610  0.31075491  1
  Zn  Zn150  1  0.05975526  0.56238002  0.81548672  1
  Zn  Zn151  1  0.56050169  0.05691401  0.31528578  1
  Zn  Zn152  1  0.56118686  0.06187963  0.81657499  1
  Zn  Zn153  1  0.58173318  0.56010886  0.31524401  1
  Zn  Zn154  1  0.56844877  0.56379287  0.81028527  1
  Zn  Zn155  1  0.43868370  0.19022989  0.43785369  1
  Zn  Zn156  1  0.43822391  0.18746236  0.93897383  1
  Zn  Zn157  1  0.43975692  0.69725202  0.44426001  1
  Zn  Zn158  1  0.43728602  0.68751026  0.93614625  1
  Zn  Zn159  1  0.95244406  0.17437471  0.41005754  1
  Zn  Zn160  1  0.93279323  0.18669874  0.94079136  1
  Zn  Zn161  1  0.93718176  0.68785278  0.44180029  1
  Zn  Zn162  1  0.93551793  0.68685529  0.94007615  1
  Zn  Zn163  1  0.06490463  0.31049798  0.06345801  1
  Zn  Zn164  1  0.06276154  0.31075951  0.56131032  1
  Zn  Zn165  1  0.05871816  0.80370978  0.05811122  1
  Zn  Zn166  1  0.06342894  0.81283025  0.55827148  1
  Zn  Zn167  1  0.56889346  0.30931728  0.05924265  1
  Zn  Zn168  1  0.56027296  0.31058192  0.55867755  1
  Zn  Zn169  1  0.55531793  0.81258649  0.06216872  1
  Zn  Zn170  1  0.56088211  0.81145042  0.56047902  1
  O  O171  1  0.12779895  0.13223344  0.11512345  1
  O  O172  1  0.12258161  0.11894957  0.61920618  1
  O  O173  1  0.11387481  0.62918071  0.11858440  1
  O  O174  1  0.14218797  0.61179151  0.60690429  1
  O  O175  1  0.61508650  0.12881244  0.11620596  1
  O  O176  1  0.62110260  0.11873147  0.62468037  1
  O  O177  1  0.62226198  0.61267061  0.11766310  1
  O  O178  1  0.62516868  0.62563059  0.60785852  1
  O  O179  1  0.38850965  0.37034088  0.38621168  1
  O  O180  1  0.38239591  0.38039461  0.87926576  1
  O  O181  1  0.38241480  0.87243121  0.38579657  1
  O  O182  1  0.38122835  0.87197809  0.86945031  1
  O  O183  1  0.88428205  0.37561385  0.37726935  1
  O  O184  1  0.87608332  0.38809748  0.87183822  1
  O  O185  1  0.87953662  0.88023663  0.38045632  1
  O  O186  1  0.87254996  0.87274629  0.89426532  1
  O  O187  1  0.24458285  -0.00072577  0.35861825  1
  O  O188  1  0.24858779  0.01112219  0.87966045  1
  O  O189  1  0.25515171  0.50850112  0.36375164  1
  O  O190  1  0.25501826  0.50293056  0.86914649  1
  O  O191  1  0.75110276  0.00372061  0.36990698  1
  O  O192  1  0.74685033  0.00732499  0.87216722  1
  O  O193  1  0.75633146  0.50331992  0.36692146  1
  O  O194  1  0.75705180  0.50715387  0.86728819  1
  O  O195  1  0.25443647  0.48871486  0.13112824  1
  O  O196  1  0.24187507  0.49468970  0.63272402  1
  O  O197  1  0.25376412  0.98889338  0.13492110  1
  O  O198  1  0.23840128  0.99299527  0.62975650  1
  O  O199  1  0.74744984  0.49146743  0.13036937  1
  O  O200  1  0.75355444  0.48871085  0.62989547  1
  O  O201  1  0.75737449  0.99022067  0.13596143  1
  O  O202  1  0.73708190  0.99115444  0.62195404  1
  O  O203  1  0.01160475  0.38070061  0.25702704  1
  O  O204  1  0.00499178  0.36373652  0.74782666  1
  O  O205  1  0.00631451  0.87344396  0.25126092  1
  O  O206  1  0.01261548  0.86907197  0.75232991  1
  O  O207  1  0.49621359  0.36650813  0.25756126  1
  O  O208  1  0.50291090  0.37521288  0.75841463  1
  O  O209  1  0.49698307  0.88129943  0.26179719  1
  O  O210  1  0.49968804  0.87269216  0.75728498  1
  O  O211  1  0.49878737  0.12756661  0.24354569  1
  O  O212  1  0.49383376  0.12705647  0.74616204  1
  O  O213  1  0.49071935  0.60679144  0.25916317  1
  O  O214  1  0.49514813  0.63358263  0.75024076  1
  O  O215  1  0.98112929  0.13680751  0.30324612  1
  O  O216  1  0.99547600  0.13384823  0.74438299  1
  O  O217  1  1.00163649  0.63062822  0.24303662  1
  O  O218  1  1.02599730  0.63601903  0.73972226  1
  O  O219  1  0.36836089  0.25773005  0.00176712  1
  O  O220  1  0.36844476  0.25737043  0.50158058  1
  O  O221  1  0.36194544  0.74445270  0.00300082  1
  O  O222  1  0.37442819  0.76048746  0.51559925  1
  O  O223  1  0.87746982  0.25022384  0.01725123  1
  O  O224  1  0.87150054  0.25866472  0.49986112  1
  O  O225  1  0.87359328  0.75798816  0.00992687  1
  O  O226  1  0.86615788  0.76268800  0.49592052  1
  O  O227  1  0.13460896  0.24699876  0.49208409  1
  O  O228  1  0.13288089  0.24220469  0.99918788  1
  O  O229  1  0.12342508  0.74046972  0.48455925  1
  O  O230  1  0.13271623  0.73961543  0.99569907  1
  O  O231  1  0.62980093  0.24357295  0.49180313  1
  O  O232  1  0.61636310  0.23325478  0.98648942  1
  O  O233  1  0.63140528  0.73936229  0.49594482  1
  O  O234  1  0.62095844  0.73590247  1.00144941  1
  O  O235  1  0.50219680  0.24460224  0.13171747  1
  O  O236  1  0.50231825  0.23710835  0.62674526  1
  O  O237  1  0.48509938  0.74613112  0.12389119  1
  O  O238  1  0.49003269  0.74931022  0.63290929  1
  O  O239  1  0.99139882  0.25694671  0.13080927  1
  O  O240  1  0.99477561  0.24287254  0.63063142  1
  O  O241  1  0.99347499  0.73943412  0.13231209  1
  O  O242  1  1.02802145  0.74011058  0.63426322  1
  O  O243  1  0.01585148  0.26909806  0.38474178  1
  O  O244  1  -0.00127887  0.25063675  0.86562574  1
  O  O245  1  0.00146453  0.75929798  0.36803498  1
  O  O246  1  0.01152898  0.75206186  0.87760336  1
  O  O247  1  0.50618246  0.25835968  0.36863304  1
  O  O248  1  0.50440647  0.26299554  0.87656264  1
  O  O249  1  0.49964396  0.76928803  0.38148902  1
  O  O250  1  0.49837678  0.75913836  0.86873189  1
  O  O251  1  0.24412101  0.13294881  0.49953930  1
  O  O252  1  0.24632188  0.13233175  0.99973254  1
  O  O253  1  0.24300835  0.61839140  0.48276302  1
  O  O254  1  0.24279368  0.62916820  0.99883287  1
  O  O255  1  0.74090581  0.13067794  0.49762435  1
  O  O256  1  0.74272421  0.11781861  0.98613185  1
  O  O257  1  0.74067615  0.62938790  0.49270284  1
  O  O258  1  0.74122855  0.62448364  0.99328729  1
  O  O259  1  0.25088817  0.37099281  0.00628410  1
  O  O260  1  0.25895084  0.37015091  0.49836867  1
  O  O261  1  0.24144975  0.86506732  0.01544007  1
  O  O262  1  0.25829337  0.87748042  0.50953214  1
  O  O263  1  0.75158836  0.38100115  0.00746445  1
  O  O264  1  0.75652585  0.36911773  0.50297114  1
  O  O265  1  0.75667249  0.87520855  0.00626557  1
  O  O266  1  0.75265455  0.86691671  0.50629508  1
  O  O267  1  0.13742804  0.48921878  0.25311297  1
  O  O268  1  0.13093726  0.49175114  0.74413722  1
  O  O269  1  0.12824122  1.00001090  0.24731786  1
  O  O270  1  0.12810608  0.99252669  0.74465569  1
  O  O271  1  0.63677281  0.49866461  0.23813026  1
  O  O272  1  0.64198719  0.49538850  0.75389150  1
  O  O273  1  0.63484286  0.99254463  0.25215616  1
  O  O274  1  0.61635590  0.98910926  0.74284581  1
  O  O275  1  0.36852875  0.00831026  0.24591409  1
  O  O276  1  0.37228882  0.01709041  0.74582646  1
  O  O277  1  0.36624036  0.49468801  0.24940795  1
  O  O278  1  0.36763518  0.50419861  0.75241920  1
  O  O279  1  0.86234512  0.00620867  0.26504587  1
  O  O280  1  0.88128468  0.01109739  0.74463009  1
  O  O281  1  0.86906089  0.49382145  0.26124297  1
  O  O282  1  0.86328112  0.49928973  0.75724222  1
  O  O283  1  0.12252393  0.37176365  0.36687160  1
  O  O284  1  0.11987004  0.37247754  0.86157937  1
  O  O285  1  0.11553796  0.86713501  0.38209574  1
  O  O286  1  0.12628092  0.86930430  0.87205719  1
  O  O287  1  0.61076088  0.37183850  0.38039539  1
  O  O288  1  0.61925583  0.36768038  0.87670355  1
  O  O289  1  0.61007436  0.87206879  0.37520564  1
  O  O290  1  0.61550782  0.87425400  0.86747097  1
  O  O291  1  0.38947318  0.12847944  0.13495444  1
  O  O292  1  0.38338981  0.12793370  0.63141636  1
  O  O293  1  0.37821894  0.63874655  0.12537021  1
  O  O294  1  0.37381601  0.63345905  0.62972355  1
  O  O295  1  0.87959128  0.13494459  0.12408141  1
  O  O296  1  0.87904401  0.12792049  0.62909037  1
  O  O297  1  0.88110191  0.63539031  0.12088340  1
  O  O298  1  0.86973243  0.62443441  0.61421003  1
  O  O299  1  0.25431680  0.26105629  0.11554839  1
  O  O300  1  0.24939266  0.25269483  0.61250381  1
  O  O301  1  0.25768372  0.75372271  0.12263006  1
  O  O302  1  0.25433635  0.76440491  0.63283114  1
  O  O303  1  0.73844792  0.26511944  0.11766368  1
  O  O304  1  0.75651301  0.25440646  0.61913833  1
  O  O305  1  0.75761945  0.75310142  0.12294630  1
  O  O306  1  0.74690467  0.76016440  0.61139192  1
  O  O307  1  0.24697735  0.25006291  0.38553498  1
  O  O308  1  0.24827051  0.24697684  0.88944083  1
  O  O309  1  0.23955006  0.74207621  0.36549240  1
  O  O310  1  0.24392546  0.74396825  0.88625333  1
  O  O311  1  0.74578686  0.24270111  0.37747317  1
  O  O312  1  0.74253899  0.24859102  0.87360546  1
  O  O313  1  0.75311936  0.74157008  0.38458632  1
  O  O314  1  0.74210270  0.74265965  0.87996086  1
  O  O315  1  0.01432484  0.12698865  0.00072332  1
  O  O316  1  0.01538386  0.13264041  0.50350750  1
  O  O317  1  0.00662742  0.61780524  0.00837666  1
  O  O318  1  0.01169750  0.62113104  0.50092118  1
  O  O319  1  0.50328156  0.11620641  0.00582972  1
  O  O320  1  0.50555612  0.12460977  0.50814153  1
  O  O321  1  0.50558863  0.61234220  -0.00452634  1
  O  O322  1  0.51038109  0.62007231  0.49928237  1
  O  O323  1  0.49578412  0.38509111  0.49392252  1
  O  O324  1  0.49790816  0.38527802  0.99400272  1
  O  O325  1  0.48896790  0.87853526  0.49752616  1
  O  O326  1  0.50180186  0.88898653  0.99274822  1
  O  O327  1  0.99275213  0.37867764  0.49460211  1
  O  O328  1  1.01257506  0.39159222  0.99963031  1
  O  O329  1  0.98901041  0.87096317  0.49258908  1
  O  O330  1  0.98607897  0.87390024  1.00300748  1
  O  O331  1  0.49343916  0.49727598  0.37630218  1
  O  O332  1  0.49792256  0.49078922  0.87971465  1
  O  O333  1  0.50110431  0.98545862  0.38117179  1
  O  O334  1  0.49752922  0.99455820  0.88729820  1
  O  O335  1  0.99396598  0.49191738  0.37544770  1
  O  O336  1  0.99041188  0.50044522  0.88186888  1
  O  O337  1  0.98974440  0.98476001  0.37250836  1
  O  O338  1  1.00278082  0.99731552  0.88392597  1
  O  O339  1  0.00670994  -0.01634512  0.13722802  1
  O  O340  1  0.01498528  0.00563994  0.62714376  1
  O  O341  1  -0.01012461  0.50979524  0.11946643  1
  O  O342  1  0.01248849  0.50157249  0.62503525  1
  O  O343  1  0.49998780  0.00571391  0.11255054  1
  O  O344  1  0.50940714  0.01161181  0.62367559  1
  O  O345  1  0.50834742  0.50144514  0.11653214  1
  O  O346  1  0.49908639  0.50336875  0.61285110  1
  O  O347  1  0.24763647  0.38000911  0.24357611  1
  O  O348  1  0.24298904  0.38274692  0.75102293  1
  O  O349  1  0.25130610  0.88150757  0.23933798  1
  O  O350  1  0.24189449  0.88091006  0.74339633  1
  O  O351  1  0.74975062  0.38297630  0.24528362  1
  O  O352  1  0.75003861  0.38085872  0.73762157  1
  O  O353  1  0.75177093  0.88260818  0.24139462  1
  O  O354  1  0.73615436  0.87208197  0.73950503  1
  O  O355  1  0.26255437  0.11799017  0.24899634  1
  O  O356  1  0.25547905  0.12547591  0.76297611  1
  O  O357  1  0.24444519  0.61523672  0.25931403  1
  O  O358  1  0.25048177  0.61058424  0.75657121  1
  O  O359  1  0.74684507  0.11654669  0.25881452  1
  O  O360  1  0.75894704  0.12613131  0.76304647  1
  O  O361  1  0.74935466  0.61398903  0.26068855  1
  O  O362  1  0.74664256  0.61855447  0.75818456  1
  O  O363  1  0.37739314  0.12811351  0.36256981  1
  O  O364  1  0.36455489  0.13216822  0.86973713  1
  O  O365  1  0.36952528  0.62956437  0.37914488  1
  O  O366  1  0.36814670  0.61856116  0.86807991  1
  O  O367  1  0.85365382  0.11365246  0.39244245  1
  O  O368  1  0.86144778  0.12625559  0.86952872  1
  O  O369  1  0.86627211  0.61338399  0.38412162  1
  O  O370  1  0.86244870  0.61784299  0.88076480  1
  O  O371  1  0.13457325  0.36938900  0.13726499  1
  O  O372  1  0.12619873  0.38034500  0.63445158  1
  O  O373  1  0.12821585  0.86967740  0.12976347  1
  O  O374  1  0.13089909  0.88193745  0.62988871  1
  O  O375  1  0.63475194  0.38740404  0.11517180  1
  O  O376  1  0.63750571  0.36919952  0.62145696  1
  O  O377  1  0.63710588  0.86939121  0.12151535  1
  O  O378  1  0.62836800  0.88247769  0.62997736  1
  O  O379  1  0.13597068  0.25782656  0.26363926  1
  O  O380  1  0.11696504  0.25619452  0.74999730  1
  O  O381  1  0.11070285  0.74705924  0.26141026  1
  O  O382  1  0.14068461  0.76494975  0.76910913  1
  O  O383  1  0.61316030  0.24474274  0.25700149  1
  O  O384  1  0.62213764  0.25422757  0.76222475  1
  O  O385  1  0.62910322  0.75241458  0.25517401  1
  O  O386  1  0.60584052  0.76478714  0.74975765  1
  O  O387  1  0.38866037  0.24312387  0.24857014  1
  O  O388  1  0.37751674  0.23980137  0.74667907  1
  O  O389  1  0.37307463  0.74775974  0.24154765  1
  O  O390  1  0.38014676  0.74511826  0.74181467  1
  O  O391  1  0.85970830  0.24272683  0.22609452  1
  O  O392  1  0.88200284  0.24324693  0.74325839  1
  O  O393  1  0.88856941  0.75689109  0.24220502  1
  O  O394  1  0.86860219  0.75637108  0.75023292  1
  O  O395  1  0.38352572  0.49316955  0.50136938  1
  O  O396  1  0.38261945  0.49624814  0.99509927  1
  O  O397  1  0.37427605  0.98967681  0.50749492  1
  O  O398  1  0.38691344  1.00565102  1.00289003  1
  O  O399  1  0.87387658  0.48394538  0.48496127  1
  O  O400  1  0.88487617  0.50396403  0.98970706  1
  O  O401  1  0.86580898  0.98643579  0.48815231  1
  O  O402  1  0.87997640  0.98506364  1.01404756  1
  O  O403  1  0.12462245  0.01662847  0.00820787  1
  O  O404  1  0.13124657  0.01169998  0.50776019  1
  O  O405  1  0.11874451  0.51323632  -0.00517101  1
  O  O406  1  0.12436002  0.50322865  0.50605987  1
  O  O407  1  0.61309576  0.01456714  -0.00567687  1
  O  O408  1  0.62298691  0.00784472  0.50981445  1
  O  O409  1  0.61905583  0.50871663  0.00345518  1
  O  O410  1  0.61649704  0.51318748  0.49270460  1
  O  O411  1  0.36787487  0.37217516  0.11600121  1
  O  O412  1  0.37494287  0.37125840  0.61232450  1
  O  O413  1  0.36741129  0.85933098  0.12562765  1
  O  O414  1  0.36753909  0.87131632  0.62179431  1
  O  O415  1  0.86096719  0.36435104  0.12617345  1
  O  O416  1  0.86942289  0.36912080  0.61449598  1
  O  O417  1  0.86350790  0.86234905  0.11675721  1
  O  O418  1  0.86375892  0.88352337  0.61675782  1
  O  O419  1  0.13379010  0.13429657  0.38346402  1
  O  O420  1  0.13699803  0.12932161  0.88487066  1
  O  O421  1  0.13117587  0.62959501  0.38093113  1
  O  O422  1  0.13109172  0.63219926  0.88457321  1
  O  O423  1  0.63257209  0.12806576  0.38091272  1
  O  O424  1  0.63728207  0.13013198  0.87655230  1
  O  O425  1  0.63832172  0.62801567  0.38429785  1
  O  O426  1  0.63505002  0.62554753  0.88296421  1
