# generated using pymatgen
data_V85Zn86O256
_symmetry_space_group_name_H-M   'P 1'
_cell_length_a   16.92200778
_cell_length_b   16.91793265
_cell_length_c   16.91819876
_cell_angle_alpha   89.98554053
_cell_angle_beta   89.99442535
_cell_angle_gamma   89.98426129
_symmetry_Int_Tables_number   1
_chemical_formula_structural   V85Zn86O256
_chemical_formula_sum   'V85 Zn86 O256'
_cell_volume   4843.43273456
_cell_formula_units_Z   1
loop_
 _symmetry_equiv_pos_site_id
 _symmetry_equiv_pos_as_xyz
  1  'x, y, z'
loop_
 _atom_site_type_symbol
 _atom_site_label
 _atom_site_symmetry_multiplicity
 _atom_site_fract_x
 _atom_site_fract_y
 _atom_site_fract_z
 _atom_site_occupancy
  V  V0  1  0.12039729  0.49850605  0.13268342  1
  V  V1  1  0.49501803  0.62959605  0.61986940  1
  V  V2  1  0.87667952  0.37271683  -0.01224070  1
  V  V3  1  0.24837788  0.37570273  0.62246138  1
  V  V4  1  0.25493237  0.11757125  0.37785035  1
  V  V5  1  0.00491634  0.74794565  0.26028390  1
  V  V6  1  0.49854161  0.87812909  0.36153061  1
  V  V7  1  0.25638165  -0.00774993  0.24901530  1
  V  V8  1  0.37576915  0.62690342  0.74730090  1
  V  V9  1  0.75400411  0.50228591  0.75383201  1
  V  V10  1  0.87588940  0.00510894  0.37038073  1
  V  V11  1  0.37378979  -0.00368709  0.87781272  1
  V  V12  1  -0.00579642  0.49526929  -0.01097844  1
  V  V13  1  0.74776358  0.37542391  0.62560082  1
  V  V14  1  0.49792601  0.38372628  0.37092585  1
  V  V15  1  0.37951411  0.12170825  0.25450009  1
  V  V16  1  0.25174158  0.75266404  0.01624892  1
  V  V17  1  0.87493997  0.24935902  0.62540987  1
  V  V18  1  0.87268488  0.12290644  0.75567431  1
  V  V19  1  0.37775618  0.50350036  0.88315357  1
  V  V20  1  0.62842162  0.11425572  0.49598612  1
  V  V21  1  0.12339790  0.62959360  0.48763894  1
  V  V22  1  0.12541221  0.75084387  0.87694693  1
  V  V23  1  0.75042398  0.02153255  0.25461166  1
  V  V24  1  0.75456029  0.62361621  0.87751142  1
  V  V25  1  0.37560033  0.25059451  0.62575749  1
  V  V26  1  0.12287744  0.62670530  0.00201767  1
  V  V27  1  0.37324311  0.37227517  0.00106565  1
  V  V28  1  0.48744151  0.73855668  0.24414919  1
  V  V29  1  0.74821815  0.24390904  0.49719339  1
  V  V30  1  0.87605640  0.75072832  0.12654206  1
  V  V31  1  -0.00635450  -0.01055495  0.50157577  1
  V  V32  1  0.87275522  0.62630516  0.74262716  1
  V  V33  1  0.37377523  0.12517146  0.74965194  1
  V  V34  1  0.25007599  0.50402308  0.74829545  1
  V  V35  1  0.63266393  0.75050010  0.36113598  1
  V  V36  1  0.62989247  0.38011053  0.24224476  1
  V  V37  1  -0.00187989  0.50508030  0.50226349  1
  V  V38  1  0.12248373  0.50647007  0.62228798  1
  V  V39  1  0.24738967  0.37150191  0.12373140  1
  V  V40  1  -0.00033895  0.37390838  0.37265929  1
  V  V41  1  -0.00245534  0.87571288  0.87667237  1
  V  V42  1  0.62406741  0.50499604  0.62343120  1
  V  V43  1  0.49162816  0.62148213  0.11230971  1
  V  V44  1  0.49883387  0.25165562  0.75035149  1
  V  V45  1  0.25667823  0.74809277  0.49840365  1
  V  V46  1  0.50717329  0.00688451  0.00318010  1
  V  V47  1  0.37086293  0.24645388  0.12434785  1
  V  V48  1  0.26651945  0.49906220  0.25462389  1
  V  V49  1  0.86413111  0.50244171  0.37522570  1
  V  V50  1  0.25041589  0.62912664  0.87626099  1
  V  V51  1  0.86548510  0.62587410  0.25329943  1
  V  V52  1  0.37242263  0.87098932  0.01615223  1
  V  V53  1  0.26546983  0.62612407  0.37036297  1
  V  V54  1  0.87756449  0.75956304  0.61753108  1
  V  V55  1  0.00079161  0.12690449  0.62710049  1
  V  V56  1  0.50088547  0.87269701  0.87649861  1
  V  V57  1  0.62424810  0.37584189  0.75018716  1
  V  V58  1  0.75348560  0.75926251  0.49473728  1
  V  V59  1  0.74309673  0.25574650  0.00708952  1
  V  V60  1  0.62555227  0.24823494  0.37232679  1
  V  V61  1  0.37749062  0.38111503  0.49510349  1
  V  V62  1  0.49571868  0.75039485  0.74608451  1
  V  V63  1  -0.00259785  0.62382285  0.12611197  1
  V  V64  1  0.62831955  0.50732671  0.10796331  1
  V  V65  1  -0.00102498  0.74550983  0.74385815  1
  V  V66  1  0.49290161  -0.00271259  0.49566386  1
  V  V67  1  0.74458793  0.74875208  0.00128268  1
  V  V68  1  0.63334979  0.62651216  0.49229032  1
  V  V69  1  0.12599600  -0.00064981  0.62322715  1
  V  V70  1  0.62205680  0.74233487  0.87856555  1
  V  V71  1  0.49876756  0.37940251  0.87818009  1
  V  V72  1  0.74038865  0.12341294  0.88393487  1
  V  V73  1  0.25054312  -0.00138367  0.74870153  1
  V  V74  1  0.87267361  0.37516716  0.49958786  1
  V  V75  1  0.26095908  0.86912046  0.62386712  1
  V  V76  1  0.87830202  0.25437082  0.13226196  1
  V  V77  1  0.12707572  -0.00436458  0.12435593  1
  V  V78  1  0.24537005  0.12762501  0.88630110  1
  V  V79  1  0.12502926  0.87298685  0.74879317  1
  V  V80  1  0.12930665  0.87023528  0.25634950  1
  V  V81  1  0.74332516  0.87658718  0.13787659  1
  V  V82  1  0.87323298  0.87858473  0.00301127  1
  V  V83  1  0.12595126  0.24607820  0.37603519  1
  V  V84  1  0.50802965  0.11891586  0.62474642  1
  Zn  Zn85  1  -0.00082926  0.26006955  0.76067094  1
  Zn  Zn86  1  0.12234824  0.13868259  0.00913305  1
  Zn  Zn87  1  0.11396744  0.26573587  0.88579887  1
  Zn  Zn88  1  -0.00622620  0.23739556  0.25648748  1
  Zn  Zn89  1  0.74487129  0.88682935  0.62210403  1
  Zn  Zn90  1  0.00235463  0.00063129  0.00172533  1
  Zn  Zn91  1  0.50767669  0.13225656  0.12018252  1
  Zn  Zn92  1  0.37777428  0.87186712  0.49672002  1
  Zn  Zn93  1  0.74894824  0.50094678  0.24478169  1
  Zn  Zn94  1  -0.00798601  0.11879705  0.13067369  1
  Zn  Zn95  1  0.50003095  0.25091797  0.24828610  1
  Zn  Zn96  1  0.87105783  -0.00009645  0.87563250  1
  Zn  Zn97  1  0.62645744  0.00414346  0.13032008  1
  Zn  Zn98  1  0.62024862  0.24984246  0.88072126  1
  Zn  Zn99  1  -0.00036486  0.87118471  0.38048611  1
  Zn  Zn100  1  0.49773310  0.50572626  0.49406614  1
  Zn  Zn101  1  0.25108358  0.24728794  0.49957358  1
  Zn  Zn102  1  0.11565995  0.37757428  0.75620824  1
  Zn  Zn103  1  0.73455961  0.00573702  0.73778111  1
  Zn  Zn104  1  0.62541966  0.88171868  0.74478581  1
  Zn  Zn105  1  0.12340393  0.37273981  0.25174254  1
  Zn  Zn106  1  0.12689404  0.12490350  0.50178459  1
  Zn  Zn107  1  0.18622626  0.18350683  0.19253312  1
  Zn  Zn108  1  0.18541794  0.19067135  0.69556836  1
  Zn  Zn109  1  0.18768991  0.68331220  0.19309580  1
  Zn  Zn110  1  0.18640305  0.68734250  0.68184550  1
  Zn  Zn111  1  0.68432849  0.18900848  0.18180393  1
  Zn  Zn112  1  0.68679809  0.18567786  0.68941762  1
  Zn  Zn113  1  0.68516689  0.68479477  0.18221870  1
  Zn  Zn114  1  0.67154590  0.71893751  0.67015796  1
  Zn  Zn115  1  0.31194016  0.30912331  0.31137811  1
  Zn  Zn116  1  0.27952078  0.32947234  0.82861585  1
  Zn  Zn117  1  0.31534503  0.80916257  0.31271480  1
  Zn  Zn118  1  0.31328826  0.81198838  0.81533017  1
  Zn  Zn119  1  0.80807916  0.31320813  0.31379361  1
  Zn  Zn120  1  0.81320644  0.30777771  0.81524543  1
  Zn  Zn121  1  0.82084356  0.81765580  0.31792693  1
  Zn  Zn122  1  0.80933594  0.81510628  0.80927127  1
  Zn  Zn123  1  0.18780588  0.43800308  0.43593106  1
  Zn  Zn124  1  0.18532662  0.44196315  0.94347623  1
  Zn  Zn125  1  0.18660416  0.93597903  0.43627157  1
  Zn  Zn126  1  0.19019991  0.93566948  0.93926619  1
  Zn  Zn127  1  0.68338083  0.43505932  0.43690371  1
  Zn  Zn128  1  0.69099644  0.43464822  0.93543476  1
  Zn  Zn129  1  0.68676234  0.93509229  0.42748891  1
  Zn  Zn130  1  0.68711326  0.93293193  0.93345396  1
  Zn  Zn131  1  0.31348420  0.05703736  0.06836504  1
  Zn  Zn132  1  0.31598064  0.06103180  0.56124420  1
  Zn  Zn133  1  0.31048660  0.56106429  0.06419858  1
  Zn  Zn134  1  0.31312293  0.56325291  0.55880682  1
  Zn  Zn135  1  0.81183231  0.06624596  0.06578365  1
  Zn  Zn136  1  0.81517712  0.05964338  0.56020286  1
  Zn  Zn137  1  0.81185037  0.55993390  0.06194097  1
  Zn  Zn138  1  0.81111009  0.56873159  0.56490850  1
  Zn  Zn139  1  0.44418110  0.43899385  0.18259196  1
  Zn  Zn140  1  0.43648345  0.44107350  0.68745858  1
  Zn  Zn141  1  0.43992204  0.93755281  0.18968702  1
  Zn  Zn142  1  0.44412412  0.93968346  0.68747812  1
  Zn  Zn143  1  0.93183605  0.43256927  0.18482961  1
  Zn  Zn144  1  0.93639195  0.43910125  0.68761614  1
  Zn  Zn145  1  0.93851027  0.93769365  0.19325112  1
  Zn  Zn146  1  0.93327148  0.93841751  0.68989092  1
  Zn  Zn147  1  0.06323731  0.06174021  0.31059739  1
  Zn  Zn148  1  0.06114874  0.06507273  0.81312592  1
  Zn  Zn149  1  0.05939345  0.56182163  0.31469279  1
  Zn  Zn150  1  0.06240812  0.56398804  0.80993838  1
  Zn  Zn151  1  0.56752365  0.06249272  0.30941444  1
  Zn  Zn152  1  0.56190236  0.06253733  0.81618028  1
  Zn  Zn153  1  0.56199722  0.56474427  0.30919537  1
  Zn  Zn154  1  0.56513695  0.56440705  0.81348411  1
  Zn  Zn155  1  0.44025109  0.19158000  0.43709992  1
  Zn  Zn156  1  0.43073877  0.18991606  0.93676884  1
  Zn  Zn157  1  0.44088188  0.69110140  0.43414042  1
  Zn  Zn158  1  0.43560059  0.68854262  0.94191585  1
  Zn  Zn159  1  0.93894287  0.18204819  0.43972993  1
  Zn  Zn160  1  0.94019673  0.18409659  0.94384305  1
  Zn  Zn161  1  0.93534928  0.68484032  0.43757768  1
  Zn  Zn162  1  0.93373529  0.68825021  0.93609067  1
  Zn  Zn163  1  0.06040647  0.30984710  0.06010883  1
  Zn  Zn164  1  0.06252191  0.31415347  0.56262160  1
  Zn  Zn165  1  0.06407686  0.81586327  0.06964498  1
  Zn  Zn166  1  0.06946586  0.80821768  0.56343542  1
  Zn  Zn167  1  0.55809153  0.31711051  0.06380087  1
  Zn  Zn168  1  0.56185878  0.31205299  0.56004759  1
  Zn  Zn169  1  0.56223803  0.81326616  0.06624764  1
  Zn  Zn170  1  0.56366100  0.81295415  0.55697751  1
  O  O171  1  0.13019583  0.10738135  0.12686201  1
  O  O172  1  0.11896781  0.11691895  0.62732024  1
  O  O173  1  0.11883044  0.61708453  0.12043034  1
  O  O174  1  0.13190833  0.61203508  0.61086565  1
  O  O175  1  0.61956375  0.11814293  0.12662884  1
  O  O176  1  0.61266551  0.13475290  0.61393825  1
  O  O177  1  0.61798567  0.61221331  0.12477958  1
  O  O178  1  0.61556609  0.62522278  0.61530770  1
  O  O179  1  0.38428658  0.36543004  0.38317740  1
  O  O180  1  0.37356789  0.38298112  0.88227085  1
  O  O181  1  0.39470859  0.86794932  0.37634240  1
  O  O182  1  0.37991023  0.88469921  0.87917137  1
  O  O183  1  0.87981659  0.38062734  0.38131454  1
  O  O184  1  0.87312201  0.37435748  0.88748722  1
  O  O185  1  0.88425514  0.89149114  0.37461229  1
  O  O186  1  0.88175363  0.87443080  0.88355831  1
  O  O187  1  0.24667554  0.01047038  0.36794973  1
  O  O188  1  0.25727203  0.00179584  0.86847155  1
  O  O189  1  0.24884822  0.50489062  0.36145492  1
  O  O190  1  0.25817831  0.51157527  0.87089591  1
  O  O191  1  0.76076927  -0.00313280  0.36315112  1
  O  O192  1  0.75002808  0.01499949  0.88096502  1
  O  O193  1  0.76148601  0.49525622  0.37486555  1
  O  O194  1  0.74513731  0.51009423  0.86571060  1
  O  O195  1  0.24178984  0.49699604  0.13744274  1
  O  O196  1  0.24331312  0.49560918  0.62537640  1
  O  O197  1  0.24258521  0.99756274  0.13852110  1
  O  O198  1  0.24386874  0.99456796  0.62886430  1
  O  O199  1  0.73413126  0.50403942  0.12550142  1
  O  O200  1  0.74282394  0.49661304  0.63058756  1
  O  O201  1  0.75553316  0.99381101  0.13932724  1
  O  O202  1  0.74675390  1.00101080  0.62240308  1
  O  O203  1  -0.00131312  0.37504215  0.26512707  1
  O  O204  1  0.00280607  0.37488187  0.74475798  1
  O  O205  1  0.00813819  0.86308420  0.25072393  1
  O  O206  1  0.00269769  0.86582024  0.75704714  1
  O  O207  1  0.50840736  0.37372179  0.25543860  1
  O  O208  1  0.50114370  0.37190834  0.75862179  1
  O  O209  1  0.50144920  0.86498410  0.25623717  1
  O  O210  1  0.49771286  0.86540499  0.75769550  1
  O  O211  1  0.48869524  0.12455120  0.25058715  1
  O  O212  1  0.49376679  0.13004389  0.74271615  1
  O  O213  1  0.49930841  0.63441780  0.24188660  1
  O  O214  1  0.49491522  0.62958963  0.74204809  1
  O  O215  1  1.00079084  0.12493832  0.24468474  1
  O  O216  1  0.99222346  0.12359966  0.73954056  1
  O  O217  1  0.99396778  0.62983527  0.24465611  1
  O  O218  1  0.99025173  0.63721417  0.75759903  1
  O  O219  1  0.37245191  0.26323273  0.00666157  1
  O  O220  1  0.37610488  0.25819275  0.51185942  1
  O  O221  1  0.36663812  0.76353265  -0.00421316  1
  O  O222  1  0.36219867  0.74938082  0.49757194  1
  O  O223  1  0.86820200  0.25962846  0.00541466  1
  O  O224  1  0.86635708  0.25294116  0.50369839  1
  O  O225  1  0.86735478  0.75986777  0.00513522  1
  O  O226  1  0.86765211  0.74537752  0.50464444  1
  O  O227  1  0.12722771  0.24819899  0.48950048  1
  O  O228  1  0.13168970  0.25182413  0.99873765  1
  O  O229  1  0.13780799  0.73803611  0.50294261  1
  O  O230  1  0.13069232  0.74736035  0.99771778  1
  O  O231  1  0.63048761  0.24387678  0.49268025  1
  O  O232  1  0.63873332  0.26167967  1.00110208  1
  O  O233  1  0.63257422  0.74284817  0.48646958  1
  O  O234  1  0.63694439  0.75419876  0.99556617  1
  O  O235  1  0.48553206  0.25108681  0.12570109  1
  O  O236  1  0.49333544  0.24443814  0.62903027  1
  O  O237  1  0.50930890  0.73874580  0.13710379  1
  O  O238  1  0.49911108  0.74120443  0.63329004  1
  O  O239  1  0.98765686  0.25421228  0.13162139  1
  O  O240  1  0.99289691  0.24115876  0.62248674  1
  O  O241  1  0.99388069  0.74263348  0.13152794  1
  O  O242  1  0.99568072  0.75250146  0.63443727  1
  O  O243  1  0.00537230  0.25616200  0.37777221  1
  O  O244  1  0.00226548  0.24334016  0.87373536  1
  O  O245  1  -0.00131530  0.74815047  0.36387858  1
  O  O246  1  0.00453943  0.75933492  0.86957659  1
  O  O247  1  0.51176841  0.26067576  0.37416852  1
  O  O248  1  0.49743322  0.25791580  0.86851913  1
  O  O249  1  0.50770478  0.75404616  0.36080602  1
  O  O250  1  0.50548046  0.75158227  0.87234434  1
  O  O251  1  0.25023249  0.12525730  0.49241104  1
  O  O252  1  0.25073881  0.11344269  0.98830103  1
  O  O253  1  0.24642693  0.62725628  0.48798517  1
  O  O254  1  0.24366971  0.63131026  0.99590355  1
  O  O255  1  0.74214411  0.13693639  0.50340387  1
  O  O256  1  0.75451326  0.13861232  0.99038152  1
  O  O257  1  0.73810958  0.63247255  0.50002996  1
  O  O258  1  0.76018685  0.63656288  0.99091125  1
  O  O259  1  0.25768572  0.38548400  0.01817768  1
  O  O260  1  0.25804546  0.37439033  0.50732797  1
  O  O261  1  0.26366173  0.86755168  -0.00173224  1
  O  O262  1  0.25138526  0.86643224  0.50477732  1
  O  O263  1  0.75965683  0.36376424  -0.00482282  1
  O  O264  1  0.75207030  0.36582946  0.50556822  1
  O  O265  1  0.75726764  0.86891937  0.00578044  1
  O  O266  1  0.74409468  0.86242649  0.49846977  1
  O  O267  1  0.12578878  0.49876204  0.24080086  1
  O  O268  1  0.13137378  0.50307362  0.73954791  1
  O  O269  1  0.13516285  0.99118348  0.24452418  1
  O  O270  1  0.12824321  0.99360298  0.74028513  1
  O  O271  1  0.62711767  0.49059791  0.24804842  1
  O  O272  1  0.63438379  0.49677058  0.74391810  1
  O  O273  1  0.64614660  0.99992699  0.25311324  1
  O  O274  1  0.61914493  0.99576685  0.75077214  1
  O  O275  1  0.36742909  0.00642655  0.24598967  1
  O  O276  1  0.37310669  0.00448447  0.75861286  1
  O  O277  1  0.36433022  0.49645359  0.24635243  1
  O  O278  1  0.36908262  0.50808258  0.75841670  1
  O  O279  1  0.86494067  -0.00104438  0.25912536  1
  O  O280  1  0.87225924  0.01391939  0.75265400  1
  O  O281  1  0.87275269  0.50599411  0.25680900  1
  O  O282  1  0.86193277  0.50972901  0.74160900  1
  O  O283  1  0.11671959  0.36792348  0.37608100  1
  O  O284  1  0.16961350  0.36886226  0.86184081  1
  O  O285  1  0.11971928  0.87822888  0.36193076  1
  O  O286  1  0.11921422  0.87004713  0.86923833  1
  O  O287  1  0.61727003  0.37053648  0.36516001  1
  O  O288  1  0.61364984  0.37594420  0.86842939  1
  O  O289  1  0.61290868  0.85829037  0.37646640  1
  O  O290  1  0.61742878  0.85991834  0.87511123  1
  O  O291  1  0.37552975  0.13263402  0.13199422  1
  O  O292  1  0.38483113  0.13179315  0.62698648  1
  O  O293  1  0.39098215  0.61925017  0.11925233  1
  O  O294  1  0.38695304  0.61837945  0.62926758  1
  O  O295  1  0.87343961  0.14820570  0.11713487  1
  O  O296  1  0.88203619  0.13050899  0.63097262  1
  O  O297  1  0.87940750  0.62965436  0.13224976  1
  O  O298  1  0.87451996  0.63519639  0.63657345  1
  O  O299  1  0.25962208  0.25959298  0.13553065  1
  O  O300  1  0.25709241  0.25781551  0.62363190  1
  O  O301  1  0.24733062  0.74299284  0.11531836  1
  O  O302  1  0.24816924  0.75863797  0.61562528  1
  O  O303  1  0.75636112  0.25098774  0.11175847  1
  O  O304  1  0.75408415  0.25500513  0.61872682  1
  O  O305  1  0.75368674  0.75743611  0.11877637  1
  O  O306  1  0.76450753  0.74556999  0.60943628  1
  O  O307  1  0.24306266  0.23998887  0.37647113  1
  O  O308  1  0.26181992  0.22573301  0.87296017  1
  O  O309  1  0.25233104  0.73348281  0.37748332  1
  O  O310  1  0.24293281  0.74595259  0.88198358  1
  O  O311  1  0.73686780  0.25719286  0.38463355  1
  O  O312  1  0.74690472  0.24146531  0.88595796  1
  O  O313  1  0.73996765  0.75420506  0.37556688  1
  O  O314  1  0.74245677  0.74509904  0.88139333  1
  O  O315  1  0.00501235  0.11647783  0.01110481  1
  O  O316  1  0.00296406  0.11388725  0.51436299  1
  O  O317  1  0.00059242  0.61706137  0.00554089  1
  O  O318  1  0.01002323  0.61669633  0.49361753  1
  O  O319  1  0.48972559  0.10959664  -0.00117775  1
  O  O320  1  0.50631980  0.11786234  0.50424774  1
  O  O321  1  0.50354654  0.63243331  0.01307448  1
  O  O322  1  0.50784205  0.62703788  0.50478749  1
  O  O323  1  0.49446739  0.37714819  0.49106708  1
  O  O324  1  0.49034710  0.37341188  0.98601003  1
  O  O325  1  0.50034564  0.88072889  0.49051649  1
  O  O326  1  0.48916687  0.87849850  0.99626725  1
  O  O327  1  0.99240392  0.38170806  0.49177850  1
  O  O328  1  0.99275493  0.38831564  1.00279815  1
  O  O329  1  1.01003870  0.88599901  0.50251923  1
  O  O330  1  0.99230302  0.87341356  0.99340486  1
  O  O331  1  0.50343646  0.48841458  0.37505343  1
  O  O332  1  0.48894663  0.49325505  0.86762374  1
  O  O333  1  0.50832419  0.98365299  0.37610791  1
  O  O334  1  0.49111154  0.99544763  0.88615998  1
  O  O335  1  0.99248652  0.49232675  0.38443461  1
  O  O336  1  1.00665485  0.50421626  0.89097459  1
  O  O337  1  0.99521773  0.99951041  0.38551384  1
  O  O338  1  0.99892403  0.98625010  0.87570951  1
  O  O339  1  0.01420766  -0.00513467  0.12634508  1
  O  O340  1  0.00607302  0.00339877  0.62151610  1
  O  O341  1  0.00531221  0.50438998  0.12102075  1
  O  O342  1  0.00645923  0.49789483  0.61007554  1
  O  O343  1  0.50048249  -0.00199385  0.11142716  1
  O  O344  1  0.49885764  0.00903492  0.61300029  1
  O  O345  1  0.51138939  0.51333925  0.12705467  1
  O  O346  1  0.50851077  0.50941418  0.62388173  1
  O  O347  1  0.24901916  0.38612666  0.24409017  1
  O  O348  1  0.25847844  0.38724950  0.73022023  1
  O  O349  1  0.24596451  0.88246203  0.25958029  1
  O  O350  1  0.24629276  0.87783162  0.74325419  1
  O  O351  1  0.73302738  0.37775837  0.25173399  1
  O  O352  1  0.74654833  0.38229151  0.74697496  1
  O  O353  1  0.75425581  0.87053616  0.23785172  1
  O  O354  1  0.74710984  0.88369341  0.74785756  1
  O  O355  1  0.26065043  0.11579781  0.25772859  1
  O  O356  1  0.25689475  0.11503481  0.75493032  1
  O  O357  1  0.24907869  0.61323063  0.26132040  1
  O  O358  1  0.25557538  0.62362288  0.75371134  1
  O  O359  1  0.75179966  0.11976621  0.25085074  1
  O  O360  1  0.75481637  0.12660131  0.76392769  1
  O  O361  1  0.76239442  0.62539804  0.24687234  1
  O  O362  1  0.75567039  0.61954852  0.75554151  1
  O  O363  1  0.36776031  0.13206611  0.36763862  1
  O  O364  1  0.36873377  0.11136689  0.87223146  1
  O  O365  1  0.36412592  0.62017126  0.37939984  1
  O  O366  1  0.37161031  0.61919662  0.87170575  1
  O  O367  1  0.87808638  0.10678321  0.38010708  1
  O  O368  1  0.86472873  0.12370479  0.86973544  1
  O  O369  1  0.88045781  0.61371362  0.36513268  1
  O  O370  1  0.86214023  0.63436112  0.86175098  1
  O  O371  1  0.13141124  0.38211826  0.12920711  1
  O  O372  1  0.13452890  0.38725332  0.62010082  1
  O  O373  1  0.12597842  0.88455833  0.13940591  1
  O  O374  1  0.13539441  0.88096202  0.63137992  1
  O  O375  1  0.61469318  0.38929978  0.13606662  1
  O  O376  1  0.62840268  0.38244287  0.62957009  1
  O  O377  1  0.63999740  0.88243022  0.11954860  1
  O  O378  1  0.63754103  0.83544275  0.63685885  1
  O  O379  1  0.12408460  0.25262074  0.26438023  1
  O  O380  1  0.12227503  0.25637547  0.75903207  1
  O  O381  1  0.11709824  0.75629723  0.24506522  1
  O  O382  1  0.11734150  0.75261911  0.75325075  1
  O  O383  1  0.62389652  0.26180813  0.25442730  1
  O  O384  1  0.61675166  0.25879727  0.75106733  1
  O  O385  1  0.62075522  0.74447754  0.25913110  1
  O  O386  1  0.60782346  0.74361464  0.76333104  1
  O  O387  1  0.37722669  0.24104405  0.24261258  1
  O  O388  1  0.37875772  0.24500644  0.73757790  1
  O  O389  1  0.38888360  0.74768132  0.24794506  1
  O  O390  1  0.38623685  0.74172491  0.75790053  1
  O  O391  1  0.87165998  0.25950808  0.23665905  1
  O  O392  1  0.87367561  0.23857001  0.74243503  1
  O  O393  1  0.88282180  0.74283609  0.24677780  1
  O  O394  1  0.88125760  0.74593622  0.74184229  1
  O  O395  1  0.37862717  0.48549802  0.50387762  1
  O  O396  1  0.37116176  0.49153392  0.99015366  1
  O  O397  1  0.38939189  0.99822112  0.49657944  1
  O  O398  1  0.37921639  0.98777198  0.99615597  1
  O  O399  1  0.87956156  0.49916660  0.49531388  1
  O  O400  1  0.88673602  0.49163623  1.00420799  1
  O  O401  1  0.88544103  1.00026211  0.49112031  1
  O  O402  1  0.87495745  0.98764664  1.00151205  1
  O  O403  1  0.12770815  -0.00860909  0.01702843  1
  O  O404  1  0.12160514  0.00029867  0.51298088  1
  O  O405  1  0.11476111  0.50435690  0.01144306  1
  O  O406  1  0.11736697  0.50536947  0.50277000  1
  O  O407  1  0.60805788  -0.00610357  -0.00428016  1
  O  O408  1  0.61852420  0.01081483  0.48930440  1
  O  O409  1  0.62585221  0.49475601  0.00980820  1
  O  O410  1  0.62382230  0.50919155  0.50415035  1
  O  O411  1  0.37041190  0.37111322  0.11896404  1
  O  O412  1  0.37206625  0.36846248  0.61793014  1
  O  O413  1  0.37719017  0.87369546  0.11437676  1
  O  O414  1  0.36363847  0.88185572  0.62274945  1
  O  O415  1  0.87432373  0.36381844  0.11281358  1
  O  O416  1  0.86654187  0.37012482  0.61742675  1
  O  O417  1  0.86887463  0.86954361  0.11993369  1
  O  O418  1  0.87374175  0.86236580  0.62668109  1
  O  O419  1  0.13424124  0.13010047  0.37841521  1
  O  O420  1  0.14032646  0.11601287  0.87844939  1
  O  O421  1  0.13579268  0.61637734  0.38437461  1
  O  O422  1  0.12921600  0.63143786  0.88232354  1
  O  O423  1  0.61952046  0.13652278  0.38338202  1
  O  O424  1  0.63645307  0.13094091  0.87582323  1
  O  O425  1  0.61960946  0.63800036  0.38010455  1
  O  O426  1  0.63587599  0.63453502  0.87458106  1
