# generated using pymatgen
data_V85Zn86O256
_symmetry_space_group_name_H-M   'P 1'
_cell_length_a   16.92420016
_cell_length_b   16.91644344
_cell_length_c   16.92122527
_cell_angle_alpha   89.95079989
_cell_angle_beta   89.96546803
_cell_angle_gamma   90.00436347
_symmetry_Int_Tables_number   1
_chemical_formula_structural   V85Zn86O256
_chemical_formula_sum   'V85 Zn86 O256'
_cell_volume   4844.49800126
_cell_formula_units_Z   1
loop_
 _symmetry_equiv_pos_site_id
 _symmetry_equiv_pos_as_xyz
  1  'x, y, z'
loop_
 _atom_site_type_symbol
 _atom_site_label
 _atom_site_symmetry_multiplicity
 _atom_site_fract_x
 _atom_site_fract_y
 _atom_site_fract_z
 _atom_site_occupancy
  V  V0  1  0.49428849  0.61951519  0.63226512  1
  V  V1  1  0.74546657  0.88005872  0.12301369  1
  V  V2  1  0.63080054  0.12421061  -0.01548292  1
  V  V3  1  0.73886921  0.00287999  0.75632466  1
  V  V4  1  0.87266119  0.49428971  0.38465438  1
  V  V5  1  0.00998927  -0.00137278  0.50537549  1
  V  V6  1  0.62431344  0.87954721  0.24701062  1
  V  V7  1  0.50379623  0.88386224  0.87122894  1
  V  V8  1  0.37205003  0.74665978  0.63149329  1
  V  V9  1  0.13284638  0.48547264  0.12015810  1
  V  V10  1  -0.00495809  0.88001762  0.87775726  1
  V  V11  1  0.24757541  -0.00462145  0.23396067  1
  V  V12  1  0.24766910  0.25393362  0.00121073  1
  V  V13  1  0.01347600  0.12540141  0.12990280  1
  V  V14  1  0.37943207  0.24619284  0.64232594  1
  V  V15  1  0.37428707  0.12308787  0.24793758  1
  V  V16  1  0.00968958  0.00898188  0.00332454  1
  V  V17  1  0.62382671  0.12251511  0.50495244  1
  V  V18  1  0.24800304  0.61989524  0.37157882  1
  V  V19  1  0.87571475  0.62405310  0.75154063  1
  V  V20  1  0.24543043  0.74957483  0.00300863  1
  V  V21  1  0.00132748  0.87402681  0.37364818  1
  V  V22  1  0.62220802  0.75090704  0.37614890  1
  V  V23  1  0.25878307  0.62558761  0.87100671  1
  V  V24  1  0.49994378  0.50001540  -0.00624596  1
  V  V25  1  0.73492906  0.88150519  0.62983259  1
  V  V26  1  0.00016892  0.62467657  0.62620665  1
  V  V27  1  0.37190133  -0.00177766  0.37512187  1
  V  V28  1  0.49753848  0.12544571  0.63620831  1
  V  V29  1  0.74800418  0.00333748  0.24695524  1
  V  V30  1  0.74802059  0.50206956  0.24870164  1
  V  V31  1  0.24945394  0.48667989  0.24300749  1
  V  V32  1  0.50154681  0.49515980  0.49797631  1
  V  V33  1  0.74847374  0.49836458  0.75190494  1
  V  V34  1  0.49897267  0.25442044  0.25388979  1
  V  V35  1  0.37338128  0.25657479  0.12372942  1
  V  V36  1  0.12377453  0.62078819  0.49687246  1
  V  V37  1  -0.00110681  0.25286081  0.75580712  1
  V  V38  1  0.62174801  0.37702505  0.25339099  1
  V  V39  1  0.62389699  0.36011876  0.75487108  1
  V  V40  1  0.24628500  0.87861832  0.62524357  1
  V  V41  1  0.26632642  0.00652861  0.75062335  1
  V  V42  1  0.87898964  0.48648976  0.87887155  1
  V  V43  1  0.75310159  0.37512153  0.62359891  1
  V  V44  1  0.12356577  0.88942338  0.75029964  1
  V  V45  1  0.12412758  0.74472494  0.87686747  1
  V  V46  1  0.50067883  0.00016881  0.50612010  1
  V  V47  1  0.00028268  0.48601185  -0.00280817  1
  V  V48  1  0.12349474  0.23766974  0.87783908  1
  V  V49  1  0.00103043  0.75289289  0.75160857  1
  V  V50  1  0.75199848  0.62695895  0.87467540  1
  V  V51  1  0.26659764  0.12089677  0.87921234  1
  V  V52  1  0.36981393  0.75388666  0.12289839  1
  V  V53  1  0.49790795  0.87476029  0.37598699  1
  V  V54  1  0.75025878  0.24949857  -0.00900326  1
  V  V55  1  0.87964397  0.24945003  0.62095355  1
  V  V56  1  0.87476891  0.87483519  0.50376607  1
  V  V57  1  0.75165121  0.12508078  0.37748190  1
  V  V58  1  0.62306774  0.25394523  0.37657900  1
  V  V59  1  0.87285081  0.75105287  0.12107128  1
  V  V60  1  0.62541770  0.49998174  0.12314212  1
  V  V61  1  0.87857618  0.24696897  0.12782325  1
  V  V62  1  0.49665539  0.74932524  0.24752812  1
  V  V63  1  0.50273783  0.35774241  0.87540601  1
  V  V64  1  0.00206130  0.74749959  0.24827442  1
  V  V65  1  0.50412466  0.74868973  0.75322042  1
  V  V66  1  0.37866124  0.36878146  0.49838123  1
  V  V67  1  0.01066575  0.62493075  0.11469733  1
  V  V68  1  0.12457786  0.49833465  0.62620815  1
  V  V69  1  0.12251859  0.25281515  0.36363252  1
  V  V70  1  0.62616912  0.62788964  -0.00159363  1
  V  V71  1  0.24941299  0.37254445  0.62634174  1
  V  V72  1  0.75809612  0.37450595  0.12046851  1
  V  V73  1  0.12506146  0.37467762  0.75867044  1
  V  V74  1  0.51387088  0.11856805  0.12883179  1
  V  V75  1  0.12546032  0.74700601  0.37391539  1
  V  V76  1  0.87413197  0.62589843  0.24744471  1
  V  V77  1  0.36984421  0.88431015  -0.00488273  1
  V  V78  1  0.00990944  0.12297244  0.62675836  1
  V  V79  1  0.75570689  0.25328941  0.49896145  1
  V  V80  1  0.87559724  0.00017157  0.37592833  1
  V  V81  1  0.87328665  0.75210839  0.62647431  1
  V  V82  1  0.74813213  0.62890411  0.37678228  1
  V  V83  1  0.12809918  0.87703694  0.23718686  1
  V  V84  1  0.37799410  0.49376435  0.37231978  1
  Zn  Zn85  1  0.38067436  0.50150054  0.86821243  1
  Zn  Zn86  1  0.37352454  0.62377230  0.24621100  1
  Zn  Zn87  1  0.49789036  0.62542541  0.12169703  1
  Zn  Zn88  1  0.74609533  0.75262858  0.50309161  1
  Zn  Zn89  1  0.00133174  0.36537151  0.37434067  1
  Zn  Zn90  1  0.62792445  0.75537900  0.86996336  1
  Zn  Zn91  1  0.88141881  0.13141040  0.25326447  1
  Zn  Zn92  1  0.12970302  0.12536129  0.49935739  1
  Zn  Zn93  1  0.50353878  -0.00011420  0.00321282  1
  Zn  Zn94  1  0.62235175  0.62345583  0.50317980  1
  Zn  Zn95  1  0.24681091  0.12372826  0.37598560  1
  Zn  Zn96  1  -0.00923258  0.49081368  0.50499953  1
  Zn  Zn97  1  0.74926069  0.75517575  -0.00320049  1
  Zn  Zn98  1  0.62286469  0.49851162  0.62731197  1
  Zn  Zn99  1  0.86790892  0.01721000  0.87895361  1
  Zn  Zn100  1  0.37265149  0.87284870  0.50173359  1
  Zn  Zn101  1  0.37206138  0.37898287  0.00077899  1
  Zn  Zn102  1  0.25665991  0.50767291  0.74617599  1
  Zn  Zn103  1  0.24871146  0.24318701  0.49902974  1
  Zn  Zn104  1  0.86876684  0.12498524  0.75440118  1
  Zn  Zn105  1  0.25198365  0.74909748  0.50084357  1
  Zn  Zn106  1  0.87242659  0.88283242  -0.00006380  1
  Zn  Zn107  1  0.19166939  0.18824965  0.18857637  1
  Zn  Zn108  1  0.19028308  0.18692784  0.68949217  1
  Zn  Zn109  1  0.18818920  0.68432417  0.18777444  1
  Zn  Zn110  1  0.18480941  0.69101395  0.69010386  1
  Zn  Zn111  1  0.69240185  0.19116828  0.18877948  1
  Zn  Zn112  1  0.68655765  0.18398368  0.68511834  1
  Zn  Zn113  1  0.68522211  0.69010916  0.18592940  1
  Zn  Zn114  1  0.68340704  0.68837441  0.68637809  1
  Zn  Zn115  1  0.30810849  0.31018773  0.31471298  1
  Zn  Zn116  1  0.31249455  0.31606329  0.81697954  1
  Zn  Zn117  1  0.30931657  0.81242275  0.31169060  1
  Zn  Zn118  1  0.31486355  0.81448752  0.81271652  1
  Zn  Zn119  1  0.81169707  0.31423806  0.30869626  1
  Zn  Zn120  1  0.81350602  0.30803957  0.81042245  1
  Zn  Zn121  1  0.81280444  0.81407405  0.31042869  1
  Zn  Zn122  1  0.81071913  0.81658514  0.80993240  1
  Zn  Zn123  1  0.18722216  0.43299246  0.43813768  1
  Zn  Zn124  1  0.18617643  0.43791842  0.93942279  1
  Zn  Zn125  1  0.18877848  0.93521105  0.43306292  1
  Zn  Zn126  1  0.18651534  0.93857813  0.93542784  1
  Zn  Zn127  1  0.68768412  0.43778238  0.43878409  1
  Zn  Zn128  1  0.68771515  0.43558323  0.93572037  1
  Zn  Zn129  1  0.68673476  0.93773692  0.43969261  1
  Zn  Zn130  1  0.68335375  0.94233591  0.94017639  1
  Zn  Zn131  1  0.31389793  0.06924590  0.06191980  1
  Zn  Zn132  1  0.31308645  0.06182950  0.56478189  1
  Zn  Zn133  1  0.31258175  0.56820175  0.05594799  1
  Zn  Zn134  1  0.31345905  0.55996688  0.56173065  1
  Zn  Zn135  1  0.81695165  0.06520255  0.06044196  1
  Zn  Zn136  1  0.81531301  0.06221658  0.56767239  1
  Zn  Zn137  1  0.81612308  0.56207379  0.05903640  1
  Zn  Zn138  1  0.80676595  0.56649260  0.56434781  1
  Zn  Zn139  1  0.43872175  0.43851220  0.18551827  1
  Zn  Zn140  1  0.43677059  0.43463312  0.69218005  1
  Zn  Zn141  1  0.43382890  0.93543148  0.18314214  1
  Zn  Zn142  1  0.43814175  0.93474748  0.68735671  1
  Zn  Zn143  1  0.93760391  0.43455595  0.19016697  1
  Zn  Zn144  1  0.93720963  0.43453424  0.68861971  1
  Zn  Zn145  1  0.93711819  0.94088382  0.18613740  1
  Zn  Zn146  1  0.93153110  0.94269825  0.69086737  1
  Zn  Zn147  1  0.06587215  0.06332135  0.31272211  1
  Zn  Zn148  1  0.05870708  0.06634966  0.81518505  1
  Zn  Zn149  1  0.04493224  0.52708581  0.29384999  1
  Zn  Zn150  1  0.06590553  0.56192786  0.81504116  1
  Zn  Zn151  1  0.56363408  0.06363287  0.31647631  1
  Zn  Zn152  1  0.56521802  0.05791961  0.81195890  1
  Zn  Zn153  1  0.55906535  0.56381737  0.31347476  1
  Zn  Zn154  1  0.56433969  0.56123781  0.81023143  1
  Zn  Zn155  1  0.43745843  0.18538153  0.43666067  1
  Zn  Zn156  1  0.43909733  0.18453824  0.94312095  1
  Zn  Zn157  1  0.43329984  0.68270847  0.44206952  1
  Zn  Zn158  1  0.43714611  0.69185107  0.93788401  1
  Zn  Zn159  1  0.94357844  0.18769731  0.43730371  1
  Zn  Zn160  1  0.93501774  0.18943323  0.94062718  1
  Zn  Zn161  1  0.93771639  0.68454961  0.43817891  1
  Zn  Zn162  1  0.93651398  0.68728788  0.93866186  1
  Zn  Zn163  1  0.06347415  0.30691441  0.06237642  1
  Zn  Zn164  1  0.06295468  0.31346436  0.55193784  1
  Zn  Zn165  1  0.06018527  0.81518430  0.05846601  1
  Zn  Zn166  1  0.06538930  0.81071375  0.56372307  1
  Zn  Zn167  1  0.56605577  0.30955142  0.06391608  1
  Zn  Zn168  1  0.56330647  0.31142718  0.56656888  1
  Zn  Zn169  1  0.56040129  0.81422240  0.05971456  1
  Zn  Zn170  1  0.55688055  0.80957012  0.56264659  1
  O  O171  1  0.11237094  0.12879833  0.12740982  1
  O  O172  1  0.11325064  0.12919349  0.62415665  1
  O  O173  1  0.11253310  0.62422551  0.12227598  1
  O  O174  1  0.12124422  0.62016226  0.61910533  1
  O  O175  1  0.61439474  0.12744894  0.13149537  1
  O  O176  1  0.61486676  0.13238895  0.61087672  1
  O  O177  1  0.62401304  0.61861354  0.11657312  1
  O  O178  1  0.61049769  0.62292576  0.62301247  1
  O  O179  1  0.37003660  0.38542107  0.38255945  1
  O  O180  1  0.39243214  0.37429637  0.87807151  1
  O  O181  1  0.38063262  0.88071936  0.37631336  1
  O  O182  1  0.38589004  0.86959263  0.88837051  1
  O  O183  1  0.86882938  0.39262933  0.37191713  1
  O  O184  1  0.87391432  0.38763820  0.86879329  1
  O  O185  1  0.88033402  0.87804167  0.38327474  1
  O  O186  1  0.88891362  0.87201258  0.87506813  1
  O  O187  1  0.26357675  -0.00204375  0.36850466  1
  O  O188  1  0.24727407  0.01294878  0.86697113  1
  O  O189  1  0.25385536  0.50286639  0.36558772  1
  O  O190  1  0.24609644  0.51841833  0.87930140  1
  O  O191  1  0.75695044  0.00447801  0.37211309  1
  O  O192  1  0.75056805  -0.01051890  0.86037699  1
  O  O193  1  0.75461154  0.51046728  0.37194391  1
  O  O194  1  0.75883541  0.50617752  0.87235523  1
  O  O195  1  0.24016583  0.50511506  0.12402370  1
  O  O196  1  0.24283465  0.49182097  0.62558217  1
  O  O197  1  0.25562802  1.00220748  0.13461619  1
  O  O198  1  0.25415580  0.99358513  0.64060673  1
  O  O199  1  0.74609358  0.49397512  0.12671130  1
  O  O200  1  0.74931179  0.49105284  0.63171215  1
  O  O201  1  0.75642900  0.99269370  0.13540470  1
  O  O202  1  0.75284444  0.98648776  0.63003953  1
  O  O203  1  0.00727277  0.41803589  0.27286188  1
  O  O204  1  0.00988615  0.36155006  0.74300032  1
  O  O205  1  0.00468363  0.86967616  0.25511935  1
  O  O206  1  0.00577092  0.87381951  0.75573207  1
  O  O207  1  0.50918886  0.36686410  0.24537737  1
  O  O208  1  0.51435414  0.37507849  0.76147505  1
  O  O209  1  0.50294830  0.86658471  0.25353328  1
  O  O210  1  0.49407088  0.86927672  0.76468214  1
  O  O211  1  0.49643389  0.12928979  0.24327947  1
  O  O212  1  0.50644427  0.11783513  0.73521853  1
  O  O213  1  0.49750161  0.63828595  0.24813477  1
  O  O214  1  0.50027510  0.63182487  0.74348047  1
  O  O215  1  0.99733084  0.11288405  0.23378771  1
  O  O216  1  1.00013716  0.13638307  0.74225914  1
  O  O217  1  0.99293663  0.62547004  0.23592701  1
  O  O218  1  0.99649107  0.63075737  0.74570726  1
  O  O219  1  0.36959318  0.24941639  0.00904442  1
  O  O220  1  0.37576969  0.26161106  0.49837844  1
  O  O221  1  0.36707090  0.75803111  0.00558315  1
  O  O222  1  0.37348397  0.75168857  0.51369151  1
  O  O223  1  0.85921291  0.24732671  0.01281321  1
  O  O224  1  0.86384936  0.24498871  0.50519327  1
  O  O225  1  0.87353597  0.75361105  0.01193899  1
  O  O226  1  0.87413891  0.76146737  0.50392913  1
  O  O227  1  0.12998355  0.24457346  0.49111290  1
  O  O228  1  0.13337965  0.25364382  0.98896015  1
  O  O229  1  0.12667248  0.73650367  0.49536135  1
  O  O230  1  0.13490870  0.76072441  0.99049901  1
  O  O231  1  0.63271959  0.24569547  0.49493491  1
  O  O232  1  0.63806917  0.23703808  1.00907042  1
  O  O233  1  0.62119998  0.74846059  0.48602859  1
  O  O234  1  0.62581574  0.73685889  0.99907707  1
  O  O235  1  0.49686112  0.24086138  0.13592757  1
  O  O236  1  0.48680875  0.24294045  0.62176345  1
  O  O237  1  0.49347372  0.74987874  0.13272908  1
  O  O238  1  0.49221886  0.74326693  0.63182713  1
  O  O239  1  0.99308330  0.23604482  0.11796493  1
  O  O240  1  0.99368014  0.24452790  0.62822603  1
  O  O241  1  0.99428812  0.74147042  0.12666405  1
  O  O242  1  0.99439561  0.74535503  0.63170323  1
  O  O243  1  0.01361566  0.24759287  0.37214306  1
  O  O244  1  0.01000428  0.24788567  0.86766064  1
  O  O245  1  0.00418988  0.75178245  0.36759608  1
  O  O246  1  0.00602617  0.75656209  0.87313624  1
  O  O247  1  0.50497316  0.24492165  0.36122887  1
  O  O248  1  0.50311446  0.25910563  0.88142130  1
  O  O249  1  0.50254317  0.75245409  0.36908689  1
  O  O250  1  0.50098665  0.75750581  0.86805549  1
  O  O251  1  0.24924613  0.12255618  0.49590269  1
  O  O252  1  0.25403593  0.13193878  0.98582683  1
  O  O253  1  0.24301115  0.62219225  0.48886239  1
  O  O254  1  0.25003021  0.64046189  0.98698682  1
  O  O255  1  0.74304590  0.13016717  0.49857719  1
  O  O256  1  0.73872854  0.13456800  1.00537253  1
  O  O257  1  0.74377860  0.63223036  0.49171895  1
  O  O258  1  0.74476194  0.62678393  0.99157032  1
  O  O259  1  0.25529393  0.35956929  -0.01053289  1
  O  O260  1  0.25951071  0.37472557  0.51342237  1
  O  O261  1  0.26245250  0.86785032  -0.01049439  1
  O  O262  1  0.24932058  0.87379328  0.51115822  1
  O  O263  1  0.73979747  0.36313739  0.01021560  1
  O  O264  1  0.74323381  0.36513178  0.51085352  1
  O  O265  1  0.75075475  0.87540615  0.00877758  1
  O  O266  1  0.75728567  0.87484886  0.50949214  1
  O  O267  1  0.13794765  0.51011086  0.22821340  1
  O  O268  1  0.12760154  0.49146295  0.74457886  1
  O  O269  1  0.13653887  0.98889010  0.25663665  1
  O  O270  1  0.12868630  0.99132947  0.75509423  1
  O  O271  1  0.62737395  0.49560293  0.24560978  1
  O  O272  1  0.63445614  0.49079752  0.74884150  1
  O  O273  1  0.63847360  0.99468677  0.25878588  1
  O  O274  1  0.63874555  0.99560576  0.74917033  1
  O  O275  1  0.37069964  0.00388176  0.25435130  1
  O  O276  1  0.36418656  -0.00301133  0.75381440  1
  O  O277  1  0.37145284  0.50231503  0.25513073  1
  O  O278  1  0.36854220  0.49418521  0.75571896  1
  O  O279  1  0.86378496  -0.00194437  0.25997906  1
  O  O280  1  0.86175581  0.00254257  0.75521820  1
  O  O281  1  0.86377787  0.51003122  0.25852555  1
  O  O282  1  0.87068188  0.50603677  0.75683007  1
  O  O283  1  0.12900715  0.35835349  0.37698181  1
  O  O284  1  0.13371361  0.36689661  0.86154592  1
  O  O285  1  0.11824927  0.86481074  0.37023831  1
  O  O286  1  0.11455511  0.86927086  0.86796664  1
  O  O287  1  0.63193083  0.37115409  0.36126905  1
  O  O288  1  0.61783425  0.37590824  0.86401834  1
  O  O289  1  0.61889621  0.86819374  0.36949969  1
  O  O290  1  0.60753357  0.87156950  0.88514384  1
  O  O291  1  0.38632029  0.13274449  0.13375409  1
  O  O292  1  0.38189521  0.13928148  0.62167721  1
  O  O293  1  0.37786710  0.63844597  0.12400933  1
  O  O294  1  0.38450063  0.63091800  0.62139102  1
  O  O295  1  0.88203903  0.13345397  0.12917361  1
  O  O296  1  0.88287429  0.13715148  0.62740844  1
  O  O297  1  0.87965474  0.63273965  0.12841176  1
  O  O298  1  0.87844636  0.63181830  0.63074185  1
  O  O299  1  0.26049176  0.24140764  0.11399780  1
  O  O300  1  0.26297109  0.25427158  0.62421218  1
  O  O301  1  0.25594850  0.74588288  0.11543904  1
  O  O302  1  0.25627373  0.75624691  0.62645885  1
  O  O303  1  0.75638450  0.25829375  0.12069342  1
  O  O304  1  0.75720415  0.25413909  0.61783708  1
  O  O305  1  0.75776124  0.75810090  0.12507146  1
  O  O306  1  0.75486403  0.76063842  0.62571051  1
  O  O307  1  0.24250617  0.24411736  0.37742058  1
  O  O308  1  0.24690334  0.23768971  0.87744303  1
  O  O309  1  0.24488228  0.73917141  0.37682509  1
  O  O310  1  0.24399661  0.74464193  0.87805703  1
  O  O311  1  0.74688061  0.24662676  0.38208431  1
  O  O312  1  0.75168879  0.25758615  0.89235344  1
  O  O313  1  0.73968548  0.74644283  0.37414141  1
  O  O314  1  0.74845842  0.74278856  0.87516233  1
  O  O315  1  0.00009376  0.11557258  0.00944515  1
  O  O316  1  -0.00042404  0.11396310  0.50928503  1
  O  O317  1  -0.00517525  0.61923433  0.01212778  1
  O  O318  1  0.00695907  0.62421163  0.51059537  1
  O  O319  1  0.51316119  0.12694740  0.01305399  1
  O  O320  1  0.50549342  0.11835998  0.50471197  1
  O  O321  1  0.50869998  0.61848833  -0.00262639  1
  O  O322  1  0.49898645  0.61105274  0.50729670  1
  O  O323  1  0.49362542  0.38538271  0.50609776  1
  O  O324  1  0.50690346  0.38009424  0.98898253  1
  O  O325  1  0.49772052  0.88344539  0.49466160  1
  O  O326  1  0.48976352  0.87667299  0.99187360  1
  O  O327  1  0.99802917  0.37983879  0.48956617  1
  O  O328  1  1.00029015  0.38729430  1.00272964  1
  O  O329  1  0.99418716  0.87919732  0.49750868  1
  O  O330  1  0.99602454  0.88565430  0.99377884  1
  O  O331  1  0.48955878  0.50368072  0.38303390  1
  O  O332  1  0.50400381  0.49467906  0.88493916  1
  O  O333  1  0.49023133  0.99569558  0.38030597  1
  O  O334  1  0.50034787  0.98742703  0.87877915  1
  O  O335  1  0.97400438  0.52533042  0.38612749  1
  O  O336  1  0.99581593  0.50613101  0.88940104  1
  O  O337  1  0.99289510  0.99396131  0.38262379  1
  O  O338  1  0.99841984  0.99571859  0.88437947  1
  O  O339  1  -0.00430355  0.01040899  0.11302882  1
  O  O340  1  -0.00622462  0.00927967  0.61751804  1
  O  O341  1  0.00733620  0.50718516  0.11458009  1
  O  O342  1  0.00511702  0.50640227  0.62540949  1
  O  O343  1  0.49696656  0.01498561  0.12622517  1
  O  O344  1  0.49106909  0.00640368  0.61328390  1
  O  O345  1  0.50692087  0.50073269  0.11164484  1
  O  O346  1  0.49891216  0.50470609  0.61954108  1
  O  O347  1  0.25702267  0.38761106  0.24629014  1
  O  O348  1  0.24314641  0.37272133  0.73938338  1
  O  O349  1  0.24057538  0.88201019  0.25163949  1
  O  O350  1  0.24410923  0.88687949  0.74941843  1
  O  O351  1  0.74239316  0.38303126  0.24123278  1
  O  O352  1  0.74163762  0.37735202  0.74561737  1
  O  O353  1  0.74467081  0.88241384  0.24443565  1
  O  O354  1  0.75114085  0.88197366  0.73595657  1
  O  O355  1  0.26084069  0.11507547  0.25092170  1
  O  O356  1  0.24961116  0.11270911  0.75747887  1
  O  O357  1  0.25240675  0.61883296  0.26075313  1
  O  O358  1  0.24357252  0.62757263  0.76632734  1
  O  O359  1  0.75147042  0.11827062  0.25842712  1
  O  O360  1  0.74870220  0.10737234  0.73987558  1
  O  O361  1  0.75181061  0.62197929  0.25604376  1
  O  O362  1  0.75370454  0.61978071  0.75590041  1
  O  O363  1  0.37856619  0.11618213  0.36168736  1
  O  O364  1  0.36574873  0.12606971  0.87504757  1
  O  O365  1  0.36548059  0.61209915  0.37564796  1
  O  O366  1  0.36159789  0.62762854  0.87656000  1
  O  O367  1  0.87007309  0.11867365  0.37453002  1
  O  O368  1  0.87517139  0.13118197  0.86822489  1
  O  O369  1  0.85953139  0.62819866  0.36969289  1
  O  O370  1  0.86584665  0.62015189  0.87156177  1
  O  O371  1  0.12399397  0.38716386  0.12348575  1
  O  O372  1  0.13380144  0.37716065  0.63079853  1
  O  O373  1  0.11929332  0.87073209  0.13833033  1
  O  O374  1  0.13757590  0.86837040  0.63546781  1
  O  O375  1  0.63277099  0.38006887  0.13485895  1
  O  O376  1  0.63366942  0.37388170  0.63711550  1
  O  O377  1  0.63644290  0.86937975  0.13094400  1
  O  O378  1  0.63709761  0.87211555  0.61748606  1
  O  O379  1  0.13117267  0.24769508  0.26336251  1
  O  O380  1  0.11955911  0.25512180  0.75617925  1
  O  O381  1  0.12005326  0.75388392  0.25465687  1
  O  O382  1  0.11808422  0.76109312  0.75799803  1
  O  O383  1  0.61928934  0.25815774  0.25469816  1
  O  O384  1  0.63117173  0.26137956  0.74996925  1
  O  O385  1  0.61683296  0.75578622  0.25878345  1
  O  O386  1  0.60972407  0.75001689  0.75020493  1
  O  O387  1  0.38095105  0.24274246  0.24648909  1
  O  O388  1  0.37582888  0.25325731  0.74034441  1
  O  O389  1  0.38016564  0.75110883  0.24177082  1
  O  O390  1  0.38407176  0.75413588  0.73887831  1
  O  O391  1  0.87114717  0.25019927  0.23563022  1
  O  O392  1  0.88350972  0.25055730  0.74016054  1
  O  O393  1  0.88093496  0.74631024  0.23992430  1
  O  O394  1  0.88168794  0.74438444  0.74659475  1
  O  O395  1  0.38006373  0.48889718  0.49344640  1
  O  O396  1  0.38513675  0.49862764  0.99475332  1
  O  O397  1  0.38263177  0.99821474  0.49062325  1
  O  O398  1  0.37628694  0.98670503  1.00556672  1
  O  O399  1  0.86589468  0.50402959  0.48824090  1
  O  O400  1  0.88908156  0.50145310  0.99326153  1
  O  O401  1  0.88056200  0.98932789  0.49639685  1
  O  O402  1  0.88509053  0.99964248  0.99544840  1
  O  O403  1  0.10892332  -0.00438971  -0.00205154  1
  O  O404  1  0.11243995  -0.00211945  0.49585879  1
  O  O405  1  0.11500557  0.49903436  0.00892332  1
  O  O406  1  0.12427207  0.50957179  0.50508440  1
  O  O407  1  0.62390671  0.01899131  0.00238475  1
  O  O408  1  0.61355888  0.01020946  0.49240273  1
  O  O409  1  0.62185942  0.51013105  0.00207623  1
  O  O410  1  0.61526382  0.50014428  0.50264382  1
  O  O411  1  0.38318820  0.36051290  0.12146528  1
  O  O412  1  0.37188255  0.36298492  0.61970590  1
  O  O413  1  0.37906871  0.86356526  0.11028713  1
  O  O414  1  0.36265452  0.86766038  0.62578560  1
  O  O415  1  0.86475989  0.37155328  0.12881843  1
  O  O416  1  0.86209374  0.36448688  0.63052199  1
  O  O417  1  0.86502142  0.86732987  0.12682377  1
  O  O418  1  0.87122722  0.86972038  0.61794152  1
  O  O419  1  0.12674744  0.13335245  0.37700952  1
  O  O420  1  0.13510439  0.13512351  0.86998871  1
  O  O421  1  0.13042146  0.62572088  0.38196644  1
  O  O422  1  0.12951413  0.64034584  0.87339959  1
  O  O423  1  0.63065714  0.13322259  0.38493864  1
  O  O424  1  0.62142494  0.12770654  0.88644018  1
  O  O425  1  0.63326144  0.63240313  0.37362753  1
  O  O426  1  0.63771913  0.62502422  0.88004457  1
