# generated using pymatgen
data_V85Zn86O256
_symmetry_space_group_name_H-M   'P 1'
_cell_length_a   16.92879788
_cell_length_b   16.93302435
_cell_length_c   16.93698181
_cell_angle_alpha   90.01199530
_cell_angle_beta   90.00704732
_cell_angle_gamma   90.00927164
_symmetry_Int_Tables_number   1
_chemical_formula_structural   V85Zn86O256
_chemical_formula_sum   'V85 Zn86 O256'
_cell_volume   4855.08296204
_cell_formula_units_Z   1
loop_
 _symmetry_equiv_pos_site_id
 _symmetry_equiv_pos_as_xyz
  1  'x, y, z'
loop_
 _atom_site_type_symbol
 _atom_site_label
 _atom_site_symmetry_multiplicity
 _atom_site_fract_x
 _atom_site_fract_y
 _atom_site_fract_z
 _atom_site_occupancy
  V  V0  1  0.63069209  0.12518065  0.00800897  1
  V  V1  1  0.00340735  0.75917062  0.74925650  1
  V  V2  1  0.11437132  0.50155205  0.12681880  1
  V  V3  1  0.63521397  0.50347734  0.63032548  1
  V  V4  1  -0.00225579  0.50215562  -0.01489063  1
  V  V5  1  0.63173383  0.74779882  0.87409856  1
  V  V6  1  -0.00187607  0.00159163  -0.00904879  1
  V  V7  1  0.37589371  0.25139352  0.11960091  1
  V  V8  1  0.37061393  0.50155771  0.37665609  1
  V  V9  1  0.86372914  0.62308358  0.75047406  1
  V  V10  1  0.37585776  0.62337981  0.25585767  1
  V  V11  1  0.37051544  0.62024472  0.76462888  1
  V  V12  1  0.25076807  0.24994825  -0.00371405  1
  V  V13  1  0.75511904  0.11478599  0.87463616  1
  V  V14  1  0.50920154  0.76057865  0.74185453  1
  V  V15  1  0.62949122  0.38070238  0.75409510  1
  V  V16  1  0.50169698  0.37905035  0.88263512  1
  V  V17  1  0.62956106  0.62372170  -0.00302834  1
  V  V18  1  0.62574042  0.25801607  0.37534057  1
  V  V19  1  0.00082614  0.12558765  0.12541465  1
  V  V20  1  0.37029414  0.87656747  0.00260714  1
  V  V21  1  0.12644512  0.00034986  0.13791499  1
  V  V22  1  -0.00287975  0.38233863  0.37718143  1
  V  V23  1  0.25255709  -0.00685179  0.74910721  1
  V  V24  1  0.87414683  0.87981531  -0.00966941  1
  V  V25  1  0.87704007  0.63578530  0.24740083  1
  V  V26  1  0.76003746  0.74496842  0.00084699  1
  V  V27  1  0.00585642  0.86835612  0.37774850  1
  V  V28  1  0.75342962  0.87468951  0.12097019  1
  V  V29  1  0.10973232  0.24915234  0.86847026  1
  V  V30  1  0.00160894  0.25158389  0.25363798  1
  V  V31  1  0.37169247  0.86898346  0.49866118  1
  V  V32  1  0.24987403  0.25369866  0.50455776  1
  V  V33  1  -0.00002027  0.62549631  0.62466078  1
  V  V34  1  0.37734441  -0.00079354  0.87439709  1
  V  V35  1  0.36795565  0.74343524  0.62138383  1
  V  V36  1  0.36824740  0.12511434  0.24860104  1
  V  V37  1  0.87052561  0.25381692  0.12213964  1
  V  V38  1  0.50649970  0.00114222  0.00825070  1
  V  V39  1  0.50693025  0.87371305  0.87940272  1
  V  V40  1  0.50456520  0.62332853  0.12598524  1
  V  V41  1  0.50033523  0.87623223  0.37266055  1
  V  V42  1  0.75267305  0.37470003  0.62861410  1
  V  V43  1  0.25160549  0.12413924  0.87306234  1
  V  V44  1  0.81533491  0.81940007  0.45492620  1
  V  V45  1  -0.00558287  -0.00510682  0.50309796  1
  V  V46  1  0.36550344  0.00101515  0.37110819  1
  V  V47  1  0.25268985  0.37755230  0.12736576  1
  V  V48  1  0.24662311  0.50423451  0.25486292  1
  V  V49  1  0.13898516  0.74896756  0.38158575  1
  V  V50  1  0.13925503  0.62673236  0.49931148  1
  V  V51  1  0.62798784  0.49098836  0.13194318  1
  V  V52  1  0.63604036  0.24953661  0.87986497  1
  V  V53  1  0.62353998  0.87997561  0.24253241  1
  V  V54  1  0.37064037  0.37738156  0.50961834  1
  V  V55  1  0.87823760  0.25045159  0.63240565  1
  V  V56  1  0.37581089  0.75038404  0.12663760  1
  V  V57  1  0.50317078  0.49920815  0.49960859  1
  V  V58  1  0.49863334  0.62096763  0.62788048  1
  V  V59  1  0.12521687  -0.00552517  0.62846305  1
  V  V60  1  0.50229148  0.25648300  0.24979456  1
  V  V61  1  0.86427002  0.76208344  0.62653522  1
  V  V62  1  0.06674544  0.81512724  0.20824154  1
  V  V63  1  0.12686878  0.12373659  0.49998128  1
  V  V64  1  0.85501700  0.50160574  0.86891134  1
  V  V65  1  0.13348645  0.49796259  0.62638204  1
  V  V66  1  0.50106349  0.25066659  0.75275861  1
  V  V67  1  0.63772750  0.63033095  0.49499555  1
  V  V68  1  0.87247801  0.37427066  -0.00438891  1
  V  V69  1  0.74815102  -0.01359025  0.74204146  1
  V  V70  1  0.87259229  -0.00095421  0.37922755  1
  V  V71  1  0.12572927  0.12273836  -0.00094620  1
  V  V72  1  0.24845070  0.87122284  0.62389889  1
  V  V73  1  0.32701634  0.43328916  -0.05929915  1
  V  V74  1  0.50621842  0.74775755  0.25407618  1
  V  V75  1  0.74763356  0.12741907  0.37885468  1
  V  V76  1  0.12022667  0.36954947  0.74353790  1
  V  V77  1  -0.00108904  0.12775103  0.63167892  1
  V  V78  1  0.13672475  0.74977954  0.86764315  1
  V  V79  1  0.74384886  0.00473468  0.24272626  1
  V  V80  1  0.37807336  0.12219694  0.74793139  1
  V  V81  1  0.50626199  0.12789609  0.62660806  1
  V  V82  1  0.49872970  0.00353063  0.49958703  1
  V  V83  1  0.25013128  0.87718949  0.13971258  1
  V  V84  1  0.87517026  0.12642150  0.25196037  1
  Zn  Zn85  1  0.25479069  0.74467562  -0.00560252  1
  Zn  Zn86  1  0.62362293  -0.03026241  0.63152416  1
  Zn  Zn87  1  0.12455488  0.37538486  0.25188783  1
  Zn  Zn88  1  0.24706938  0.12510073  0.37237070  1
  Zn  Zn89  1  0.74995302  0.24910436  0.50349662  1
  Zn  Zn90  1  0.62538141  0.12430063  0.50324222  1
  Zn  Zn91  1  0.64015719  0.75092231  0.37721746  1
  Zn  Zn92  1  0.87499763  0.37772596  0.50192438  1
  Zn  Zn93  1  0.37299507  0.25477070  0.62758861  1
  Zn  Zn94  1  0.50422164  0.12305135  0.12832553  1
  Zn  Zn95  1  0.87697293  0.12329973  0.75495962  1
  Zn  Zn96  1  0.00226222  0.87871349  0.86777287  1
  Zn  Zn97  1  0.49843047  0.49960411  -0.00225153  1
  Zn  Zn98  1  0.50210160  0.37782161  0.37146701  1
  Zn  Zn99  1  0.25496012  0.49458412  0.75591297  1
  Zn  Zn100  1  0.86050839  0.51701944  0.38095221  1
  Zn  Zn101  1  0.12568394  0.25095456  0.37700502  1
  Zn  Zn102  1  -0.00200480  0.64072282  0.12507497  1
  Zn  Zn103  1  0.13451437  0.62276035  -0.00711441  1
  Zn  Zn104  1  0.75135054  0.49857511  0.26019034  1
  Zn  Zn105  1  0.00070752  0.50104041  0.50237873  1
  Zn  Zn106  1  0.74857529  0.37148169  0.12749352  1
  Zn  Zn107  1  0.18776941  0.18825799  0.18644479  1
  Zn  Zn108  1  0.18861902  0.18601727  0.68527892  1
  Zn  Zn109  1  0.19122547  0.68089492  0.18039870  1
  Zn  Zn110  1  0.18856491  0.68350914  0.69220565  1
  Zn  Zn111  1  0.68709578  0.19239558  0.19048447  1
  Zn  Zn112  1  0.68881350  0.18827519  0.69305508  1
  Zn  Zn113  1  0.69457995  0.68609336  0.18706015  1
  Zn  Zn114  1  0.68823392  0.69021367  0.68468634  1
  Zn  Zn115  1  0.31307983  0.31408553  0.31679750  1
  Zn  Zn116  1  0.30509706  0.30833044  0.80325826  1
  Zn  Zn117  1  0.31456811  0.81078919  0.31231918  1
  Zn  Zn118  1  0.32215092  0.81217460  0.80791612  1
  Zn  Zn119  1  0.81095297  0.31990164  0.30975846  1
  Zn  Zn120  1  0.81592970  0.31295886  0.81223091  1
  Zn  Zn121  1  0.81790665  0.81138694  0.29130249  1
  Zn  Zn122  1  0.81404529  0.81059063  0.81258186  1
  Zn  Zn123  1  0.18398440  0.43612386  0.43820812  1
  Zn  Zn124  1  0.16402407  0.43291710  0.93379919  1
  Zn  Zn125  1  0.18625934  0.93386015  0.43862857  1
  Zn  Zn126  1  0.18523324  0.93212537  0.93763820  1
  Zn  Zn127  1  0.69054705  0.43720328  0.44086481  1
  Zn  Zn128  1  0.68820344  0.43715302  0.94554538  1
  Zn  Zn129  1  0.67948297  0.94382234  0.43164685  1
  Zn  Zn130  1  0.68667385  0.93935234  0.93538264  1
  Zn  Zn131  1  0.31110363  0.06119306  0.06434994  1
  Zn  Zn132  1  0.31528897  0.06411452  0.56251921  1
  Zn  Zn133  1  0.30916907  0.56879011  0.06986955  1
  Zn  Zn134  1  0.31172579  0.56047964  0.56452579  1
  Zn  Zn135  1  0.81367753  0.06362790  0.06165680  1
  Zn  Zn136  1  0.81076595  0.05783189  0.56751590  1
  Zn  Zn137  1  0.81483764  0.56490487  0.06741231  1
  Zn  Zn138  1  0.81728142  0.56164506  0.56286473  1
  Zn  Zn139  1  0.43678945  0.43720493  0.18497458  1
  Zn  Zn140  1  0.44147895  0.43902256  0.69231266  1
  Zn  Zn141  1  0.43595367  0.94003904  0.18837442  1
  Zn  Zn142  1  0.45766444  0.92560341  0.67840021  1
  Zn  Zn143  1  0.92992846  0.44177833  0.19318925  1
  Zn  Zn144  1  0.94257409  0.43842956  0.69257236  1
  Zn  Zn145  1  0.93087401  0.94289847  0.18139435  1
  Zn  Zn146  1  0.93041597  0.94079278  0.68962913  1
  Zn  Zn147  1  0.05910312  0.06163162  0.31698746  1
  Zn  Zn148  1  0.06692051  0.06074704  0.80976780  1
  Zn  Zn149  1  0.05708875  0.57020708  0.31071763  1
  Zn  Zn150  1  0.06432384  0.56845203  0.80541726  1
  Zn  Zn151  1  0.55916488  0.06834114  0.31209742  1
  Zn  Zn152  1  0.56863342  0.06014735  0.81467811  1
  Zn  Zn153  1  0.56853732  0.56207986  0.31713022  1
  Zn  Zn154  1  0.56077843  0.56407143  0.81421791  1
  Zn  Zn155  1  0.43636110  0.18951603  0.43629283  1
  Zn  Zn156  1  0.44189923  0.18825369  0.93762486  1
  Zn  Zn157  1  0.44004328  0.68486298  0.43843396  1
  Zn  Zn158  1  0.44250120  0.68987749  0.94005045  1
  Zn  Zn159  1  0.93540837  0.19089469  0.44395948  1
  Zn  Zn160  1  0.93424338  0.18662450  0.94058975  1
  Zn  Zn161  1  0.94591814  0.68354360  0.43542953  1
  Zn  Zn162  1  0.94092382  0.68358058  0.93278569  1
  Zn  Zn163  1  0.05798162  0.31688020  0.06006524  1
  Zn  Zn164  1  0.06207460  0.31181166  0.56314026  1
  Zn  Zn165  1  0.06994414  0.81744774  0.04032565  1
  Zn  Zn166  1  0.06177700  0.80966613  0.56215612  1
  Zn  Zn167  1  0.56150961  0.30923904  0.06006004  1
  Zn  Zn168  1  0.56500878  0.31276797  0.56237518  1
  Zn  Zn169  1  0.56693346  0.81118641  0.06342279  1
  Zn  Zn170  1  0.56018648  0.80903944  0.55948719  1
  O  O171  1  0.12169090  0.11912317  0.11833959  1
  O  O172  1  0.11970708  0.11616623  0.61695006  1
  O  O173  1  0.11984855  0.61418870  0.12032466  1
  O  O174  1  0.12065694  0.61999902  0.62066671  1
  O  O175  1  0.62605724  0.13166008  0.11236846  1
  O  O176  1  0.61232142  0.12986881  0.62515672  1
  O  O177  1  0.61705615  0.62138479  0.11892985  1
  O  O178  1  0.61760471  0.62034945  0.62048807  1
  O  O179  1  0.37887533  0.38686773  0.38572322  1
  O  O180  1  0.38041181  0.37210487  0.87550632  1
  O  O181  1  0.37998210  0.88097657  0.37975764  1
  O  O182  1  0.37995111  0.87776514  0.88964312  1
  O  O183  1  0.89026329  0.36977753  0.37932475  1
  O  O184  1  0.87080936  0.38959016  0.87919686  1
  O  O185  1  0.87726861  0.87393599  0.38282389  1
  O  O186  1  0.87798323  0.87390058  0.88658872  1
  O  O187  1  0.26248905  0.00068589  0.38032788  1
  O  O188  1  0.25380916  0.00196381  0.86720294  1
  O  O189  1  0.25689100  0.49460722  0.36603240  1
  O  O190  1  0.25972413  0.48631618  0.88571053  1
  O  O191  1  0.75345467  0.00706839  0.36546275  1
  O  O192  1  0.74709257  0.01048717  0.86669771  1
  O  O193  1  0.74637357  0.50369841  0.37581125  1
  O  O194  1  0.75681546  0.50192454  0.87556616  1
  O  O195  1  0.24269815  0.49284089  0.13321208  1
  O  O196  1  0.23698841  0.50263571  0.62907683  1
  O  O197  1  0.23774440  0.98919001  0.11789739  1
  O  O198  1  0.24634790  0.99290810  0.62976997  1
  O  O199  1  0.73270498  0.50124078  0.12191677  1
  O  O200  1  0.74061627  0.49446422  0.62554833  1
  O  O201  1  0.75194518  0.99733385  0.13708860  1
  O  O202  1  0.73919185  0.99893592  0.63509322  1
  O  O203  1  0.00048801  0.36773181  0.25993230  1
  O  O204  1  0.01932348  0.37652697  0.75187556  1
  O  O205  1  -0.00233992  0.87916895  0.25642652  1
  O  O206  1  -0.00540368  0.86388605  0.74783191  1
  O  O207  1  0.49249059  0.36132816  0.25151993  1
  O  O208  1  0.50946718  0.37023643  0.75933386  1
  O  O209  1  0.50672305  0.86920777  0.25043178  1
  O  O210  1  0.47405131  0.86115192  0.77285271  1
  O  O211  1  0.48861204  0.13622438  0.24747549  1
  O  O212  1  0.49800766  0.12906004  0.74611654  1
  O  O213  1  0.49942826  0.63159869  0.24665940  1
  O  O214  1  0.49431709  0.63242832  0.74232897  1
  O  O215  1  0.99439873  0.13117136  0.24725338  1
  O  O216  1  0.99880929  0.11512161  0.73539609  1
  O  O217  1  0.98973089  0.62341758  0.24002160  1
  O  O218  1  0.99326034  0.63522066  0.73878104  1
  O  O219  1  0.36936751  0.24257648  0.01217373  1
  O  O220  1  0.36979488  0.26086976  0.50059967  1
  O  O221  1  0.37958445  0.76051369  0.00873480  1
  O  O222  1  0.38074604  0.75668529  0.50810164  1
  O  O223  1  0.88449506  0.26191628  0.00882722  1
  O  O224  1  0.87017620  0.25463212  0.51494273  1
  O  O225  1  0.86473514  0.75508554  -0.00725329  1
  O  O226  1  0.87469337  0.75077425  0.50875513  1
  O  O227  1  0.13189985  0.24047022  0.50155383  1
  O  O228  1  0.12786046  0.24597007  0.98771783  1
  O  O229  1  0.12665052  0.74461321  0.48944979  1
  O  O230  1  0.13088213  0.74501466  0.98274180  1
  O  O231  1  0.62751323  0.24496301  0.49207727  1
  O  O232  1  0.62174213  0.24019438  0.99032594  1
  O  O233  1  0.61983457  0.73626845  0.49815728  1
  O  O234  1  0.63290049  0.74353882  0.99360207  1
  O  O235  1  0.49112740  0.24844660  0.13018358  1
  O  O236  1  0.49801749  0.24595813  0.63376967  1
  O  O237  1  0.49861473  0.74438880  0.13571194  1
  O  O238  1  0.48973538  0.73595777  0.62849121  1
  O  O239  1  0.99497668  0.24512662  0.13212311  1
  O  O240  1  0.99358382  0.23836406  0.62034179  1
  O  O241  1  1.02012566  0.76257137  0.13201976  1
  O  O242  1  0.99439768  0.74487920  0.63073639  1
  O  O243  1  0.00160732  0.25485176  0.36859781  1
  O  O244  1  0.01188273  0.23741504  0.87160797  1
  O  O245  1  0.00936937  0.76415839  0.37846200  1
  O  O246  1  0.00493862  0.75204264  0.86334488  1
  O  O247  1  0.50698598  0.25120767  0.36785566  1
  O  O248  1  0.50910678  0.25621860  0.86953056  1
  O  O249  1  0.49883721  0.75565617  0.36374233  1
  O  O250  1  0.51197327  0.75606097  0.87101357  1
  O  O251  1  0.24241349  0.12886257  0.49888180  1
  O  O252  1  0.24332430  0.12850142  0.99416655  1
  O  O253  1  0.23898498  0.62434428  0.50311876  1
  O  O254  1  0.24926285  0.63186715  1.00409571  1
  O  O255  1  0.74849300  0.12154750  0.48831647  1
  O  O256  1  0.74305410  0.11726953  0.98800146  1
  O  O257  1  0.73539808  0.62516733  0.50918701  1
  O  O258  1  0.74230590  0.63397809  1.00571487  1
  O  O259  1  0.25603194  0.37547022  0.00027458  1
  O  O260  1  0.25841899  0.36788631  0.49779771  1
  O  O261  1  0.25907658  0.87089749  0.00849095  1
  O  O262  1  0.26425426  0.87963398  0.50793414  1
  O  O263  1  0.76627442  0.37948843  0.00722438  1
  O  O264  1  0.74881976  0.37273431  0.51860754  1
  O  O265  1  0.75502923  0.87278179  0.00376659  1
  O  O266  1  0.75208771  0.88121235  0.50011321  1
  O  O267  1  0.13130222  0.50022330  0.24442210  1
  O  O268  1  0.12907124  0.49156171  0.74567893  1
  O  O269  1  0.12126126  1.00723757  0.23761704  1
  O  O270  1  0.13530810  1.00073512  0.73623298  1
  O  O271  1  0.62335664  0.50555311  0.23425212  1
  O  O272  1  0.61952887  0.49296477  0.74270363  1
  O  O273  1  0.63137238  0.99351544  0.25516440  1
  O  O274  1  0.64002870  1.00241057  0.74871593  1
  O  O275  1  0.38132074  0.01060895  0.25957707  1
  O  O276  1  0.37195190  0.00399941  0.75537085  1
  O  O277  1  0.36921854  0.50180674  0.25824015  1
  O  O278  1  0.37640552  0.51468201  0.74859102  1
  O  O279  1  0.86606771  0.00660378  0.25744478  1
  O  O280  1  0.85667798  0.00699610  0.74432597  1
  O  O281  1  0.87326902  0.51055660  0.25959867  1
  O  O282  1  0.87777508  0.50599486  0.76256863  1
  O  O283  1  0.11277324  0.37060210  0.37234531  1
  O  O284  1  0.12111935  0.35559075  0.86600169  1
  O  O285  1  0.12048998  0.86381966  0.37469060  1
  O  O286  1  0.11881514  0.85943833  0.87879354  1
  O  O287  1  0.62164715  0.36171073  0.38262767  1
  O  O288  1  0.62229639  0.36955191  0.87258809  1
  O  O289  1  0.61794944  0.87195600  0.36309315  1
  O  O290  1  0.61376051  0.86679499  0.88066654  1
  O  O291  1  0.37518043  0.13205525  0.13162467  1
  O  O292  1  0.38611854  0.12697734  0.63264244  1
  O  O293  1  0.38959734  0.62764656  0.13465519  1
  O  O294  1  0.38138899  0.62856450  0.62848285  1
  O  O295  1  0.88226826  0.13101235  0.13051176  1
  O  O296  1  0.88348783  0.13146047  0.62401443  1
  O  O297  1  0.88386304  0.61958051  0.13530046  1
  O  O298  1  0.88296871  0.63245573  0.63032380  1
  O  O299  1  0.25327127  0.25823012  0.11644281  1
  O  O300  1  0.25484959  0.24344117  0.61101757  1
  O  O301  1  0.25976311  0.75947556  0.12723800  1
  O  O302  1  0.26045724  0.75567646  0.63203236  1
  O  O303  1  0.76700530  0.24707893  0.12860918  1
  O  O304  1  0.75551150  0.25755864  0.62689759  1
  O  O305  1  0.74234015  0.76300815  0.11206812  1
  O  O306  1  0.76434017  0.75327019  0.62685724  1
  O  O307  1  0.24763964  0.24712196  0.38707867  1
  O  O308  1  0.24612685  0.24103509  0.88051506  1
  O  O309  1  0.23811373  0.75391111  0.37484088  1
  O  O310  1  0.24017296  0.75766024  0.86790406  1
  O  O311  1  0.74421216  0.24310339  0.37534946  1
  O  O312  1  0.73994314  0.24238102  0.87050590  1
  O  O313  1  0.75937330  0.76774020  0.38534985  1
  O  O314  1  0.73793104  0.75539703  0.88195832  1
  O  O315  1  0.00525616  0.11911308  0.00532239  1
  O  O316  1  0.00750837  0.11399325  0.50719974  1
  O  O317  1  -0.00068231  0.61204837  0.00543560  1
  O  O318  1  0.00976748  0.62718158  0.51378564  1
  O  O319  1  0.50945464  0.11658543  0.00045687  1
  O  O320  1  0.49804762  0.11912613  0.50745973  1
  O  O321  1  0.50830430  0.62570628  0.01094229  1
  O  O322  1  0.50419192  0.61449148  0.50934751  1
  O  O323  1  0.49605779  0.38842960  0.50180840  1
  O  O324  1  0.49922293  0.37360991  0.98703029  1
  O  O325  1  0.48895445  0.88192973  0.49226261  1
  O  O326  1  0.49496518  0.88055039  0.99711614  1
  O  O327  1  1.00108444  0.37510111  0.48815893  1
  O  O328  1  0.98959390  0.39181945  1.00050962  1
  O  O329  1  1.00693184  0.88672591  0.49311025  1
  O  O330  1  0.99008029  0.88563496  0.99937585  1
  O  O331  1  0.49561493  0.49885593  0.38398423  1
  O  O332  1  0.50310198  0.48753605  0.87799382  1
  O  O333  1  0.49257040  0.99681262  0.38163925  1
  O  O334  1  0.49718062  0.99186924  0.88350736  1
  O  O335  1  1.00388502  0.48698114  0.37564036  1
  O  O336  1  1.00246150  0.50416944  0.88453957  1
  O  O337  1  0.99304961  0.98948236  0.38175865  1
  O  O338  1  1.00646341  1.00028981  0.88614057  1
  O  O339  1  0.00704535  0.00654093  0.11705703  1
  O  O340  1  0.00726777  0.00059898  0.61917210  1
  O  O341  1  0.01117770  0.49124816  0.12103877  1
  O  O342  1  0.01113999  0.50954316  0.62726973  1
  O  O343  1  0.49644620  0.00221036  0.11218893  1
  O  O344  1  0.49679298  0.01326963  0.61551673  1
  O  O345  1  0.50827541  0.50687629  0.12315956  1
  O  O346  1  0.50898687  0.50691828  0.62123739  1
  O  O347  1  0.24797213  0.38288330  0.24310849  1
  O  O348  1  0.23272799  0.37880952  0.75494484  1
  O  O349  1  0.25896885  0.87930782  0.23901884  1
  O  O350  1  0.26118186  0.88613424  0.73996989  1
  O  O351  1  0.75379589  0.38235694  0.24004194  1
  O  O352  1  0.73744304  0.37198964  0.74347208  1
  O  O353  1  0.74408627  0.88388943  0.24112934  1
  O  O354  1  0.75190923  0.88749257  0.75442340  1
  O  O355  1  0.26273087  0.13100912  0.25234297  1
  O  O356  1  0.25670470  0.11302222  0.75145712  1
  O  O357  1  0.25984015  0.61167024  0.24435612  1
  O  O358  1  0.26643167  0.62064744  0.75159733  1
  O  O359  1  0.75272254  0.12034345  0.25890121  1
  O  O360  1  0.74929197  0.12011031  0.76374367  1
  O  O361  1  0.76674545  0.62209330  0.24361742  1
  O  O362  1  0.76421808  0.62829151  0.74494663  1
  O  O363  1  0.37395585  0.11732060  0.36791317  1
  O  O364  1  0.37185482  0.11885842  0.86905588  1
  O  O365  1  0.38017152  0.61093867  0.37187557  1
  O  O366  1  0.38322700  0.63008609  0.86249658  1
  O  O367  1  0.86784948  0.12190373  0.37111465  1
  O  O368  1  0.85857757  0.13017220  0.87642274  1
  O  O369  1  0.88552732  0.62978200  0.35896445  1
  O  O370  1  0.87772832  0.61109726  0.86567545  1
  O  O371  1  0.13661343  0.38028556  0.12386307  1
  O  O372  1  0.12198022  0.38081110  0.63447307  1
  O  O373  1  0.12856204  0.87724594  0.13524626  1
  O  O374  1  0.13992949  0.87936172  0.61750484  1
  O  O375  1  0.62296633  0.38827335  0.11776305  1
  O  O376  1  0.62990148  0.38304914  0.63445426  1
  O  O377  1  0.63265968  0.87562104  0.13540280  1
  O  O378  1  0.56557807  0.87145756  0.65048746  1
  O  O379  1  0.11247421  0.24929793  0.25012112  1
  O  O380  1  0.12940995  0.25456017  0.75803909  1
  O  O381  1  0.12898043  0.74757414  0.25877973  1
  O  O382  1  0.11746212  0.74879379  0.75612436  1
  O  O383  1  0.61392902  0.24517879  0.25979730  1
  O  O384  1  0.61942136  0.25883976  0.75932156  1
  O  O385  1  0.62177957  0.75666539  0.25350764  1
  O  O386  1  0.61564186  0.74216624  0.75779756  1
  O  O387  1  0.37782453  0.24551942  0.24062530  1
  O  O388  1  0.38180672  0.24147935  0.74957972  1
  O  O389  1  0.38486621  0.74456407  0.24635804  1
  O  O390  1  0.38410463  0.73792648  0.74058115  1
  O  O391  1  0.88618890  0.24512832  0.24435055  1
  O  O392  1  0.87246910  0.24461771  0.73843184  1
  O  O393  1  0.88003330  0.73841880  0.23952145  1
  O  O394  1  0.88065897  0.74476087  0.74112738  1
  O  O395  1  0.38067955  0.49661433  0.49557434  1
  O  O396  1  0.37755629  0.49629907  1.00396291  1
  O  O397  1  0.38337152  0.99404613  0.49402169  1
  O  O398  1  0.38124224  0.99417254  0.99451417  1
  O  O399  1  0.88258247  0.49755503  0.49692563  1
  O  O400  1  0.88086710  0.49874782  0.98707593  1
  O  O401  1  0.88444254  1.00349730  0.49457201  1
  O  O402  1  0.88547665  0.99307718  1.00383108  1
  O  O403  1  0.11763598  0.00364783  0.00725641  1
  O  O404  1  0.12082161  0.00446427  0.50986126  1
  O  O405  1  0.11191234  0.50133841  0.00564472  1
  O  O406  1  0.12306728  0.50792067  0.50750518  1
  O  O407  1  0.61688937  0.00965153  -0.00468320  1
  O  O408  1  0.60972360  -0.00050108  0.50513873  1
  O  O409  1  0.62153511  0.50928827  0.00863842  1
  O  O410  1  0.61836670  0.50945336  0.50963338  1
  O  O411  1  0.36204054  0.36760951  0.12654549  1
  O  O412  1  0.38061669  0.37759546  0.61391812  1
  O  O413  1  0.36960595  0.87389234  0.11855650  1
  O  O414  1  0.37016545  0.86514459  0.61717733  1
  O  O415  1  0.87901670  0.36792125  0.11672597  1
  O  O416  1  0.86852665  0.37090617  0.63060265  1
  O  O417  1  0.86045131  0.87914917  0.11468561  1
  O  O418  1  0.87945603  0.86054157  0.62245260  1
  O  O419  1  0.12496249  0.12338325  0.38891920  1
  O  O420  1  0.13224829  0.13226019  0.87618262  1
  O  O421  1  0.11850212  0.63996765  0.38412003  1
  O  O422  1  0.12156402  0.64243294  0.87252124  1
  O  O423  1  0.63251024  0.13272542  0.37749982  1
  O  O424  1  0.63441601  0.13181352  0.88298171  1
  O  O425  1  0.62324795  0.63111424  0.39045837  1
  O  O426  1  0.61923753  0.63287363  0.88810318  1
