# generated using pymatgen
data_V85Zn86O256
_symmetry_space_group_name_H-M   'P 1'
_cell_length_a   16.90909370
_cell_length_b   16.91466685
_cell_length_c   16.91281589
_cell_angle_alpha   89.95898959
_cell_angle_beta   89.93769570
_cell_angle_gamma   89.97139396
_symmetry_Int_Tables_number   1
_chemical_formula_structural   V85Zn86O256
_chemical_formula_sum   'V85 Zn86 O256'
_cell_volume   4837.25829906
_cell_formula_units_Z   1
loop_
 _symmetry_equiv_pos_site_id
 _symmetry_equiv_pos_as_xyz
  1  'x, y, z'
loop_
 _atom_site_type_symbol
 _atom_site_label
 _atom_site_symmetry_multiplicity
 _atom_site_fract_x
 _atom_site_fract_y
 _atom_site_fract_z
 _atom_site_occupancy
  V  V0  1  0.87076025  0.25159281  0.12037232  1
  V  V1  1  0.62258713  0.13312189  -0.00078444  1
  V  V2  1  0.75084550  0.74973173  0.50091495  1
  V  V3  1  0.49824733  0.37992519  0.36811220  1
  V  V4  1  0.50085822  0.00310965  0.00458325  1
  V  V5  1  0.62418312  0.87461533  0.24979126  1
  V  V6  1  0.86926671  0.00493556  0.37605348  1
  V  V7  1  0.37146164  0.62332978  0.26626836  1
  V  V8  1  0.12636308  0.00431078  0.61918476  1
  V  V9  1  0.49487580  0.62477511  0.12215523  1
  V  V10  1  0.50129047  0.74418168  0.74696462  1
  V  V11  1  0.11671356  0.87464284  0.75100606  1
  V  V12  1  0.88555916  -0.00354197  0.87783563  1
  V  V13  1  0.86953806  0.25482745  0.62805745  1
  V  V14  1  0.38555876  0.24886330  0.12941968  1
  V  V15  1  0.50835310  0.24791523  0.75444449  1
  V  V16  1  0.87505483  0.37851674  -0.00874560  1
  V  V17  1  0.37616331  0.24940375  0.62621551  1
  V  V18  1  0.00404967  0.00623343  0.49754074  1
  V  V19  1  0.75061051  0.00175105  0.25124175  1
  V  V20  1  0.00354434  0.37536638  0.37261946  1
  V  V21  1  0.37641695  0.00294451  0.87781773  1
  V  V22  1  0.87902141  0.62292415  0.24777244  1
  V  V23  1  0.24838746  0.62633721  0.87331035  1
  V  V24  1  0.50582043  0.37048716  0.87558423  1
  V  V25  1  0.75158786  0.49470161  0.74570691  1
  V  V26  1  0.37788384  0.75098598  0.62329436  1
  V  V27  1  0.49322729  0.87368621  0.37939739  1
  V  V28  1  0.74066657  0.87941180  0.62366039  1
  V  V29  1  0.50801150  0.50373570  -0.00049888  1
  V  V30  1  0.12495980  0.88012302  0.24758562  1
  V  V31  1  0.12711989  0.74403614  0.37432681  1
  V  V32  1  0.87838940  0.12806692  0.75105522  1
  V  V33  1  0.12578515  0.61875868  0.01743002  1
  V  V34  1  0.87610262  0.62199654  0.75493091  1
  V  V35  1  0.74668719  0.12900920  0.87624866  1
  V  V36  1  0.75013071  0.61872251  0.87810501  1
  V  V37  1  0.62367643  0.74869453  0.37417873  1
  V  V38  1  0.61842247  0.62426912  0.50842362  1
  V  V39  1  0.50862553  0.12038361  0.62520377  1
  V  V40  1  -0.00056982  0.50071164  0.49991802  1
  V  V41  1  0.62022459  0.49170887  0.62527086  1
  V  V42  1  0.50318710  -0.00311919  0.50456317  1
  V  V43  1  0.36932599  0.37660683  0.00570110  1
  V  V44  1  0.00190619  0.74875644  0.24591816  1
  V  V45  1  0.37845260  0.86623318  0.00386044  1
  V  V46  1  0.37342024  0.49863407  0.87516714  1
  V  V47  1  0.00183020  0.13348635  0.62225299  1
  V  V48  1  0.00609317  0.11811074  0.11233933  1
  V  V49  1  0.25524063  0.49840434  0.25060358  1
  V  V50  1  0.74566464  0.74777582  -0.00024437  1
  V  V51  1  0.87615471  0.87556267  0.50115374  1
  V  V52  1  0.62020437  0.24344517  0.36727523  1
  V  V53  1  -0.00365233  0.50453297  0.00613619  1
  V  V54  1  0.49371413  0.74950814  0.24158263  1
  V  V55  1  0.74427216  0.00041536  0.74854564  1
  V  V56  1  0.24912941  0.00284787  0.74913529  1
  V  V57  1  0.74745389  0.24231288  0.49567165  1
  V  V58  1  0.19384966  0.08299893  0.93202446  1
  V  V59  1  0.24235754  0.12494946  0.37538318  1
  V  V60  1  0.12698224  0.50289348  0.62627742  1
  V  V61  1  0.89054316  0.87625144  -0.00388217  1
  V  V62  1  0.37573241  0.38197588  0.49752811  1
  V  V63  1  0.75136315  0.87461702  0.12307535  1
  V  V64  1  0.38685523  0.12874906  0.25053798  1
  V  V65  1  0.11792665  0.74775949  0.87541334  1
  V  V66  1  0.86652047  0.37525376  0.50136629  1
  V  V67  1  0.37394785  0.12479934  0.75244415  1
  V  V68  1  0.25532769  0.87117784  0.12755547  1
  V  V69  1  0.00005874  0.62947059  0.62535596  1
  V  V70  1  0.11799788  0.36986077  0.74839886  1
  V  V71  1  0.25668838  0.75094495  0.49414531  1
  V  V72  1  0.62543724  0.74907661  0.87562465  1
  V  V73  1  0.62308136  0.00666481  0.12567412  1
  V  V74  1  0.24611454  0.25322263  0.00532746  1
  V  V75  1  0.87196957  0.12597438  0.25109905  1
  V  V76  1  0.74966726  0.62412401  0.37560314  1
  V  V77  1  0.12997547  0.37998367  0.23123998  1
  V  V78  1  0.25077754  0.37493025  0.62520882  1
  V  V79  1  0.87830154  0.74612184  0.12295833  1
  V  V80  1  0.37280947  0.00032202  0.37940030  1
  V  V81  1  0.12372048  0.25234739  0.87553718  1
  V  V82  1  0.87418926  0.49931070  0.37415147  1
  V  V83  1  0.00227689  0.24868543  0.24745886  1
  V  V84  1  0.24360227  0.24593369  0.50055662  1
  Zn  Zn85  1  0.12895401  0.62354772  0.49415774  1
  Zn  Zn86  1  0.62225632  0.87753316  0.74829081  1
  Zn  Zn87  1  0.62529759  0.37500260  0.24566792  1
  Zn  Zn88  1  0.25302452  0.87734189  0.62001708  1
  Zn  Zn89  1  0.50184900  0.87454998  0.87347834  1
  Zn  Zn90  1  0.25118743  0.49907924  0.75034907  1
  Zn  Zn91  1  0.87525224  0.75115854  0.62688378  1
  Zn  Zn92  1  0.12457234  0.24801364  0.37650811  1
  Zn  Zn93  1  0.62953190  0.12046032  0.49938914  1
  Zn  Zn94  1  0.00092002  0.87639063  0.37417253  1
  Zn  Zn95  1  0.24931589  0.00440052  0.24722805  1
  Zn  Zn96  1  0.12602980  0.00154206  0.10790699  1
  Zn  Zn97  1  0.74473785  0.25515517  -0.00503612  1
  Zn  Zn98  1  0.74720375  0.49634968  0.24762064  1
  Zn  Zn99  1  0.49254820  0.50444042  0.50237038  1
  Zn  Zn100  1  -0.00345943  0.75391686  0.75309207  1
  Zn  Zn101  1  0.37669397  0.62178857  0.74411930  1
  Zn  Zn102  1  0.74693634  0.38205231  0.12320528  1
  Zn  Zn103  1  0.62574668  0.50397933  0.12893015  1
  Zn  Zn104  1  0.25475466  0.74467155  0.00453863  1
  Zn  Zn105  1  0.63147424  0.36866778  0.75092576  1
  Zn  Zn106  1  -0.00068846  0.38036657  0.87187018  1
  Zn  Zn107  1  0.19028223  0.18896386  0.18717662  1
  Zn  Zn108  1  0.18721910  0.18663673  0.68957241  1
  Zn  Zn109  1  0.19598281  0.68882777  0.19120222  1
  Zn  Zn110  1  0.19147014  0.68858076  0.68640498  1
  Zn  Zn111  1  0.68797325  0.18845261  0.18772208  1
  Zn  Zn112  1  0.69064229  0.18780129  0.68477735  1
  Zn  Zn113  1  0.68548543  0.68213119  0.18651287  1
  Zn  Zn114  1  0.68871691  0.68681164  0.68788082  1
  Zn  Zn115  1  0.31205479  0.31357615  0.31215219  1
  Zn  Zn116  1  0.30847845  0.31060617  0.81609436  1
  Zn  Zn117  1  0.31244778  0.81220316  0.31217213  1
  Zn  Zn118  1  0.31057208  0.81398614  0.81114862  1
  Zn  Zn119  1  0.80864883  0.31197525  0.31249365  1
  Zn  Zn120  1  0.81370217  0.31104799  0.81292740  1
  Zn  Zn121  1  0.81367672  0.81366588  0.31348829  1
  Zn  Zn122  1  0.81422556  0.81181614  0.81241502  1
  Zn  Zn123  1  0.18912798  0.43899620  0.43460191  1
  Zn  Zn124  1  0.18527709  0.43948206  0.94031977  1
  Zn  Zn125  1  0.18791296  0.93261487  0.43560644  1
  Zn  Zn126  1  0.18996392  0.91838930  0.93518173  1
  Zn  Zn127  1  0.68422081  0.43565005  0.43462629  1
  Zn  Zn128  1  0.68787858  0.43734267  0.93755972  1
  Zn  Zn129  1  0.68521397  0.93797058  0.43678699  1
  Zn  Zn130  1  0.69274821  0.93742698  0.93621431  1
  Zn  Zn131  1  0.31812987  0.05893161  0.07243656  1
  Zn  Zn132  1  0.31684008  0.06404914  0.56120223  1
  Zn  Zn133  1  0.31288230  0.56209995  0.07128879  1
  Zn  Zn134  1  0.31055139  0.56900111  0.56073083  1
  Zn  Zn135  1  0.81413737  0.06284600  0.06099520  1
  Zn  Zn136  1  0.81313910  0.06354064  0.56453240  1
  Zn  Zn137  1  0.81356607  0.56240159  0.06183294  1
  Zn  Zn138  1  0.80979543  0.56214637  0.56592300  1
  Zn  Zn139  1  0.43407494  0.43950743  0.18736052  1
  Zn  Zn140  1  0.44026858  0.43658154  0.68837901  1
  Zn  Zn141  1  0.43714347  0.94108376  0.19028778  1
  Zn  Zn142  1  0.43724131  0.93139946  0.68762706  1
  Zn  Zn143  1  0.93758881  0.43768193  0.18178173  1
  Zn  Zn144  1  0.93707615  0.43981416  0.68699512  1
  Zn  Zn145  1  0.94012569  0.93715954  0.18344204  1
  Zn  Zn146  1  0.93479898  0.94181019  0.68571356  1
  Zn  Zn147  1  0.05956893  0.06326640  0.31081181  1
  Zn  Zn148  1  0.05769238  0.06190237  0.80505482  1
  Zn  Zn149  1  0.06474848  0.56024780  0.30671564  1
  Zn  Zn150  1  0.06156376  0.55961735  0.81542932  1
  Zn  Zn151  1  0.56215385  0.06261877  0.31551744  1
  Zn  Zn152  1  0.56241897  0.06225544  0.81596646  1
  Zn  Zn153  1  0.56075369  0.56084693  0.31329562  1
  Zn  Zn154  1  0.56486203  0.56408718  0.81287103  1
  Zn  Zn155  1  0.43613086  0.18959198  0.43873317  1
  Zn  Zn156  1  0.43516736  0.18700296  0.94041487  1
  Zn  Zn157  1  0.43776568  0.68950584  0.43900976  1
  Zn  Zn158  1  0.43975583  0.68492970  0.93322021  1
  Zn  Zn159  1  0.93591543  0.18807166  0.43633157  1
  Zn  Zn160  1  0.93892728  0.19087236  0.93403828  1
  Zn  Zn161  1  0.94098735  0.68853331  0.43553259  1
  Zn  Zn162  1  0.93809006  0.68187846  0.93896078  1
  Zn  Zn163  1  0.05757837  0.30981394  0.05764675  1
  Zn  Zn164  1  0.06122995  0.31471570  0.56060400  1
  Zn  Zn165  1  0.06794514  0.80717068  0.06438471  1
  Zn  Zn166  1  0.06643764  0.81554381  0.56121915  1
  Zn  Zn167  1  0.55957727  0.31747526  0.06456709  1
  Zn  Zn168  1  0.56150572  0.31221231  0.56091083  1
  Zn  Zn169  1  0.56394005  0.81418986  0.06213660  1
  Zn  Zn170  1  0.56024909  0.81136994  0.56213957  1
  O  O171  1  0.11032799  0.12367338  0.13044923  1
  O  O172  1  0.11611853  0.11413412  0.63086649  1
  O  O173  1  0.12760898  0.63259026  0.11507885  1
  O  O174  1  0.11847205  0.61774450  0.62501290  1
  O  O175  1  0.63131029  0.11304443  0.11836030  1
  O  O176  1  0.61232315  0.12613143  0.62369903  1
  O  O177  1  0.60304020  0.62482365  0.13307740  1
  O  O178  1  0.63107228  0.61613170  0.61572991  1
  O  O179  1  0.38814507  0.36566582  0.38379664  1
  O  O180  1  0.38104526  0.38173103  0.88131310  1
  O  O181  1  0.38384955  0.88504092  0.36844707  1
  O  O182  1  0.37220761  0.88728818  0.88398264  1
  O  O183  1  0.88484334  0.37809589  0.38003121  1
  O  O184  1  0.87940730  0.36939416  0.88672214  1
  O  O185  1  0.87632751  0.88270035  0.38614393  1
  O  O186  1  0.87184291  0.88259063  0.88368220  1
  O  O187  1  0.25702389  0.00633787  0.37600940  1
  O  O188  1  0.25224206  0.00680106  0.87201784  1
  O  O189  1  0.23244349  0.50334238  0.35304119  1
  O  O190  1  0.25710614  0.50623423  0.87472378  1
  O  O191  1  0.76127447  -0.00402033  0.36917617  1
  O  O192  1  0.75917947  0.00934682  0.86796752  1
  O  O193  1  0.75769968  0.50696083  0.37563127  1
  O  O194  1  0.74120057  0.51361256  0.86731300  1
  O  O195  1  0.24686335  0.50664691  0.14696680  1
  O  O196  1  0.24186439  0.49534189  0.62497855  1
  O  O197  1  0.24452919  0.98978936  0.12763171  1
  O  O198  1  0.24379345  1.00050257  0.62940665  1
  O  O199  1  0.74571451  0.50346675  0.12740952  1
  O  O200  1  0.73877756  0.50276336  0.63543102  1
  O  O201  1  0.74518143  0.99417899  0.13068639  1
  O  O202  1  0.75572555  0.99241786  0.63426547  1
  O  O203  1  0.00627772  0.36813522  0.25265659  1
  O  O204  1  0.01318492  0.37952277  0.74976983  1
  O  O205  1  0.00712925  0.86783202  0.24956331  1
  O  O206  1  0.01172305  0.87533142  0.74191136  1
  O  O207  1  0.49668175  0.37671816  0.26524115  1
  O  O208  1  0.50067229  0.36442740  0.75784847  1
  O  O209  1  0.50321809  0.86810173  0.25678563  1
  O  O210  1  0.50330811  0.86327167  0.75330648  1
  O  O211  1  0.48669744  0.12563946  0.25685267  1
  O  O212  1  0.49531538  0.12864806  0.74586573  1
  O  O213  1  0.48996074  0.63171811  0.24926080  1
  O  O214  1  0.49680963  0.63920810  0.75668615  1
  O  O215  1  0.99132873  0.13235914  0.24403315  1
  O  O216  1  0.98635099  0.12266121  0.73823285  1
  O  O217  1  0.98749747  0.63273154  0.25375379  1
  O  O218  1  0.99337666  0.62358518  0.74285896  1
  O  O219  1  0.36932443  0.25626061  0.00800411  1
  O  O220  1  0.36666748  0.25885890  0.50800199  1
  O  O221  1  0.37861908  0.76338026  -0.00506296  1
  O  O222  1  0.36640936  0.74930877  0.50649141  1
  O  O223  1  0.87520697  0.25792449  0.00581279  1
  O  O224  1  0.86787559  0.25619251  0.50307460  1
  O  O225  1  0.87175221  0.75413382  0.00692724  1
  O  O226  1  0.87116058  0.75976424  0.49947690  1
  O  O227  1  0.13866693  0.25408270  0.49921145  1
  O  O228  1  0.13453306  0.25328571  0.99345785  1
  O  O229  1  0.13075737  0.74915010  0.49033116  1
  O  O230  1  0.12711821  0.73711541  0.99301769  1
  O  O231  1  0.63353217  0.24852840  0.49551844  1
  O  O232  1  0.62276233  0.23631944  1.00601662  1
  O  O233  1  0.62990566  0.74249007  0.49567365  1
  O  O234  1  0.63632098  0.75425950  0.99358040  1
  O  O235  1  0.48423322  0.24696874  0.11833141  1
  O  O236  1  0.49466966  0.24236836  0.63232896  1
  O  O237  1  0.50174603  0.74875871  0.13684236  1
  O  O238  1  0.48924974  0.75274943  0.63057645  1
  O  O239  1  0.99124830  0.24285501  0.13253782  1
  O  O240  1  0.99159781  0.23865355  0.61470801  1
  O  O241  1  0.99334291  0.75245572  0.13709959  1
  O  O242  1  1.00177296  0.73876141  0.62466017  1
  O  O243  1  -0.00035074  0.25527685  0.36326535  1
  O  O244  1  0.01796233  0.25493606  0.88049941  1
  O  O245  1  0.00522533  0.75477716  0.36320704  1
  O  O246  1  0.01356176  0.74029953  0.87203915  1
  O  O247  1  0.51339003  0.25947208  0.38434968  1
  O  O248  1  0.49192051  0.25771881  0.86670245  1
  O  O249  1  0.50331939  0.75794278  0.36803416  1
  O  O250  1  0.50919107  0.75252666  0.86968418  1
  O  O251  1  0.25716582  0.13471599  0.49084872  1
  O  O252  1  0.25733220  0.13079390  0.99885186  1
  O  O253  1  0.24469846  0.64328165  0.50191111  1
  O  O254  1  0.24076235  0.62403709  0.99701330  1
  O  O255  1  0.75031304  0.13693220  0.50241855  1
  O  O256  1  0.74177780  0.12488015  0.99234090  1
  O  O257  1  0.74485300  0.63060621  0.49326333  1
  O  O258  1  0.75820541  0.63713042  0.99050640  1
  O  O259  1  0.26148473  0.36966062  -0.00320449  1
  O  O260  1  0.25553167  0.36894360  0.50421294  1
  O  O261  1  0.26151288  0.87085855  0.00851939  1
  O  O262  1  0.24448488  0.85811967  0.50239752  1
  O  O263  1  0.75840047  0.37347103  -0.00010011  1
  O  O264  1  0.76244323  0.36762824  0.49407896  1
  O  O265  1  0.75829766  0.86427073  0.00530541  1
  O  O266  1  0.75590361  0.87264877  0.50516298  1
  O  O267  1  0.12279613  0.48370825  0.24518382  1
  O  O268  1  0.12604738  0.49403308  0.73817762  1
  O  O269  1  0.12428648  0.98687127  0.25263811  1
  O  O270  1  0.13074733  0.99526741  0.74341280  1
  O  O271  1  0.62762291  0.49658922  0.25064679  1
  O  O272  1  0.63024558  0.50007388  0.73914465  1
  O  O273  1  0.62902810  0.99697614  0.24469645  1
  O  O274  1  0.63946407  0.99856443  0.75573937  1
  O  O275  1  0.37395860  0.00990227  0.26110593  1
  O  O276  1  0.36776660  0.00071120  0.75868665  1
  O  O277  1  0.36746372  0.50863742  0.25375065  1
  O  O278  1  0.37600508  0.50019676  0.76260592  1
  O  O279  1  0.87341526  0.00527341  0.25647005  1
  O  O280  1  0.86660792  0.00750993  0.75558757  1
  O  O281  1  0.87678901  0.50863957  0.25451990  1
  O  O282  1  0.86645842  0.51109182  0.74395862  1
  O  O283  1  0.11082681  0.37223571  0.37265285  1
  O  O284  1  0.12866742  0.36927657  0.86507847  1
  O  O285  1  0.12269818  0.86449195  0.36515033  1
  O  O286  1  0.12535101  0.86168716  0.86494617  1
  O  O287  1  0.61279645  0.36515557  0.37585086  1
  O  O288  1  0.60982864  0.37756453  0.87380819  1
  O  O289  1  0.61703255  0.86950429  0.36815512  1
  O  O290  1  0.62876876  0.86291132  0.87262548  1
  O  O291  1  0.37301478  0.13605241  0.13637683  1
  O  O292  1  0.38439072  0.12994165  0.63283339  1
  O  O293  1  0.38721489  0.62363849  0.13924647  1
  O  O294  1  0.37070288  0.64194724  0.62733264  1
  O  O295  1  0.88509418  0.12935315  0.13010538  1
  O  O296  1  0.88116140  0.13304980  0.63098596  1
  O  O297  1  0.87203267  0.63867438  0.13269204  1
  O  O298  1  0.88392418  0.62703133  0.63061444  1
  O  O299  1  0.25797605  0.24503767  0.11090879  1
  O  O300  1  0.25554230  0.25330015  0.61940978  1
  O  O301  1  0.24877440  0.76506902  0.12325674  1
  O  O302  1  0.25724329  0.75406550  0.61594632  1
  O  O303  1  0.76351237  0.24616365  0.12032854  1
  O  O304  1  0.76163683  0.24946478  0.61612789  1
  O  O305  1  0.75527192  0.75239755  0.11813389  1
  O  O306  1  0.75299163  0.75892588  0.61779168  1
  O  O307  1  0.24950927  0.24284385  0.38267800  1
  O  O308  1  0.24122801  0.24779945  0.88875862  1
  O  O309  1  0.24390635  0.75323093  0.38485261  1
  O  O310  1  0.24287243  0.74234006  0.87828753  1
  O  O311  1  0.73413995  0.25454747  0.38361237  1
  O  O312  1  0.75292001  0.23419440  0.87492253  1
  O  O313  1  0.74486178  0.74586525  0.38122045  1
  O  O314  1  0.74547745  0.74359879  0.88111640  1
  O  O315  1  -0.00234920  0.12947336  0.01418785  1
  O  O316  1  -0.00540922  0.11442759  0.50580252  1
  O  O317  1  0.01294808  0.61630967  -0.00033568  1
  O  O318  1  0.00219105  0.61842008  0.50691361  1
  O  O319  1  0.50720362  0.11153314  -0.00513571  1
  O  O320  1  0.49862197  0.11719946  0.50958907  1
  O  O321  1  0.49095606  0.61564795  0.00825485  1
  O  O322  1  0.51399898  0.62267317  0.49406881  1
  O  O323  1  0.49033863  0.37659549  0.49508580  1
  O  O324  1  0.48838682  0.38172621  0.99283531  1
  O  O325  1  0.50280927  0.88012778  0.48840948  1
  O  O326  1  0.49533924  0.88529699  0.99882012  1
  O  O327  1  0.99154589  0.37974667  0.49108321  1
  O  O328  1  0.99355361  0.38491034  0.99847976  1
  O  O329  1  0.99246029  0.88665943  0.50058002  1
  O  O330  1  0.98973802  0.87016226  1.00606475  1
  O  O331  1  0.50462545  0.48349451  0.38350058  1
  O  O332  1  0.49256613  0.49579852  0.88041285  1
  O  O333  1  0.49308004  0.99222707  0.38013444  1
  O  O334  1  0.49246494  0.99504364  0.88200193  1
  O  O335  1  0.99485715  0.49351930  0.37875662  1
  O  O336  1  1.01030451  0.49600071  0.89388720  1
  O  O337  1  0.99036379  0.99910461  0.38158793  1
  O  O338  1  0.98524558  1.00365866  0.87067665  1
  O  O339  1  0.00367225  0.01304098  0.12424609  1
  O  O340  1  0.00509577  0.01021816  0.61689241  1
  O  O341  1  0.00197091  0.49764320  0.10764089  1
  O  O342  1  0.00633672  0.50986220  0.61984652  1
  O  O343  1  0.51073396  -0.00366765  0.11791293  1
  O  O344  1  0.49184756  0.00569043  0.61625933  1
  O  O345  1  0.49672743  0.50653557  0.11524654  1
  O  O346  1  0.51446426  0.50024742  0.62399731  1
  O  O347  1  0.23700145  0.37986169  0.25214697  1
  O  O348  1  0.24236495  0.37671064  0.74111131  1
  O  O349  1  0.24347906  0.87741068  0.24454785  1
  O  O350  1  0.24035603  0.88829766  0.74945069  1
  O  O351  1  0.74851112  0.37665872  0.24414771  1
  O  O352  1  0.74910457  0.38983479  0.75989652  1
  O  O353  1  0.74536326  0.88032319  0.24410308  1
  O  O354  1  0.75214248  0.88259316  0.74021872  1
  O  O355  1  0.25786887  0.12474294  0.25904277  1
  O  O356  1  0.25698437  0.11159493  0.74557338  1
  O  O357  1  0.26513325  0.62147980  0.25245585  1
  O  O358  1  0.25276127  0.62119059  0.75959849  1
  O  O359  1  0.76430119  0.11864396  0.24399427  1
  O  O360  1  0.75808578  0.11901440  0.75345707  1
  O  O361  1  0.76279683  0.62942818  0.25944116  1
  O  O362  1  0.75733450  0.61875125  0.75657021  1
  O  O363  1  0.36742656  0.12123483  0.36947598  1
  O  O364  1  0.37916939  0.11157582  0.86944898  1
  O  O365  1  0.38156973  0.62160587  0.36540109  1
  O  O366  1  0.36368109  0.61700800  0.87656211  1
  O  O367  1  0.87891648  0.11667746  0.36473842  1
  O  O368  1  0.87123574  0.12083159  0.86765253  1
  O  O369  1  0.87041111  0.62036431  0.36943182  1
  O  O370  1  0.86572466  0.62860243  0.86569281  1
  O  O371  1  0.12350598  0.36875605  0.13391952  1
  O  O372  1  0.12901842  0.38091234  0.62957788  1
  O  O373  1  0.13171926  0.87946541  0.13017976  1
  O  O374  1  0.12701679  0.88841047  0.63106460  1
  O  O375  1  0.62641227  0.37982615  0.12669133  1
  O  O376  1  0.62435284  0.38730974  0.62750650  1
  O  O377  1  0.63117160  0.88445426  0.13053392  1
  O  O378  1  0.63707373  0.87385722  0.62404980  1
  O  O379  1  0.11813260  0.26029708  0.25119490  1
  O  O380  1  0.13199573  0.25936239  0.75847634  1
  O  O381  1  0.11988873  0.75734717  0.25288815  1
  O  O382  1  0.12483442  0.75829617  0.75513172  1
  O  O383  1  0.62634341  0.24985470  0.26353571  1
  O  O384  1  0.61318104  0.24926292  0.74627468  1
  O  O385  1  0.61739995  0.75468074  0.25592647  1
  O  O386  1  0.61943300  0.75208926  0.75524315  1
  O  O387  1  0.36969133  0.24612185  0.23654097  1
  O  O388  1  0.38080960  0.24419483  0.74573065  1
  O  O389  1  0.38212327  0.73775801  0.25648723  1
  O  O390  1  0.38095521  0.74924732  0.74239661  1
  O  O391  1  0.88137399  0.24333914  0.24415507  1
  O  O392  1  0.87098661  0.24240932  0.73973301  1
  O  O393  1  0.88233577  0.74696478  0.24408362  1
  O  O394  1  0.87749471  0.73904353  0.74693709  1
  O  O395  1  0.37215060  0.48687806  0.50655096  1
  O  O396  1  0.37751897  0.49321216  0.99279960  1
  O  O397  1  0.38496852  1.00386542  0.48691326  1
  O  O398  1  0.38324014  0.99603604  0.99578015  1
  O  O399  1  0.87836093  0.49291716  0.49652150  1
  O  O400  1  0.88690138  0.49542066  1.00057456  1
  O  O401  1  0.87954807  0.99611661  0.49309683  1
  O  O402  1  0.86990703  0.98882627  0.99102016  1
  O  O403  1  0.14021211  0.01131090  -0.01287674  1
  O  O404  1  0.11625841  -0.00398369  0.50610480  1
  O  O405  1  0.12160208  0.51306042  0.00380290  1
  O  O406  1  0.11959268  0.49968268  0.51059918  1
  O  O407  1  0.62001122  0.00359919  0.00731272  1
  O  O408  1  0.60954752  0.00305610  0.49303851  1
  O  O409  1  0.61029261  0.49968498  -0.00155335  1
  O  O410  1  0.62819972  0.50543636  0.51240934  1
  O  O411  1  0.37756483  0.36330300  0.11803055  1
  O  O412  1  0.37047840  0.36882552  0.62045286  1
  O  O413  1  0.36902296  0.88293033  0.11644229  1
  O  O414  1  0.36998500  0.85900077  0.62830445  1
  O  O415  1  0.87527982  0.36571742  0.11355918  1
  O  O416  1  0.88363538  0.36552544  0.61487081  1
  O  O417  1  0.87040225  0.86497004  0.12023977  1
  O  O418  1  0.86886343  0.87585948  0.61304058  1
  O  O419  1  0.13745247  0.12610526  0.36949185  1
  O  O420  1  0.12690157  0.13158796  0.86708065  1
  O  O421  1  0.11762746  0.63967489  0.37175723  1
  O  O422  1  0.13616168  0.62856031  0.87858052  1
  O  O423  1  0.62027387  0.13889893  0.37929982  1
  O  O424  1  0.63411913  0.11799619  0.88640156  1
  O  O425  1  0.63189076  0.63041820  0.38136380  1
  O  O426  1  0.63502150  0.63877264  0.87126904  1
