# generated using pymatgen
data_V85Zn86O256
_symmetry_space_group_name_H-M   'P 1'
_cell_length_a   16.92940168
_cell_length_b   16.93126696
_cell_length_c   16.94984852
_cell_angle_alpha   90.01421512
_cell_angle_beta   89.96895613
_cell_angle_gamma   90.03482826
_symmetry_Int_Tables_number   1
_chemical_formula_structural   V85Zn86O256
_chemical_formula_sum   'V85 Zn86 O256'
_cell_volume   4858.43873853
_cell_formula_units_Z   1
loop_
 _symmetry_equiv_pos_site_id
 _symmetry_equiv_pos_as_xyz
  1  'x, y, z'
loop_
 _atom_site_type_symbol
 _atom_site_label
 _atom_site_symmetry_multiplicity
 _atom_site_fract_x
 _atom_site_fract_y
 _atom_site_fract_z
 _atom_site_occupancy
  V  V0  1  0.74194871  0.38223315  0.62533414  1
  V  V1  1  0.86940923  0.50108454  0.37742140  1
  V  V2  1  0.12686818  0.00125588  0.12472194  1
  V  V3  1  0.12989349  0.13130854  0.00096646  1
  V  V4  1  0.86370173  0.62862966  0.25214629  1
  V  V5  1  0.88374547  0.25031421  0.61582344  1
  V  V6  1  0.12294786  0.87600654  0.25117460  1
  V  V7  1  0.63242001  0.75083652  0.87156650  1
  V  V8  1  0.51047123  0.00365483  0.49762140  1
  V  V9  1  0.11907774  0.12283629  0.49810331  1
  V  V10  1  0.37396753  0.50443006  0.37241920  1
  V  V11  1  0.49877732  -0.00150143  -0.00061880  1
  V  V12  1  0.13079968  0.24550664  0.37161591  1
  V  V13  1  0.51079492  0.36884635  0.87752005  1
  V  V14  1  -0.00090304  0.87600473  0.37909684  1
  V  V15  1  0.87340491  0.25390858  0.12318028  1
  V  V16  1  0.87590776  0.87176355  0.00442306  1
  V  V17  1  0.25573923  0.12787594  0.87536302  1
  V  V18  1  0.88399445  0.12278353  0.74234727  1
  V  V19  1  0.75183245  0.87043535  0.12368063  1
  V  V20  1  0.24519474  0.37185776  0.12060370  1
  V  V21  1  0.49949312  0.12534586  0.12687350  1
  V  V22  1  0.62806103  0.13320564  -0.00565734  1
  V  V23  1  0.24777420  0.00449699  0.25774334  1
  V  V24  1  0.00114927  0.13211373  0.12883341  1
  V  V25  1  0.74239747  0.87399574  0.63250729  1
  V  V26  1  0.37003752  0.12669931  0.25834536  1
  V  V27  1  0.50276175  0.62630425  0.62406887  1
  V  V28  1  0.12419892  0.74814167  0.37565208  1
  V  V29  1  0.62573604  0.00044248  0.12536527  1
  V  V30  1  0.12784191  0.49804111  0.62294254  1
  V  V31  1  0.37436599  0.37146476  0.50399580  1
  V  V32  1  -0.00257807  0.38290790  0.87558689  1
  V  V33  1  0.87717853  0.74705242  0.62575117  1
  V  V34  1  0.37095906  0.36874027  -0.00097909  1
  V  V35  1  0.25223511  0.37128488  0.62212408  1
  V  V36  1  0.51499461  0.24600117  0.75690533  1
  V  V37  1  0.50561180  0.12554509  0.62423534  1
  V  V38  1  -0.00073532  0.74211229  0.24605892  1
  V  V39  1  0.62501715  0.50792846  0.13027077  1
  V  V40  1  0.87759199  0.38367496  -0.00258557  1
  V  V41  1  0.25204096  0.75631716  0.49931328  1
  V  V42  1  0.12502324  0.37627902  0.74886371  1
  V  V43  1  0.87850083  0.00201212  0.37587937  1
  V  V44  1  0.25049754  0.50481709  0.24883499  1
  V  V45  1  0.48270023  0.62863330  0.12740353  1
  V  V46  1  0.12924056  0.74054552  0.87762887  1
  V  V47  1  0.49463336  0.87341408  0.37868244  1
  V  V48  1  0.37477168  0.87218251  0.00471981  1
  V  V49  1  0.50094976  0.37361673  0.37657254  1
  V  V50  1  0.00299615  0.87733861  0.87780948  1
  V  V51  1  0.11823138  0.37161992  0.24832450  1
  V  V52  1  0.87476755  0.87951961  0.49996580  1
  V  V53  1  0.25715177  0.49770501  0.74777759  1
  V  V54  1  0.00030168  0.74810772  0.74647438  1
  V  V55  1  0.37330030  0.75830091  0.62142022  1
  V  V56  1  0.48276847  0.74807425  0.24722032  1
  V  V57  1  -0.00071250  0.49454379  0.49581070  1
  V  V58  1  0.13065031  0.87748148  0.74996320  1
  V  V59  1  0.37736214  0.62868211  0.75201237  1
  V  V60  1  0.10974366  0.00601270  0.62315882  1
  V  V61  1  0.74575262  0.73582739  0.00316024  1
  V  V62  1  0.25677451  0.00756681  0.74741106  1
  V  V63  1  0.87655275  0.13329514  0.25212556  1
  V  V64  1  0.25252400  0.74247140  0.00729351  1
  V  V65  1  0.50106700  0.50023010  0.50130940  1
  V  V66  1  0.37104387  0.25033855  0.12534271  1
  V  V67  1  0.87318645  0.00030553  0.87586350  1
  V  V68  1  0.62740716  0.61798764  0.49702921  1
  V  V69  1  0.37735749  0.49848284  0.87621492  1
  V  V70  1  0.62544334  0.74623989  0.36947092  1
  V  V71  1  0.11661605  0.51256245  0.11911184  1
  V  V72  1  0.74225735  -0.00232487  0.75158644  1
  V  V73  1  0.12546287  0.62433134  0.50024759  1
  V  V74  1  0.49999044  0.25000750  0.25221905  1
  V  V75  1  0.75119006  -0.00003936  0.24937285  1
  V  V76  1  0.62522980  0.24149216  0.37773870  1
  V  V77  1  0.12838791  0.25284126  0.87829041  1
  V  V78  1  0.37564589  0.24460752  0.63652369  1
  V  V79  1  0.74379918  0.24368875  0.50576075  1
  V  V80  1  0.50289085  0.50388107  -0.00026853  1
  V  V81  1  -0.00588584  0.36690774  0.37370236  1
  V  V82  1  0.37063660  -0.00044940  0.38611474  1
  V  V83  1  0.74947758  0.74649637  0.49381134  1
  V  V84  1  0.50221420  0.76158494  0.75163769  1
  Zn  Zn85  1  0.50269016  0.87935680  0.87279461  1
  Zn  Zn86  1  0.74833941  0.37660278  0.12845383  1
  Zn  Zn87  1  0.93750691  0.68896714  0.08407253  1
  Zn  Zn88  1  0.74624768  0.12019521  0.38070551  1
  Zn  Zn89  1  0.74524543  0.49971009  0.26020736  1
  Zn  Zn90  1  0.62736271  0.37439171  0.25101876  1
  Zn  Zn91  1  0.25345335  0.62721748  0.37126990  1
  Zn  Zn92  1  0.80572478  0.53513188  0.79341562  1
  Zn  Zn93  1  0.24903724  0.62252231  0.87766476  1
  Zn  Zn94  1  0.25508994  0.23705834  0.49562880  1
  Zn  Zn95  1  0.74763724  0.25912285  -0.00824831  1
  Zn  Zn96  1  0.74941759  0.13149802  0.87057442  1
  Zn  Zn97  1  -0.00761391  0.61307744  0.62985780  1
  Zn  Zn98  1  0.65972602  0.41438478  0.77812527  1
  Zn  Zn99  1  0.62182532  0.87204000  0.24735481  1
  Zn  Zn100  1  0.00343070  0.24512961  0.74636950  1
  Zn  Zn101  1  0.25519334  0.87182902  0.12878305  1
  Zn  Zn102  1  0.00046703  0.00226892  0.00133396  1
  Zn  Zn103  1  0.62506781  0.00078696  0.62400090  1
  Zn  Zn104  1  0.25153810  0.88269978  0.61781179  1
  Zn  Zn105  1  0.37689114  0.00266802  0.87135802  1
  Zn  Zn106  1  0.00134160  0.52375820  -0.00324648  1
  Zn  Zn107  1  0.18818196  0.18982827  0.19068935  1
  Zn  Zn108  1  0.18646073  0.18596665  0.68577486  1
  Zn  Zn109  1  0.18951236  0.68728824  0.18906335  1
  Zn  Zn110  1  0.18778050  0.68618831  0.68727259  1
  Zn  Zn111  1  0.68980348  0.18789029  0.18775628  1
  Zn  Zn112  1  0.69124578  0.18342584  0.68851838  1
  Zn  Zn113  1  0.68331322  0.68573562  0.18640144  1
  Zn  Zn114  1  0.68277058  0.69163193  0.68125149  1
  Zn  Zn115  1  0.30945501  0.31834959  0.31195649  1
  Zn  Zn116  1  0.31379986  0.31108840  0.81305015  1
  Zn  Zn117  1  0.30928402  0.81778807  0.31572822  1
  Zn  Zn118  1  0.31440690  0.81676351  0.81795665  1
  Zn  Zn119  1  0.80868527  0.31440974  0.31434417  1
  Zn  Zn120  1  0.81574906  0.30749885  0.81056813  1
  Zn  Zn121  1  0.81211597  0.81097346  0.31144175  1
  Zn  Zn122  1  0.80951338  0.70225902  0.80716350  1
  Zn  Zn123  1  0.18754086  0.43340390  0.43471858  1
  Zn  Zn124  1  0.18649225  0.44132214  0.93749441  1
  Zn  Zn125  1  0.18430125  0.94151637  0.43987175  1
  Zn  Zn126  1  0.19118970  0.93797634  0.93879807  1
  Zn  Zn127  1  0.68962385  0.42730149  0.44431556  1
  Zn  Zn128  1  0.69096368  0.44444918  0.94903647  1
  Zn  Zn129  1  0.68812632  0.93105834  0.43478734  1
  Zn  Zn130  1  0.68638374  0.93428719  0.93665073  1
  Zn  Zn131  1  0.31161462  0.06291599  0.06460787  1
  Zn  Zn132  1  0.30984645  0.06792406  0.56376887  1
  Zn  Zn133  1  0.31022873  0.55759892  0.06250520  1
  Zn  Zn134  1  0.31489939  0.56550311  0.56156972  1
  Zn  Zn135  1  0.81318061  0.06194368  0.06272120  1
  Zn  Zn136  1  0.81339639  0.06327599  0.56350587  1
  Zn  Zn137  1  0.81372185  0.55791465  0.06625681  1
  Zn  Zn138  1  0.81395605  0.56196774  0.56170482  1
  Zn  Zn139  1  0.43744298  0.43748331  0.18830220  1
  Zn  Zn140  1  0.48722479  0.46411585  0.71681494  1
  Zn  Zn141  1  0.43564518  0.93718069  0.18995833  1
  Zn  Zn142  1  0.43493722  0.94002140  0.68245533  1
  Zn  Zn143  1  0.93667151  0.44141281  0.19022686  1
  Zn  Zn144  1  0.93739052  0.42554025  0.67984489  1
  Zn  Zn145  1  0.93955063  0.93916748  0.18875762  1
  Zn  Zn146  1  0.93302870  0.93102142  0.69195118  1
  Zn  Zn147  1  0.05920529  0.06612277  0.31469836  1
  Zn  Zn148  1  0.06595349  0.06234702  0.81307580  1
  Zn  Zn149  1  0.06165060  0.56071950  0.31055159  1
  Zn  Zn150  1  -0.03187906  0.56287934  0.80824064  1
  Zn  Zn151  1  0.56151454  0.06101346  0.31138753  1
  Zn  Zn152  1  0.56047818  0.06549858  0.81232734  1
  Zn  Zn153  1  0.55766600  0.56620121  0.31062055  1
  Zn  Zn154  1  0.64057829  0.57502313  0.81009989  1
  Zn  Zn155  1  0.43842686  0.18459496  0.44101935  1
  Zn  Zn156  1  0.43830572  0.18735063  0.93985548  1
  Zn  Zn157  1  0.43656580  0.68814873  0.43677234  1
  Zn  Zn158  1  0.44142431  0.68827912  0.93655972  1
  Zn  Zn159  1  0.94092333  0.18642998  0.43990268  1
  Zn  Zn160  1  0.93973816  0.19109644  0.93746592  1
  Zn  Zn161  1  0.93801613  0.68483863  0.43619829  1
  Zn  Zn162  1  0.93437440  0.68966483  0.92567243  1
  Zn  Zn163  1  0.05975062  0.31282672  0.06116429  1
  Zn  Zn164  1  0.06428936  0.31023480  0.55676966  1
  Zn  Zn165  1  0.07063645  0.81312525  0.06114973  1
  Zn  Zn166  1  0.06457821  0.81712063  0.56241226  1
  Zn  Zn167  1  0.56089386  0.31639488  0.06690290  1
  Zn  Zn168  1  0.56389477  0.31120855  0.56537089  1
  Zn  Zn169  1  0.56409507  0.81001798  0.06252214  1
  Zn  Zn170  1  0.56173701  0.81224347  0.55729264  1
  O  O171  1  0.12010420  0.12391126  0.12069980  1
  O  O172  1  0.12196729  0.11377363  0.61881797  1
  O  O173  1  0.12687117  0.61077380  0.12988167  1
  O  O174  1  0.12550845  0.61555708  0.61670412  1
  O  O175  1  0.61959337  0.11829435  0.12031802  1
  O  O176  1  0.61148528  0.12165809  0.62924430  1
  O  O177  1  0.61153616  0.61213488  0.12937891  1
  O  O178  1  0.61163804  0.63552485  0.61058212  1
  O  O179  1  0.37980996  0.37964446  0.38629415  1
  O  O180  1  0.37845063  0.37717565  0.88431348  1
  O  O181  1  0.38221530  0.88744109  0.37168113  1
  O  O182  1  0.37794804  0.88285268  0.88949878  1
  O  O183  1  0.88800322  0.38157456  0.36795614  1
  O  O184  1  0.88693390  0.37181006  0.88226907  1
  O  O185  1  0.87957489  0.88061797  0.38003423  1
  O  O186  1  0.88578573  0.88702199  0.88893355  1
  O  O187  1  0.25582168  -0.00445361  0.36649276  1
  O  O188  1  0.24762945  0.01035970  0.86652315  1
  O  O189  1  0.25650140  0.49776548  0.36655360  1
  O  O190  1  0.25842250  0.50151616  0.86704287  1
  O  O191  1  0.75974256  -0.00235348  0.36863654  1
  O  O192  1  0.75762362  -0.00014513  0.86849490  1
  O  O193  1  0.76583527  0.49095705  0.38263151  1
  O  O194  1  0.72039869  0.49255362  0.85278646  1
  O  O195  1  0.24198267  0.49019880  0.13094943  1
  O  O196  1  0.24891284  0.49275119  0.62829464  1
  O  O197  1  0.23882310  1.00275645  0.13579222  1
  O  O198  1  0.24291973  1.00074892  0.63305705  1
  O  O199  1  0.73304335  0.50263479  0.12743780  1
  O  O200  1  0.75751976  0.48142245  0.61675227  1
  O  O201  1  0.74566033  0.99299488  0.13020625  1
  O  O202  1  0.74883411  0.98950743  0.62937918  1
  O  O203  1  0.01124651  0.37952393  0.25729140  1
  O  O204  1  0.01054527  0.37082977  0.75669901  1
  O  O205  1  0.00235464  0.86971984  0.26154257  1
  O  O206  1  0.01106999  0.86997211  0.75689028  1
  O  O207  1  0.49837908  0.36651827  0.25969742  1
  O  O208  1  0.49405937  0.35749727  0.76465211  1
  O  O209  1  0.50017134  0.86895432  0.25923362  1
  O  O210  1  0.49449916  0.86544005  0.74748994  1
  O  O211  1  0.49092172  0.12920925  0.24532658  1
  O  O212  1  0.49905846  0.13782064  0.74554751  1
  O  O213  1  0.49624534  0.63374916  0.23881632  1
  O  O214  1  0.48771634  0.64161787  0.73746412  1
  O  O215  1  0.98960795  0.12148535  0.24085121  1
  O  O216  1  0.98853800  0.12351798  0.75429199  1
  O  O217  1  0.99254102  0.63548370  0.25452683  1
  O  O218  1  1.01618175  0.64515051  0.74193591  1
  O  O219  1  0.37842418  0.26082729  0.00824360  1
  O  O220  1  0.37424331  0.25619917  0.50572712  1
  O  O221  1  0.36256891  0.75813620  -0.00494329  1
  O  O222  1  0.36364396  0.74322136  0.50746378  1
  O  O223  1  0.87759406  0.26013314  0.00928217  1
  O  O224  1  0.86678234  0.24233188  0.51054480  1
  O  O225  1  0.86433645  0.75776813  0.00104666  1
  O  O226  1  0.86827084  0.75920874  0.50033567  1
  O  O227  1  0.12838787  0.23858842  0.49324176  1
  O  O228  1  0.12418224  0.24325210  0.99201674  1
  O  O229  1  0.12877286  0.74262452  0.49636923  1
  O  O230  1  0.14184071  0.75793950  0.99044111  1
  O  O231  1  0.63525153  0.24877814  0.49500065  1
  O  O232  1  0.62450197  0.23576733  1.01054444  1
  O  O233  1  0.63137372  0.74334001  0.49100637  1
  O  O234  1  0.64070993  0.75381834  0.99614819  1
  O  O235  1  0.49176229  0.24548800  0.13316982  1
  O  O236  1  0.49640574  0.24502795  0.63494045  1
  O  O237  1  0.50154506  0.73693020  0.13072193  1
  O  O238  1  0.49246087  0.74792026  0.62687612  1
  O  O239  1  0.99093170  0.23923113  0.12386183  1
  O  O240  1  0.98772334  0.25372234  0.62284543  1
  O  O241  1  1.00306126  0.76310725  0.14145729  1
  O  O242  1  0.99270387  0.75717016  0.63074669  1
  O  O243  1  0.01049561  0.25971390  0.38029043  1
  O  O244  1  0.01367540  0.25797635  0.87192280  1
  O  O245  1  0.00504537  0.75689391  0.36800473  1
  O  O246  1  0.00821588  0.76354868  0.86621296  1
  O  O247  1  0.50606219  0.25291697  0.37303607  1
  O  O248  1  0.49651669  0.25208627  0.86504503  1
  O  O249  1  0.50195665  0.75628287  0.36840023  1
  O  O250  1  0.50266056  0.75706745  0.86564463  1
  O  O251  1  0.23195206  0.12293125  0.50176035  1
  O  O252  1  0.23716486  0.12009597  0.99449981  1
  O  O253  1  0.23914585  0.63248373  0.49805890  1
  O  O254  1  0.25663385  0.63831010  0.99821080  1
  O  O255  1  0.75155586  0.13695682  0.49847587  1
  O  O256  1  0.73396777  0.12182922  1.00265597  1
  O  O257  1  0.74215125  0.63773182  0.50567397  1
  O  O258  1  0.75519549  0.63714359  1.00550721  1
  O  O259  1  0.25796133  0.38024462  0.00899913  1
  O  O260  1  0.25746185  0.37176264  0.50595980  1
  O  O261  1  0.25797989  0.86863908  0.00365727  1
  O  O262  1  0.24201186  0.86096472  0.49949465  1
  O  O263  1  0.76067080  0.37674269  0.00817623  1
  O  O264  1  0.75164694  0.35627706  0.51152817  1
  O  O265  1  0.75797667  0.87292529  0.01014253  1
  O  O266  1  0.75651026  0.86580423  0.50588099  1
  O  O267  1  0.13048018  0.49205617  0.24182778  1
  O  O268  1  0.13575442  0.48437369  0.74126065  1
  O  O269  1  0.13113497  0.99914147  0.24742395  1
  O  O270  1  0.13141999  0.99681090  0.74037766  1
  O  O271  1  0.62359074  0.50026880  0.24320207  1
  O  O272  1  0.59107924  0.49766999  0.74572438  1
  O  O273  1  0.63325332  0.99702768  0.24489535  1
  O  O274  1  0.63842753  1.00371936  0.75077506  1
  O  O275  1  0.36649299  0.00749948  0.25799409  1
  O  O276  1  0.36108370  -0.00268610  0.75059550  1
  O  O277  1  0.36370331  0.48861489  0.26098140  1
  O  O278  1  0.38072132  0.50936340  0.75674443  1
  O  O279  1  0.86955157  0.00782671  0.25606852  1
  O  O280  1  0.86704115  0.00168762  0.75664069  1
  O  O281  1  0.87318897  0.51102169  0.25957667  1
  O  O282  1  0.89643371  0.51219132  0.73491011  1
  O  O283  1  0.11788232  0.36886236  0.36594160  1
  O  O284  1  0.12500012  0.36919097  0.86751359  1
  O  O285  1  0.11585010  0.87194456  0.37156194  1
  O  O286  1  0.12004536  0.87384900  0.86807045  1
  O  O287  1  0.61710231  0.36293790  0.37642237  1
  O  O288  1  0.61247026  0.37204650  0.88423931  1
  O  O289  1  0.61615558  0.86295292  0.37163254  1
  O  O290  1  0.61899882  0.85926823  0.88358082  1
  O  O291  1  0.37801496  0.13041268  0.13504514  1
  O  O292  1  0.38735356  0.13548640  0.61941958  1
  O  O293  1  0.38386339  0.61844490  0.12863667  1
  O  O294  1  0.38032481  0.63718703  0.62950964  1
  O  O295  1  0.88247456  0.13004809  0.13045285  1
  O  O296  1  0.87357726  0.13431218  0.63106358  1
  O  O297  1  0.87232372  0.61937195  0.14558043  1
  O  O298  1  0.87813775  0.64286248  0.61428112  1
  O  O299  1  0.25497864  0.26384739  0.13078057  1
  O  O300  1  0.25906099  0.25332146  0.62357043  1
  O  O301  1  0.24457289  0.75223428  0.11167617  1
  O  O302  1  0.25562103  0.75209937  0.61714849  1
  O  O303  1  0.76345605  0.24957123  0.12069764  1
  O  O304  1  0.75598382  0.24876449  0.61663097  1
  O  O305  1  0.74457465  0.75719417  0.11518825  1
  O  O306  1  0.75599205  0.76048339  0.61778720  1
  O  O307  1  0.23557581  0.25725983  0.37662077  1
  O  O308  1  0.23774560  0.24335726  0.86970210  1
  O  O309  1  0.24341253  0.74777538  0.38099830  1
  O  O310  1  0.24458075  0.74950805  0.88344871  1
  O  O311  1  0.74343776  0.24881125  0.38743608  1
  O  O312  1  0.75762652  0.24334351  0.88055381  1
  O  O313  1  0.73947287  0.75622960  0.38296618  1
  O  O314  1  0.74118462  0.75339131  0.88756693  1
  O  O315  1  0.01141996  0.12391517  0.00809941  1
  O  O316  1  0.01688745  0.12323490  0.49774431  1
  O  O317  1  -0.00537941  0.63703110  0.00344847  1
  O  O318  1  0.01265694  0.61864438  0.50109112  1
  O  O319  1  0.50834949  0.11941608  0.00674025  1
  O  O320  1  0.50000865  0.11492520  0.50830492  1
  O  O321  1  0.49072447  0.61589092  0.01372168  1
  O  O322  1  0.50667554  0.62220922  0.50411049  1
  O  O323  1  0.49394878  0.37981144  0.49747745  1
  O  O324  1  0.49069749  0.37942696  0.99711702  1
  O  O325  1  0.50080188  0.88118127  0.48598739  1
  O  O326  1  0.49416109  0.88306132  1.00318532  1
  O  O327  1  1.00821447  0.38440966  0.48725991  1
  O  O328  1  0.99434856  0.37421708  0.99019040  1
  O  O329  1  0.99139046  0.86961585  0.48720827  1
  O  O330  1  0.99594867  0.87519021  0.99406035  1
  O  O331  1  0.49273786  0.49403231  0.38020517  1
  O  O332  1  0.49118172  0.48722365  0.88873600  1
  O  O333  1  0.49324554  0.99426097  0.37980018  1
  O  O334  1  0.49760838  1.00019279  0.88411367  1
  O  O335  1  0.99486049  0.49130626  0.37901767  1
  O  O336  1  1.01355404  0.48651356  0.88100707  1
  O  O337  1  0.98659825  0.99166889  0.36999900  1
  O  O338  1  0.99770548  0.98979515  0.87549366  1
  O  O339  1  0.01212902  0.01060875  0.12701112  1
  O  O340  1  0.01184105  -0.00594591  0.63165973  1
  O  O341  1  0.01436790  0.49726792  0.12420956  1
  O  O342  1  0.01057582  0.49523110  0.61186562  1
  O  O343  1  0.50542693  0.00611169  0.12122436  1
  O  O344  1  0.50091520  0.00587442  0.61571587  1
  O  O345  1  0.50272742  0.50931278  0.12327498  1
  O  O346  1  0.48814400  0.51832951  0.61309626  1
  O  O347  1  0.23891716  0.38381017  0.24296398  1
  O  O348  1  0.24830374  0.37885532  0.74193255  1
  O  O349  1  0.24135354  0.88457784  0.24840962  1
  O  O350  1  0.24010940  0.88368165  0.75186020  1
  O  O351  1  0.74655658  0.38083697  0.24653920  1
  O  O352  1  0.75273287  0.36656104  0.73222461  1
  O  O353  1  0.75283510  0.87874436  0.23709555  1
  O  O354  1  0.75442265  0.88090562  0.73276309  1
  O  O355  1  0.25768573  0.11688976  0.24835170  1
  O  O356  1  0.24237947  0.11777173  0.76095662  1
  O  O357  1  0.24711001  0.60994645  0.25193608  1
  O  O358  1  0.26373319  0.61847708  0.74782183  1
  O  O359  1  0.75841119  0.11681758  0.25308491  1
  O  O360  1  0.76237898  0.11396809  0.75042748  1
  O  O361  1  0.75997171  0.62519807  0.25405474  1
  O  O362  1  0.73624915  0.62821687  0.75608706  1
  O  O363  1  0.37914200  0.11819419  0.36429558  1
  O  O364  1  0.35917678  0.12482617  0.88379355  1
  O  O365  1  0.37303719  0.60865136  0.38100396  1
  O  O366  1  0.37608676  0.61945937  0.86618084  1
  O  O367  1  0.87564849  0.11815420  0.36885043  1
  O  O368  1  0.87906412  0.11118665  0.87218081  1
  O  O369  1  0.87929817  0.61469227  0.36490385  1
  O  O370  1  0.87856219  0.62309976  0.85557097  1
  O  O371  1  0.12950893  0.37663613  0.13115135  1
  O  O372  1  0.13209604  0.37578330  0.62925176  1
  O  O373  1  0.12668258  0.88697202  0.13325679  1
  O  O374  1  0.12814951  0.88675478  0.63208651  1
  O  O375  1  0.62042267  0.39097426  0.13006181  1
  O  O376  1  0.64029051  0.37328137  0.62255906  1
  O  O377  1  0.63404365  0.88220798  0.12555661  1
  O  O378  1  0.63901925  0.87581388  0.61809914  1
  O  O379  1  0.12584367  0.25881501  0.25738037  1
  O  O380  1  0.12496508  0.26027537  0.75368341  1
  O  O381  1  0.11905791  0.75433376  0.25643870  1
  O  O382  1  0.12448434  0.76186303  0.75425046  1
  O  O383  1  0.61848832  0.25028301  0.25747308  1
  O  O384  1  0.61425178  0.24837269  0.74980930  1
  O  O385  1  0.61581256  0.75032003  0.25625985  1
  O  O386  1  0.61693526  0.75205605  0.76144905  1
  O  O387  1  0.37704315  0.24361347  0.24883887  1
  O  O388  1  0.38023335  0.25176497  0.73868644  1
  O  O389  1  0.38318270  0.75401796  0.25438594  1
  O  O390  1  0.37741689  0.74662112  0.74418448  1
  O  O391  1  0.86946585  0.23835554  0.24499546  1
  O  O392  1  0.88001698  0.23897170  0.73685459  1
  O  O393  1  0.88174143  0.73686805  0.25743709  1
  O  O394  1  0.88648893  0.75786343  0.73798304  1
  O  O395  1  0.37836333  0.49112130  0.49356896  1
  O  O396  1  0.38151045  0.48957209  0.99772589  1
  O  O397  1  0.38044340  1.00654635  0.48861123  1
  O  O398  1  0.38730627  0.99899931  1.00184935  1
  O  O399  1  0.89141442  0.50821879  0.49267767  1
  O  O400  1  0.88275676  0.48831218  1.00731234  1
  O  O401  1  0.86890979  0.98791319  0.49210469  1
  O  O402  1  0.87867603  0.99555004  0.99348418  1
  O  O403  1  0.12412910  0.00655128  0.01036434  1
  O  O404  1  0.12425225  0.00564225  0.51407532  1
  O  O405  1  0.12504390  0.49908859  0.01545854  1
  O  O406  1  0.12112190  0.50619592  0.50041959  1
  O  O407  1  0.61511639  0.00630992  0.00574422  1
  O  O408  1  0.61381453  -0.00376257  0.49687114  1
  O  O409  1  0.60956225  0.49812334  0.01404582  1
  O  O410  1  0.62174122  0.51215989  0.49110669  1
  O  O411  1  0.36633110  0.37155999  0.11928540  1
  O  O412  1  0.37191459  0.36466935  0.61220221  1
  O  O413  1  0.37224938  0.88265673  0.11168494  1
  O  O414  1  0.37037409  0.86291612  0.62454604  1
  O  O415  1  0.87849629  0.36749182  0.12065625  1
  O  O416  1  0.86646112  0.35422372  0.62378612  1
  O  O417  1  0.87050284  0.88305223  0.11294835  1
  O  O418  1  0.86713057  0.86892538  0.61546819  1
  O  O419  1  0.12219814  0.13208490  0.38320558  1
  O  O420  1  0.12975696  0.13233388  0.88339407  1
  O  O421  1  0.12667636  0.62991999  0.38208334  1
  O  O422  1  0.12883928  0.64172120  0.86863683  1
  O  O423  1  0.62532094  0.13688306  0.37070242  1
  O  O424  1  0.62519356  0.12168258  0.89201719  1
  O  O425  1  0.61678653  0.63805257  0.38194866  1
  O  O426  1  0.60989086  0.65239688  0.88711599  1
