# generated using pymatgen
data_V85Zn86O256
_symmetry_space_group_name_H-M   'P 1'
_cell_length_a   16.95042797
_cell_length_b   16.94389005
_cell_length_c   16.94471997
_cell_angle_alpha   90.09643809
_cell_angle_beta   89.91985378
_cell_angle_gamma   89.96157010
_symmetry_Int_Tables_number   1
_chemical_formula_structural   V85Zn86O256
_chemical_formula_sum   'V85 Zn86 O256'
_cell_volume   4866.61566956
_cell_formula_units_Z   1
loop_
 _symmetry_equiv_pos_site_id
 _symmetry_equiv_pos_as_xyz
  1  'x, y, z'
loop_
 _atom_site_type_symbol
 _atom_site_label
 _atom_site_symmetry_multiplicity
 _atom_site_fract_x
 _atom_site_fract_y
 _atom_site_fract_z
 _atom_site_occupancy
  V  V0  1  0.62602661  0.24049039  0.87126920  1
  V  V1  1  0.37510925  0.12691478  0.74746971  1
  V  V2  1  0.87193239  0.00203773  0.87780949  1
  V  V3  1  0.75472577  0.75610013  0.49307015  1
  V  V4  1  0.74709898  0.23624040  -0.00602440  1
  V  V5  1  0.24649940  0.50550111  0.25561742  1
  V  V6  1  0.24810484  0.00136148  0.75089751  1
  V  V7  1  0.50013151  0.50467238  -0.00444883  1
  V  V8  1  0.50279019  0.75903984  0.26184252  1
  V  V9  1  0.00262034  0.86753587  0.87779061  1
  V  V10  1  0.74239291  0.37105926  0.11990378  1
  V  V11  1  0.24951159  0.00394778  0.25618159  1
  V  V12  1  0.00075610  0.50950453  0.01304253  1
  V  V13  1  0.24767617  0.25283592  0.00065366  1
  V  V14  1  0.87562966  0.63217200  0.75546059  1
  V  V15  1  0.37657144  0.87319243  0.49339877  1
  V  V16  1  0.87581849  0.37291978  0.50452679  1
  V  V17  1  0.00143341  0.37396512  0.37555555  1
  V  V18  1  0.37370055  0.37927504  -0.00290646  1
  V  V19  1  0.00030917  -0.00048361  0.00141379  1
  V  V20  1  0.74834595  0.49808922  0.24970907  1
  V  V21  1  0.12112075  0.00824262  0.62671218  1
  V  V22  1  0.36384811  0.62107163  0.75181104  1
  V  V23  1  0.87535639  0.24229332  0.62410865  1
  V  V24  1  0.62300408  0.49996778  0.12110677  1
  V  V25  1  -0.00036914  0.24818766  0.74446164  1
  V  V26  1  -0.01340299  0.87241757  0.37740488  1
  V  V27  1  0.87995516  0.75905139  0.62231151  1
  V  V28  1  0.12437216  0.37903139  0.24857609  1
  V  V29  1  -0.00193805  -0.00158915  0.50173753  1
  V  V30  1  0.12466151  0.00114300  0.12765804  1
  V  V31  1  0.74713409  0.62850713  0.37362744  1
  V  V32  1  0.24457910  0.38292050  0.12578827  1
  V  V33  1  0.24869163  0.12567570  0.87501228  1
  V  V34  1  0.74474016  -0.00102305  0.75099489  1
  V  V35  1  0.37766285  0.74803525  0.62617733  1
  V  V36  1  0.50255548  -0.00454826  0.49990373  1
  V  V37  1  0.12087960  0.86940448  0.75110134  1
  V  V38  1  0.24785157  0.87223611  0.11824003  1
  V  V39  1  0.13415508  0.62585467  0.01260898  1
  V  V40  1  0.36158324  0.50436792  0.87073306  1
  V  V41  1  -0.00192040  0.38097697  0.87361162  1
  V  V42  1  0.86633046  0.00688901  0.37829175  1
  V  V43  1  0.13028405  0.62316438  0.49594317  1
  V  V44  1  0.12277001  0.25094429  0.87367071  1
  V  V45  1  0.12372526  0.12632587  0.00136193  1
  V  V46  1  0.62028865  0.37241482  0.26039612  1
  V  V47  1  0.37879051  -0.00001729  0.37411345  1
  V  V48  1  0.50927401  0.12437570  0.62434384  1
  V  V49  1  0.12501977  0.87435629  0.25555117  1
  V  V50  1  0.37145060  0.12840590  0.25382692  1
  V  V51  1  0.13867868  0.74030329  0.87558582  1
  V  V52  1  0.50264751  0.37857807  0.86878858  1
  V  V53  1  0.87088945  0.24727573  0.12432818  1
  V  V54  1  0.37257169  0.62754864  0.25617716  1
  V  V55  1  0.87438083  0.12372826  0.75332512  1
  V  V56  1  0.37169610  0.74927571  0.11842459  1
  V  V57  1  0.87349485  0.37586508  -0.00213705  1
  V  V58  1  0.50463166  0.87655854  0.86212166  1
  V  V59  1  0.50459078  0.48984453  0.49673539  1
  V  V60  1  0.13223341  0.38230468  0.74625603  1
  V  V61  1  0.62565106  -0.00999487  0.10895858  1
  V  V62  1  0.00034090  0.63073549  0.62879456  1
  V  V63  1  0.24889171  0.87515132  0.62373879  1
  V  V64  1  0.25177185  0.74508388  0.48997162  1
  V  V65  1  0.12803437  0.12366520  0.49640613  1
  V  V66  1  0.13151533  0.24599729  0.37418010  1
  V  V67  1  0.63720705  0.64011956  -0.00735784  1
  V  V68  1  0.87450433  0.50131435  0.37671892  1
  V  V69  1  0.50126613  0.62985173  0.12305527  1
  V  V70  1  0.74410187  0.87389335  0.62681248  1
  V  V71  1  0.38395741  0.88136720  -0.00038263  1
  V  V72  1  0.50131269  0.25509019  0.25620008  1
  V  V73  1  0.62328216  0.62986090  0.49711467  1
  V  V74  1  -0.00092447  0.24960607  0.25013387  1
  V  V75  1  0.38034588  0.49361506  0.37381696  1
  V  V76  1  0.74786480  0.50632419  0.75531051  1
  V  V77  1  0.62517413  0.88006818  0.26643009  1
  V  V78  1  0.26079059  0.24709505  0.49706226  1
  V  V79  1  0.00204700  0.50056264  0.50469412  1
  V  V80  1  -0.00389348  0.12615390  0.12763912  1
  V  V81  1  0.74316982  0.24534830  0.49154995  1
  V  V82  1  0.86819647  0.87215726  0.01352765  1
  V  V83  1  0.00016714  0.74087215  0.24208011  1
  V  V84  1  0.37647709  0.25002601  0.12180949  1
  Zn  Zn85  1  0.61641937  0.11110301  -0.00756432  1
  Zn  Zn86  1  0.37683913  0.00521687  0.88306497  1
  Zn  Zn87  1  0.12616596  0.74707956  0.37506561  1
  Zn  Zn88  1  0.49785620  0.11580990  0.11574059  1
  Zn  Zn89  1  0.62818418  0.37636894  0.74904456  1
  Zn  Zn90  1  0.37741838  0.25028839  0.62315179  1
  Zn  Zn91  1  0.37980761  0.37234289  0.49742948  1
  Zn  Zn92  1  0.64469036  0.11234438  0.46715760  1
  Zn  Zn93  1  0.50227494  0.62241004  0.62707086  1
  Zn  Zn94  1  0.50460996  0.74717496  0.75163425  1
  Zn  Zn95  1  0.65503483  0.75032184  0.84743591  1
  Zn  Zn96  1  0.62667011  0.49859233  0.62387523  1
  Zn  Zn97  1  0.50260271  0.25186708  0.74561491  1
  Zn  Zn98  1  0.85965026  0.13112505  0.25767037  1
  Zn  Zn99  1  0.62693109  -0.00210996  0.62405798  1
  Zn  Zn100  1  0.87212767  0.51081625  0.87774869  1
  Zn  Zn101  1  0.25849859  0.37919916  0.62238262  1
  Zn  Zn102  1  0.74925101  0.37604444  0.62811202  1
  Zn  Zn103  1  0.13397544  0.50735535  0.63036532  1
  Zn  Zn104  1  0.88322655  0.61858269  0.24023792  1
  Zn  Zn105  1  0.74239154  0.00860383  0.25130276  1
  Zn  Zn106  1  0.85898095  0.73183257  0.11084934  1
  Zn  Zn107  1  0.18849134  0.18942073  0.18778506  1
  Zn  Zn108  1  0.18874633  0.19136200  0.68342263  1
  Zn  Zn109  1  0.18774608  0.68862099  0.18848034  1
  Zn  Zn110  1  0.18875670  0.69009245  0.68434489  1
  Zn  Zn111  1  0.68123540  0.17730600  0.18547267  1
  Zn  Zn112  1  0.69129123  0.18769344  0.68657267  1
  Zn  Zn113  1  0.68512041  0.68858939  0.18498537  1
  Zn  Zn114  1  0.69022276  0.68505590  0.67994461  1
  Zn  Zn115  1  0.31220752  0.31353295  0.31294906  1
  Zn  Zn116  1  0.31410048  0.31190154  0.81314437  1
  Zn  Zn117  1  0.31418912  0.81397988  0.30946380  1
  Zn  Zn118  1  0.31375393  0.81179924  0.81295455  1
  Zn  Zn119  1  0.81026394  0.31322978  0.31151575  1
  Zn  Zn120  1  0.81010221  0.31563846  0.81267189  1
  Zn  Zn121  1  0.79537986  0.79450377  0.27603518  1
  Zn  Zn122  1  0.81961765  0.81472057  0.81146804  1
  Zn  Zn123  1  0.19169176  0.43732856  0.43848552  1
  Zn  Zn124  1  0.18108227  0.44189995  0.93882199  1
  Zn  Zn125  1  0.18976197  0.93741473  0.43678579  1
  Zn  Zn126  1  0.18895489  0.93672514  0.93786397  1
  Zn  Zn127  1  0.68984230  0.43558561  0.44040702  1
  Zn  Zn128  1  0.68578267  0.44050441  0.93399445  1
  Zn  Zn129  1  0.68468590  0.92829627  0.43580450  1
  Zn  Zn130  1  0.70164071  0.90567834  0.92865726  1
  Zn  Zn131  1  0.31024184  0.06274479  0.06637651  1
  Zn  Zn132  1  0.31237497  0.06450921  0.56232868  1
  Zn  Zn133  1  0.31186966  0.56270388  0.06504522  1
  Zn  Zn134  1  0.31348172  0.55889872  0.56403319  1
  Zn  Zn135  1  0.80593316  0.05614099  0.06790032  1
  Zn  Zn136  1  0.81557927  0.06287382  0.56348910  1
  Zn  Zn137  1  0.81162772  0.56102517  0.06271353  1
  Zn  Zn138  1  0.81146452  0.56638943  0.56680435  1
  Zn  Zn139  1  0.43562514  0.43886866  0.18548913  1
  Zn  Zn140  1  0.43558996  0.44034733  0.68235997  1
  Zn  Zn141  1  0.44177691  0.93850235  0.18371839  1
  Zn  Zn142  1  0.43410903  0.94049838  0.68498090  1
  Zn  Zn143  1  0.93335908  0.43553286  0.18663198  1
  Zn  Zn144  1  0.93619123  0.44110201  0.68866532  1
  Zn  Zn145  1  0.93750955  0.94021659  0.19598088  1
  Zn  Zn146  1  0.93839240  0.93584215  0.68797377  1
  Zn  Zn147  1  0.05765457  0.06347174  0.31541249  1
  Zn  Zn148  1  0.05834479  0.06231765  0.81275812  1
  Zn  Zn149  1  0.06559639  0.56088530  0.31646801  1
  Zn  Zn150  1  0.05965682  0.56460135  0.81375481  1
  Zn  Zn151  1  0.55846004  0.06669312  0.30779266  1
  Zn  Zn152  1  0.55790440  0.05710064  0.81443873  1
  Zn  Zn153  1  0.56272550  0.56400051  0.31138027  1
  Zn  Zn154  1  0.55985531  0.57241969  0.81164178  1
  Zn  Zn155  1  0.46899563  0.17506782  0.42410462  1
  Zn  Zn156  1  0.43932978  0.18881178  0.93399997  1
  Zn  Zn157  1  0.43709015  0.68057211  0.43811002  1
  Zn  Zn158  1  0.43488485  0.69108079  0.93553183  1
  Zn  Zn159  1  0.94317200  0.18392262  0.44156360  1
  Zn  Zn160  1  0.93609875  0.18819266  0.93576098  1
  Zn  Zn161  1  0.93859296  0.68765891  0.43658534  1
  Zn  Zn162  1  0.94254435  0.69163264  0.93926947  1
  Zn  Zn163  1  0.06027110  0.31616028  0.06223349  1
  Zn  Zn164  1  0.06409855  0.30958831  0.56341443  1
  Zn  Zn165  1  0.06338775  0.80849340  0.06204283  1
  Zn  Zn166  1  0.06375866  0.81384787  0.56046879  1
  Zn  Zn167  1  0.56009414  0.30851498  0.05603367  1
  Zn  Zn168  1  0.56500081  0.31429488  0.56591224  1
  Zn  Zn169  1  0.56278367  0.81638196  0.06870245  1
  Zn  Zn170  1  0.56484116  0.81028557  0.55989621  1
  O  O171  1  0.11829735  0.12277997  0.12009240  1
  O  O172  1  0.12678419  0.11299020  0.62059810  1
  O  O173  1  0.12453844  0.63108565  0.11176093  1
  O  O174  1  0.11715922  0.62757692  0.61718288  1
  O  O175  1  0.61973430  0.10818918  0.11655761  1
  O  O176  1  0.61428669  0.12231004  0.62541381  1
  O  O177  1  0.61724630  0.62038087  0.12051050  1
  O  O178  1  0.62600479  0.61889695  0.60815738  1
  O  O179  1  0.37197021  0.38992879  0.37434513  1
  O  O180  1  0.38164550  0.38141480  0.87886870  1
  O  O181  1  0.37013773  0.88114429  0.38666694  1
  O  O182  1  0.37103304  0.87756449  0.89062290  1
  O  O183  1  0.88045815  0.38352671  0.38228819  1
  O  O184  1  0.88393657  0.37489199  0.88179391  1
  O  O185  1  0.88641514  0.88537563  0.37219534  1
  O  O186  1  0.88936146  0.88369233  0.88696585  1
  O  O187  1  0.25933573  -0.00411581  0.36278423  1
  O  O188  1  0.24899689  0.00884662  0.86866974  1
  O  O189  1  0.25807856  0.49877027  0.36197067  1
  O  O190  1  0.26307499  0.49244247  0.87759078  1
  O  O191  1  0.76536057  -0.00172444  0.38723338  1
  O  O192  1  0.76577585  -0.01004867  0.86669172  1
  O  O193  1  0.75869052  0.50421781  0.37225913  1
  O  O194  1  0.75470002  0.50039499  0.86166769  1
  O  O195  1  0.25708338  0.49043270  0.13837909  1
  O  O196  1  0.24468984  0.49168191  0.61849488  1
  O  O197  1  0.24341512  0.99351961  0.13649374  1
  O  O198  1  0.24114871  0.99454559  0.63004516  1
  O  O199  1  0.74288350  0.48900438  0.12872316  1
  O  O200  1  0.75235606  0.49838209  0.63788466  1
  O  O201  1  0.73118609  1.00106602  0.13321756  1
  O  O202  1  0.75246368  0.99183503  0.62972850  1
  O  O203  1  0.00503204  0.36965491  0.25396121  1
  O  O204  1  0.00469426  0.36908144  0.75741183  1
  O  O205  1  0.00852622  0.86822309  0.25881691  1
  O  O206  1  0.01441963  0.88273483  0.76046304  1
  O  O207  1  0.50747450  0.36601107  0.23858088  1
  O  O208  1  0.49930451  0.37715043  0.76038017  1
  O  O209  1  0.49803334  0.86308325  0.25131383  1
  O  O210  1  0.48855986  0.87181068  0.75867113  1
  O  O211  1  0.48886992  0.14119434  0.23894145  1
  O  O212  1  0.49105470  0.12244169  0.74153160  1
  O  O213  1  0.49529740  0.63282589  0.23920041  1
  O  O214  1  0.48559151  0.62832927  0.74485081  1
  O  O215  1  0.99919336  0.13299869  0.24153456  1
  O  O216  1  0.98952313  0.13643524  0.75577245  1
  O  O217  1  1.00694116  0.63716205  0.25546668  1
  O  O218  1  0.99410084  0.62053455  0.73563922  1
  O  O219  1  0.36612286  0.25881036  0.00373963  1
  O  O220  1  0.36421838  0.24251730  0.49019006  1
  O  O221  1  0.37457449  0.75962212  0.01229091  1
  O  O222  1  0.37029037  0.75441649  0.50242680  1
  O  O223  1  0.86656607  0.25519473  0.00365908  1
  O  O224  1  0.87632904  0.25461656  0.50789977  1
  O  O225  1  0.88293865  0.76622835  0.00252193  1
  O  O226  1  0.86579484  0.74159975  0.50861811  1
  O  O227  1  0.12946722  0.24205546  0.49318641  1
  O  O228  1  0.12827840  0.24714379  0.99422945  1
  O  O229  1  0.13596635  0.74354621  0.50050056  1
  O  O230  1  0.12022737  0.73570631  0.98952896  1
  O  O231  1  0.64272305  0.25368723  0.50227339  1
  O  O232  1  0.63416675  0.25101057  0.98958908  1
  O  O233  1  0.63680684  0.74075615  0.49986269  1
  O  O234  1  0.62393463  0.73872847  1.01087117  1
  O  O235  1  0.48307642  0.25633473  0.12711217  1
  O  O236  1  0.49863740  0.23906088  0.62500321  1
  O  O237  1  0.49095256  0.74455120  0.13268440  1
  O  O238  1  0.48497022  0.75038952  0.61970996  1
  O  O239  1  0.99261401  0.24615614  0.12857094  1
  O  O240  1  0.99413279  0.25337305  0.63798617  1
  O  O241  1  1.00005823  0.75389498  0.14167410  1
  O  O242  1  0.99279332  0.74328898  0.61747584  1
  O  O243  1  0.00869158  0.25491237  0.37101750  1
  O  O244  1  0.00354798  0.26060275  0.86851097  1
  O  O245  1  0.00585684  0.75986909  0.37410174  1
  O  O246  1  0.01157979  0.76418352  0.87750736  1
  O  O247  1  0.48229702  0.26541022  0.35275384  1
  O  O248  1  0.50830512  0.26143786  0.87026656  1
  O  O249  1  0.49369025  0.74347575  0.35913522  1
  O  O250  1  0.48799415  0.76908135  0.87222840  1
  O  O251  1  0.23729603  0.13043183  0.50242546  1
  O  O252  1  0.24317355  0.13185066  0.99713871  1
  O  O253  1  0.24313314  0.63436963  0.50482546  1
  O  O254  1  0.23357630  0.61646349  1.00185641  1
  O  O255  1  0.75018354  0.13816810  0.50320591  1
  O  O256  1  0.74758789  0.13462230  1.00048702  1
  O  O257  1  0.74549612  0.63155773  0.49209517  1
  O  O258  1  0.73529754  0.62287959  1.00162110  1
  O  O259  1  0.25073744  0.37389088  0.00746448  1
  O  O260  1  0.25270118  0.36058869  0.49692882  1
  O  O261  1  0.25352572  0.87749972  0.01427946  1
  O  O262  1  0.25648448  0.86836576  0.50465862  1
  O  O263  1  0.75337165  0.37185508  0.00559441  1
  O  O264  1  0.76449250  0.36816024  0.50248370  1
  O  O265  1  0.77103705  0.88511164  0.01911429  1
  O  O266  1  0.75004543  0.86110261  0.50309051  1
  O  O267  1  0.13348338  0.49178589  0.25541693  1
  O  O268  1  0.11979097  0.48510247  0.75178692  1
  O  O269  1  0.13084956  0.99534827  0.24786178  1
  O  O270  1  0.12853675  0.99617192  0.74348610  1
  O  O271  1  0.62717819  0.49185110  0.24050138  1
  O  O272  1  0.63851736  0.50713403  0.75168958  1
  O  O273  1  0.61623641  0.98815571  0.25276736  1
  O  O274  1  0.64224509  1.00680219  0.75024342  1
  O  O275  1  0.36975442  0.00558963  0.25398959  1
  O  O276  1  0.36355390  0.01136135  0.74943937  1
  O  O277  1  0.37117094  0.50820948  0.25449383  1
  O  O278  1  0.37621770  0.51219886  0.75612889  1
  O  O279  1  0.87215200  0.00278228  0.26664214  1
  O  O280  1  0.87572938  0.00733456  0.75755171  1
  O  O281  1  0.86840422  0.49691813  0.26020192  1
  O  O282  1  0.86831711  0.51125376  0.75261552  1
  O  O283  1  0.11886159  0.36769278  0.37001087  1
  O  O284  1  0.11764681  0.37089383  0.86622841  1
  O  O285  1  0.12179304  0.87677845  0.36341466  1
  O  O286  1  0.12276022  0.86816103  0.87012539  1
  O  O287  1  0.63181154  0.37783518  0.35895908  1
  O  O288  1  0.61593882  0.37025407  0.87210478  1
  O  O289  1  0.61160572  0.87430572  0.36536299  1
  O  O290  1  0.60416762  0.87660916  0.87308734  1
  O  O291  1  0.37280828  0.13419846  0.13278614  1
  O  O292  1  0.38035695  0.12649252  0.63384954  1
  O  O293  1  0.38122867  0.63220683  0.13129734  1
  O  O294  1  0.37562455  0.63251580  0.63291977  1
  O  O295  1  0.87983199  0.13028430  0.12644128  1
  O  O296  1  0.87857833  0.13619267  0.63185982  1
  O  O297  1  0.87794491  0.62143373  0.12719392  1
  O  O298  1  0.88286611  0.63490042  0.63137728  1
  O  O299  1  0.25855755  0.25837647  0.12089483  1
  O  O300  1  0.25271728  0.25325648  0.61126735  1
  O  O301  1  0.26003541  0.76121695  0.13473187  1
  O  O302  1  0.26020940  0.75631326  0.61510476  1
  O  O303  1  0.74980665  0.25532556  0.11535292  1
  O  O304  1  0.76153579  0.25353075  0.61726180  1
  O  O305  1  0.76684657  0.75950326  0.16891882  1
  O  O306  1  0.75945963  0.75689116  0.61496672  1
  O  O307  1  0.23750934  0.25193690  0.37818831  1
  O  O308  1  0.24248167  0.24581536  0.88161084  1
  O  O309  1  0.24941564  0.75469441  0.38597008  1
  O  O310  1  0.23666881  0.75356166  0.87806797  1
  O  O311  1  0.75946149  0.25340777  0.39316202  1
  O  O312  1  0.73980347  0.25561258  0.88280206  1
  O  O313  1  0.76066032  0.73577705  0.37692897  1
  O  O314  1  0.74288835  0.79998013  0.88912688  1
  O  O315  1  0.00408637  0.12056900  0.00720709  1
  O  O316  1  0.01541982  0.11190083  0.49883599  1
  O  O317  1  0.00558452  0.61298177  -0.00300372  1
  O  O318  1  0.00599832  0.61923067  0.50860662  1
  O  O319  1  0.50322805  0.13305514  0.00320651  1
  O  O320  1  0.48459984  0.10579686  0.51498024  1
  O  O321  1  0.50187065  0.62526408  0.01030112  1
  O  O322  1  0.51058264  0.61903065  0.49966603  1
  O  O323  1  0.50242523  0.38601273  0.49669480  1
  O  O324  1  0.49362952  0.38201166  0.98922545  1
  O  O325  1  0.49050109  0.88582775  0.50612996  1
  O  O326  1  0.48553559  0.87246851  0.99709302  1
  O  O327  1  0.99247718  0.37812285  0.49694270  1
  O  O328  1  0.99679707  0.38355549  0.99205051  1
  O  O329  1  1.01083765  0.88732674  0.48834793  1
  O  O330  1  1.00492707  0.88432778  0.99389116  1
  O  O331  1  0.49145374  0.50624207  0.38078502  1
  O  O332  1  0.49418070  0.49590801  0.87948462  1
  O  O333  1  0.48397612  0.99862713  0.38256199  1
  O  O334  1  0.49014762  0.98455451  0.87125781  1
  O  O335  1  0.99312868  0.49401479  0.38289958  1
  O  O336  1  0.99752861  0.49006156  0.88071761  1
  O  O337  1  0.99499010  0.99213779  0.38202217  1
  O  O338  1  0.99463693  0.99352786  0.88278126  1
  O  O339  1  0.00649994  0.00762765  0.12380745  1
  O  O340  1  0.00983408  -0.00850980  0.61521883  1
  O  O341  1  -0.00039822  0.49150367  0.11070698  1
  O  O342  1  0.00347740  0.50814876  0.61809447  1
  O  O343  1  0.51544742  -0.00043174  0.12507212  1
  O  O344  1  0.50454828  0.00367757  0.61939827  1
  O  O345  1  0.50258416  0.50952179  0.11775034  1
  O  O346  1  0.50249454  0.50346886  0.61091279  1
  O  O347  1  0.24470929  0.38177918  0.24340465  1
  O  O348  1  0.23376207  0.36616129  0.75008478  1
  O  O349  1  0.24372717  0.88236258  0.24298566  1
  O  O350  1  0.24135854  0.88184072  0.74621421  1
  O  O351  1  0.74167951  0.37661001  0.23940524  1
  O  O352  1  0.75266451  0.39152535  0.74877966  1
  O  O353  1  0.72902782  0.88764941  0.26746724  1
  O  O354  1  0.76262957  0.88755434  0.73597320  1
  O  O355  1  0.25732696  0.11566826  0.24431755  1
  O  O356  1  0.25344605  0.12228976  0.75402304  1
  O  O357  1  0.25920098  0.61737695  0.24412516  1
  O  O358  1  0.26413128  0.62849367  0.74579297  1
  O  O359  1  0.74617956  0.12348345  0.25678892  1
  O  O360  1  0.76662155  0.11641628  0.74350323  1
  O  O361  1  0.74699120  0.61215508  0.25961085  1
  O  O362  1  0.76193057  0.61632827  0.74491939  1
  O  O363  1  0.37895567  0.11779766  0.36021982  1
  O  O364  1  0.36623024  0.12526016  0.86742864  1
  O  O365  1  0.37628473  0.61793027  0.36038086  1
  O  O366  1  0.37624412  0.61912360  0.86273491  1
  O  O367  1  0.88494587  0.11047235  0.37458080  1
  O  O368  1  0.87948591  0.11425164  0.86804205  1
  O  O369  1  0.87126173  0.61090085  0.37461686  1
  O  O370  1  0.88531012  0.63090033  0.85998095  1
  O  O371  1  0.13710291  0.36834869  0.13150396  1
  O  O372  1  0.12154239  0.37363264  0.64096493  1
  O  O373  1  0.13019217  0.87845671  0.13523959  1
  O  O374  1  0.12954399  0.88025963  0.63401506  1
  O  O375  1  0.63169960  0.37823947  0.12380086  1
  O  O376  1  0.63012652  0.38058970  0.63122378  1
  O  O377  1  0.61851205  0.88627109  0.13937534  1
  O  O378  1  0.64025334  0.87612935  0.62025274  1
  O  O379  1  0.12090058  0.25641481  0.25682612  1
  O  O380  1  0.11599494  0.25532489  0.75444193  1
  O  O381  1  0.11809195  0.75752935  0.25381345  1
  O  O382  1  0.12997119  0.75812823  0.76146502  1
  O  O383  1  0.60762977  0.25698769  0.23963264  1
  O  O384  1  0.62606538  0.25269392  0.75750851  1
  O  O385  1  0.60899750  0.76329907  0.24634165  1
  O  O386  1  0.61860925  0.74119097  0.74375382  1
  O  O387  1  0.37514362  0.24605441  0.24064963  1
  O  O388  1  0.37656382  0.23729177  0.75030923  1
  O  O389  1  0.38198921  0.74488681  0.24256335  1
  O  O390  1  0.37332512  0.74233942  0.74102075  1
  O  O391  1  0.88110263  0.25122290  0.24308124  1
  O  O392  1  0.87949685  0.24453304  0.74566870  1
  O  O393  1  0.89773593  0.74261033  0.26232332  1
  O  O394  1  0.87242691  0.74360634  0.73795370  1
  O  O395  1  0.38587020  0.50335136  0.48841042  1
  O  O396  1  0.38066086  0.49800508  0.99322872  1
  O  O397  1  0.37442110  0.99171989  0.49245358  1
  O  O398  1  0.36778135  0.98550365  1.00324919  1
  O  O399  1  0.87995956  0.49249412  0.49657097  1
  O  O400  1  0.88539570  0.49492355  0.99612598  1
  O  O401  1  0.88757929  1.00477437  0.49207528  1
  O  O402  1  0.88150860  0.99628294  0.99529948  1
  O  O403  1  0.12091954  0.00618576  0.00777572  1
  O  O404  1  0.12374861  0.00541472  0.50632024  1
  O  O405  1  0.11135601  0.51261894  -0.00409007  1
  O  O406  1  0.11835559  0.50622301  0.49939183  1
  O  O407  1  0.63456071  -0.01185882  0.00675121  1
  O  O408  1  0.61678479  0.00110481  0.49884812  1
  O  O409  1  0.61779032  0.51083582  0.00302136  1
  O  O410  1  0.61916756  0.50614984  0.49676439  1
  O  O411  1  0.36460765  0.37078348  0.11789984  1
  O  O412  1  0.37667017  0.36752274  0.61722603  1
  O  O413  1  0.36912464  0.87040491  0.11719394  1
  O  O414  1  0.36780705  0.86989728  0.61443792  1
  O  O415  1  0.86233545  0.36819711  0.11900281  1
  O  O416  1  0.87834873  0.36489056  0.61828028  1
  O  O417  1  0.89165088  0.87814301  0.11254741  1
  O  O418  1  0.87241649  0.86360347  0.62481914  1
  O  O419  1  0.12188439  0.13390734  0.38220173  1
  O  O420  1  0.12759404  0.13119020  0.88103295  1
  O  O421  1  0.12209917  0.62757700  0.39171988  1
  O  O422  1  0.12208924  0.63738212  0.87649966  1
  O  O423  1  0.57667233  0.14184680  0.38640014  1
  O  O424  1  0.61936599  0.13652864  0.87378909  1
  O  O425  1  0.63674257  0.61956472  0.38273864  1
  O  O426  1  0.61970284  0.63754581  0.88874140  1
