# generated using pymatgen
data_V85Zn86O256
_symmetry_space_group_name_H-M   'P 1'
_cell_length_a   16.91750779
_cell_length_b   16.92251175
_cell_length_c   16.92830811
_cell_angle_alpha   90.05896824
_cell_angle_beta   90.02588366
_cell_angle_gamma   89.99181733
_symmetry_Int_Tables_number   1
_chemical_formula_structural   V85Zn86O256
_chemical_formula_sum   'V85 Zn86 O256'
_cell_volume   4846.34676622
_cell_formula_units_Z   1
loop_
 _symmetry_equiv_pos_site_id
 _symmetry_equiv_pos_as_xyz
  1  'x, y, z'
loop_
 _atom_site_type_symbol
 _atom_site_label
 _atom_site_symmetry_multiplicity
 _atom_site_fract_x
 _atom_site_fract_y
 _atom_site_fract_z
 _atom_site_occupancy
  V  V0  1  0.62358854  0.12040548  0.00357850  1
  V  V1  1  0.00725233  0.37312251  0.88375034  1
  V  V2  1  0.24683079  0.61588833  0.87342272  1
  V  V3  1  0.24714106  0.38950032  0.62128920  1
  V  V4  1  0.87632074  0.63985644  0.25006930  1
  V  V5  1  0.61994214  0.62238298  -0.00157507  1
  V  V6  1  0.50358033  0.12095662  0.12724637  1
  V  V7  1  0.25337696  0.75892618  0.00133250  1
  V  V8  1  0.62746210  -0.00151107  0.62546872  1
  V  V9  1  0.75864583  0.12309056  0.87932001  1
  V  V10  1  0.36659217  0.25464219  0.12475629  1
  V  V11  1  0.24985327  0.87119691  0.62178873  1
  V  V12  1  0.50139807  0.12636273  0.62477787  1
  V  V13  1  0.01247637  0.00455135  -0.00074837  1
  V  V14  1  0.49782085  0.61902006  0.12415295  1
  V  V15  1  0.13100881  0.38126383  0.25329133  1
  V  V16  1  0.63044427  0.37704235  0.24897234  1
  V  V17  1  0.74884132  0.87361543  0.12465756  1
  V  V18  1  0.36398913  0.25169452  0.62031002  1
  V  V19  1  0.14564500  0.23632858  0.88497031  1
  V  V20  1  0.48762116  0.87900793  0.87466710  1
  V  V21  1  0.87676602  0.37609707  0.49936124  1
  V  V22  1  0.24596136  -0.00579595  0.24130304  1
  V  V23  1  -0.00099763  -0.00124146  0.49776737  1
  V  V24  1  0.75129408  0.24952725  0.50046796  1
  V  V25  1  0.12139088  0.74894435  0.36832646  1
  V  V26  1  0.62604111  0.87434939  0.74928980  1
  V  V27  1  0.25031025  0.12656687  0.38046796  1
  V  V28  1  0.12026392  0.62517794  0.50545567  1
  V  V29  1  0.75495069  0.62552248  0.86998644  1
  V  V30  1  0.38018435  0.49594139  0.37269808  1
  V  V31  1  0.00059753  0.87339710  0.36773608  1
  V  V32  1  0.62666589  0.49239699  0.11898056  1
  V  V33  1  0.49405248  -0.00467501  0.00065827  1
  V  V34  1  0.37641294  0.12693264  0.25383367  1
  V  V35  1  0.01377557  0.12177792  0.12325806  1
  V  V36  1  0.12100173  0.50150708  0.12986223  1
  V  V37  1  0.12063517  0.74659586  0.87435707  1
  V  V38  1  0.87876618  0.49859228  0.88302174  1
  V  V39  1  0.12954833  0.13230280  0.50416127  1
  V  V40  1  0.87685022  0.12455283  0.24672237  1
  V  V41  1  0.00022162  0.12624895  0.62867919  1
  V  V42  1  0.75097930  0.37546479  0.62637508  1
  V  V43  1  0.37408369  -0.00426149  0.37667748  1
  V  V44  1  0.49869802  0.25814612  0.25327807  1
  V  V45  1  0.87424336  0.25767449  0.12596999  1
  V  V46  1  -0.01012439  0.88055199  0.87045690  1
  V  V47  1  0.87160315  0.88651919  0.00078054  1
  V  V48  1  0.12452130  0.00021979  0.62484538  1
  V  V49  1  0.62652912  0.61549308  0.49726278  1
  V  V50  1  0.62252739  0.75073049  0.87636599  1
  V  V51  1  0.62694175  0.12474857  0.49908556  1
  V  V52  1  0.12518257  0.25154015  0.37602422  1
  V  V53  1  0.11899961  0.61746721  0.00017701  1
  V  V54  1  0.37140073  0.62072828  0.74330161  1
  V  V55  1  0.74497248  0.00281344  0.24265651  1
  V  V56  1  0.62186335  0.25710334  0.37690175  1
  V  V57  1  0.12021713  0.87272753  0.74773812  1
  V  V58  1  0.38389683  0.50352179  0.87753602  1
  V  V59  1  -0.00223333  0.50406000  0.50810064  1
  V  V60  1  0.37330280  0.12083494  0.75059030  1
  V  V61  1  0.25194123  -0.00082684  0.75259943  1
  V  V62  1  0.49754961  0.25158410  0.75401199  1
  V  V63  1  0.38867232  0.37812251  0.49723261  1
  V  V64  1  -0.00590676  0.73248616  0.74568148  1
  V  V65  1  0.62359849  0.24863785  0.87664941  1
  V  V66  1  0.49738864  0.74688129  0.25051301  1
  V  V67  1  0.12428432  0.87499339  0.23705559  1
  V  V68  1  0.75170885  0.12513873  0.37357899  1
  V  V69  1  0.75460768  0.75081772  0.00212765  1
  V  V70  1  -0.00874657  0.63708226  0.12125625  1
  V  V71  1  0.74805156  0.26004669  0.00500519  1
  V  V72  1  0.62316476  0.87790464  0.24779700  1
  V  V73  1  0.62343529  0.37765922  0.75102093  1
  V  V74  1  0.87198944  0.50336127  0.37281516  1
  V  V75  1  0.75698136  0.50206342  0.74834535  1
  V  V76  1  0.87443676  0.73606410  0.62299649  1
  V  V77  1  0.37582063  0.38372625  0.00337064  1
  V  V78  1  0.36464255  0.61930906  0.24834894  1
  V  V79  1  0.50129265  -0.00291696  0.49972514  1
  V  V80  1  0.75715382  -0.00038278  0.75569406  1
  V  V81  1  0.25161613  0.74641498  0.49376743  1
  V  V82  1  0.63614050  0.74199232  0.37266897  1
  V  V83  1  0.75557918  0.50130675  0.24343296  1
  V  V84  1  0.87655379  0.25057160  0.63075569  1
  Zn  Zn85  1  0.61877596  0.49651250  0.61732096  1
  Zn  Zn86  1  0.00749053  0.25191864  0.75513523  1
  Zn  Zn87  1  0.87470305  0.87194363  0.49993849  1
  Zn  Zn88  1  0.24913348  0.38443594  0.12639008  1
  Zn  Zn89  1  0.50244948  0.87087079  0.37710716  1
  Zn  Zn90  1  0.12073191  0.50932817  0.63414696  1
  Zn  Zn91  1  0.33679148  0.03033226  0.91042997  1
  Zn  Zn92  1  0.37675591  0.87008460  0.49949590  1
  Zn  Zn93  1  0.50131107  0.37943445  0.88287756  1
  Zn  Zn94  1  0.49955082  0.62246763  0.61720273  1
  Zn  Zn95  1  0.24126176  0.60942377  0.36799434  1
  Zn  Zn96  1  0.75241635  0.74985776  0.49709785  1
  Zn  Zn97  1  0.87427789  -0.00135955  0.37356138  1
  Zn  Zn98  1  0.36338528  0.76000080  0.12614002  1
  Zn  Zn99  1  0.75489276  0.87372354  0.62184818  1
  Zn  Zn100  1  0.87671369  0.38130589  0.00808051  1
  Zn  Zn101  1  0.87955510  0.12190103  0.75737610  1
  Zn  Zn102  1  0.13416923  0.37923343  0.75581645  1
  Zn  Zn103  1  0.49680099  0.74927463  0.74643464  1
  Zn  Zn104  1  0.00149670  0.37654430  0.37472725  1
  Zn  Zn105  1  0.37710380  0.74745867  0.62216167  1
  Zn  Zn106  1  0.00179488  0.25178034  0.24834081  1
  Zn  Zn107  1  0.18915919  0.18822163  0.19394251  1
  Zn  Zn108  1  0.18813012  0.19189397  0.69895426  1
  Zn  Zn109  1  0.18296267  0.69001275  0.18330492  1
  Zn  Zn110  1  0.18880883  0.68647989  0.68788275  1
  Zn  Zn111  1  0.68781934  0.19102262  0.18586484  1
  Zn  Zn112  1  0.68880557  0.18659186  0.69051378  1
  Zn  Zn113  1  0.68863959  0.68547155  0.18514119  1
  Zn  Zn114  1  0.68739380  0.68640612  0.68484624  1
  Zn  Zn115  1  0.30871327  0.31563226  0.31708539  1
  Zn  Zn116  1  0.31321018  0.31788419  0.81070161  1
  Zn  Zn117  1  0.31151614  0.81151968  0.31153985  1
  Zn  Zn118  1  0.30936306  0.80700088  0.81309753  1
  Zn  Zn119  1  0.81262645  0.31466852  0.31109931  1
  Zn  Zn120  1  0.81478047  0.31336008  0.81687058  1
  Zn  Zn121  1  0.81387848  0.81747622  0.31233045  1
  Zn  Zn122  1  0.81411882  0.81064888  0.80962404  1
  Zn  Zn123  1  0.19420708  0.43632327  0.44391279  1
  Zn  Zn124  1  0.19116889  0.43636198  0.94391676  1
  Zn  Zn125  1  0.18479344  0.93710132  0.43517653  1
  Zn  Zn126  1  0.17859589  0.93270318  0.93561980  1
  Zn  Zn127  1  0.69277798  0.43770241  0.43189171  1
  Zn  Zn128  1  0.68717417  0.43887241  0.93491212  1
  Zn  Zn129  1  0.69042960  0.93330321  0.43386327  1
  Zn  Zn130  1  0.68028558  0.93928324  0.93752709  1
  Zn  Zn131  1  0.31034855  0.06694732  0.07167486  1
  Zn  Zn132  1  0.31330024  0.06105318  0.56574037  1
  Zn  Zn133  1  0.30746055  0.56495361  0.06110934  1
  Zn  Zn134  1  0.31343699  0.56104213  0.55216072  1
  Zn  Zn135  1  0.81279624  0.06474050  0.06467640  1
  Zn  Zn136  1  0.81401212  0.06098469  0.56533632  1
  Zn  Zn137  1  0.80901046  0.56495601  0.06363482  1
  Zn  Zn138  1  0.80466341  0.56595408  0.55856756  1
  Zn  Zn139  1  0.44016156  0.43990739  0.19115392  1
  Zn  Zn140  1  0.43610784  0.44224427  0.68628591  1
  Zn  Zn141  1  0.43544554  0.93796359  0.18801413  1
  Zn  Zn142  1  0.43718832  0.93372338  0.68599368  1
  Zn  Zn143  1  0.94854026  0.44057106  0.18794778  1
  Zn  Zn144  1  0.94164577  0.43741422  0.69524716  1
  Zn  Zn145  1  0.93576861  0.93769132  0.18402961  1
  Zn  Zn146  1  0.93380320  0.93370891  0.68331539  1
  Zn  Zn147  1  0.06408208  0.06178660  0.31123063  1
  Zn  Zn148  1  0.06557615  0.06300227  0.81555636  1
  Zn  Zn149  1  0.05499452  0.56355076  0.31240730  1
  Zn  Zn150  1  0.06266818  0.55282105  0.81342200  1
  Zn  Zn151  1  0.56315253  0.06434089  0.31377506  1
  Zn  Zn152  1  0.56287983  0.06220635  0.81537965  1
  Zn  Zn153  1  0.55952278  0.56049666  0.31315958  1
  Zn  Zn154  1  0.56075238  0.56296542  0.80489229  1
  Zn  Zn155  1  0.43749461  0.19006224  0.43946776  1
  Zn  Zn156  1  0.40489993  0.17748115  0.95121728  1
  Zn  Zn157  1  0.43949703  0.68132822  0.43320366  1
  Zn  Zn158  1  0.43656991  0.68919381  0.93564769  1
  Zn  Zn159  1  0.93957612  0.18722299  0.43875960  1
  Zn  Zn160  1  0.94081843  0.19187078  0.94264107  1
  Zn  Zn161  1  0.93831755  0.68679508  0.43404466  1
  Zn  Zn162  1  0.93408663  0.68984151  0.93734323  1
  Zn  Zn163  1  0.06586660  0.31025395  0.06050035  1
  Zn  Zn164  1  0.06254773  0.31462133  0.56220352  1
  Zn  Zn165  1  0.05964076  0.80966118  0.05725551  1
  Zn  Zn166  1  0.05923411  0.80852832  0.56041328  1
  Zn  Zn167  1  0.55411985  0.31131492  0.06238279  1
  Zn  Zn168  1  0.56141140  0.31243757  0.56689888  1
  Zn  Zn169  1  0.53148999  0.82817521  0.08079789  1
  Zn  Zn170  1  0.56272474  0.80664172  0.56242091  1
  O  O171  1  0.11292976  0.12755881  0.13100166  1
  O  O172  1  0.12002491  0.12371011  0.62114578  1
  O  O173  1  0.11180177  0.62375970  0.11969471  1
  O  O174  1  0.12768236  0.62759416  0.60987316  1
  O  O175  1  0.61532740  0.13436819  0.11643742  1
  O  O176  1  0.62171630  0.12066496  0.61793787  1
  O  O177  1  0.62289226  0.61341172  0.11694090  1
  O  O178  1  0.62682128  0.62455005  0.60855031  1
  O  O179  1  0.37339595  0.37846606  0.38826432  1
  O  O180  1  0.37542615  0.38523761  0.88473718  1
  O  O181  1  0.37705245  0.88568745  0.37695012  1
  O  O182  1  0.38721813  0.87395986  0.86924705  1
  O  O183  1  0.87563515  0.38192705  0.38222176  1
  O  O184  1  0.88263806  0.38168756  0.88080015  1
  O  O185  1  0.88531972  0.87818564  0.37714836  1
  O  O186  1  0.88404062  0.87296143  0.88066701  1
  O  O187  1  0.25732021  0.00711110  0.37096407  1
  O  O188  1  0.24704783  -0.01579324  0.85755707  1
  O  O189  1  0.26681381  0.49741585  0.37981663  1
  O  O190  1  0.25848824  0.51196918  0.88202469  1
  O  O191  1  0.75191703  0.00757027  0.36400039  1
  O  O192  1  0.74254131  0.01023022  0.86790569  1
  O  O193  1  0.76334699  0.49749256  0.36152542  1
  O  O194  1  0.75442074  0.50713336  0.86822940  1
  O  O195  1  0.22895063  0.50622265  0.12162038  1
  O  O196  1  0.24691327  0.49194192  0.61804548  1
  O  O197  1  0.25724351  0.99935252  0.14221911  1
  O  O198  1  0.24300365  0.99077002  0.62994252  1
  O  O199  1  0.74221926  0.49943978  0.13448109  1
  O  O200  1  0.74625201  0.49405999  0.63267730  1
  O  O201  1  0.74881716  0.99527854  0.13561583  1
  O  O202  1  0.74267627  1.00001840  0.63350596  1
  O  O203  1  0.01347022  0.37115107  0.25595042  1
  O  O204  1  0.00034283  0.37146456  0.76741443  1
  O  O205  1  0.00727979  0.88630959  0.25988766  1
  O  O206  1  0.00329612  0.87461319  0.75637334  1
  O  O207  1  0.51230176  0.36549675  0.24759811  1
  O  O208  1  0.50692509  0.36803045  0.75217311  1
  O  O209  1  0.50896142  0.86642506  0.25530756  1
  O  O210  1  0.50872479  0.87491384  0.75649091  1
  O  O211  1  0.49614163  0.13235023  0.24620921  1
  O  O212  1  0.50110303  0.13092852  0.73984334  1
  O  O213  1  0.48936813  0.62852509  0.24484228  1
  O  O214  1  0.48264011  0.62951538  0.75303551  1
  O  O215  1  0.99372885  0.12354331  0.24007824  1
  O  O216  1  0.99947139  0.12562516  0.73999129  1
  O  O217  1  0.98471093  0.62351266  0.23816213  1
  O  O218  1  0.99910038  0.63493691  0.75506501  1
  O  O219  1  0.38466329  0.26787464  0.01636208  1
  O  O220  1  0.38073749  0.26146098  0.50834543  1
  O  O221  1  0.35648510  0.74351090  -0.00232772  1
  O  O222  1  0.36582812  0.74888719  0.49707459  1
  O  O223  1  0.86492210  0.25061182  0.00991577  1
  O  O224  1  0.87224858  0.25337985  0.51067502  1
  O  O225  1  0.86032534  0.76312845  -0.00717379  1
  O  O226  1  0.87708353  0.74730757  0.51131553  1
  O  O227  1  0.12219174  0.23794589  0.49531569  1
  O  O228  1  0.12679597  0.25201486  0.98437564  1
  O  O229  1  0.12864052  0.74389200  0.48961020  1
  O  O230  1  0.12759254  0.74012715  0.99217452  1
  O  O231  1  0.62858923  0.24674187  0.49367642  1
  O  O232  1  0.62873335  0.24378815  0.99704167  1
  O  O233  1  0.62612804  0.74743502  0.48317273  1
  O  O234  1  0.63537136  0.74544933  0.98550505  1
  O  O235  1  0.49334337  0.24249291  0.13720261  1
  O  O236  1  0.49392960  0.24566457  0.63562881  1
  O  O237  1  0.51703251  0.72965180  0.14145855  1
  O  O238  1  0.49520857  0.74295578  0.62750102  1
  O  O239  1  0.99347042  0.23635051  0.12315239  1
  O  O240  1  0.99422146  0.24373339  0.62816259  1
  O  O241  1  0.99874576  0.73658967  0.12430764  1
  O  O242  1  0.99179363  0.75052207  0.63730646  1
  O  O243  1  0.01421779  0.24847039  0.37518540  1
  O  O244  1  0.00173055  0.26125787  0.87527126  1
  O  O245  1  0.00865277  0.76131418  0.37704284  1
  O  O246  1  -0.00085662  0.75569275  0.86263363  1
  O  O247  1  0.50999369  0.24278262  0.36522737  1
  O  O248  1  0.50344117  0.24950466  0.86170172  1
  O  O249  1  0.50823791  0.74858520  0.36282112  1
  O  O250  1  0.50800824  0.75887512  0.87388878  1
  O  O251  1  0.24100039  0.11653267  0.49324234  1
  O  O252  1  0.30662370  0.11877853  0.97706724  1
  O  O253  1  0.24124635  0.63204855  0.49271027  1
  O  O254  1  0.23816904  0.63231659  0.99131517  1
  O  O255  1  0.74668211  0.12976001  0.49512430  1
  O  O256  1  0.74176462  0.13068458  0.99636291  1
  O  O257  1  0.73437031  0.63244674  0.49582156  1
  O  O258  1  0.74072082  0.63397544  0.99415825  1
  O  O259  1  0.26767293  0.37896342  0.00809746  1
  O  O260  1  0.26348310  0.37229570  0.51498625  1
  O  O261  1  0.24369274  0.85794861  -0.00839113  1
  O  O262  1  0.24836169  0.86827029  0.50578802  1
  O  O263  1  0.74986286  0.36260672  -0.00307697  1
  O  O264  1  0.75596940  0.36890907  0.50575165  1
  O  O265  1  0.75134814  0.87310222  0.00502751  1
  O  O266  1  0.75442232  0.86989377  0.50191032  1
  O  O267  1  0.11972807  0.49339079  0.24575275  1
  O  O268  1  0.12440268  0.49300220  0.74495206  1
  O  O269  1  0.13933822  0.99318955  0.25512430  1
  O  O270  1  0.13029045  0.99357650  0.74257303  1
  O  O271  1  0.63286654  0.49475907  0.24560563  1
  O  O272  1  0.63501419  0.48720517  0.75493798  1
  O  O273  1  0.63255838  0.99104773  0.25684810  1
  O  O274  1  0.63224374  0.99310760  0.74544411  1
  O  O275  1  0.36878664  0.00295530  0.25924628  1
  O  O276  1  0.36473344  0.00656978  0.73831645  1
  O  O277  1  0.37338057  0.50580388  0.25781098  1
  O  O278  1  0.37208252  0.51286403  0.76001002  1
  O  O279  1  0.86617730  0.00903806  0.24972721  1
  O  O280  1  0.86127483  0.00208920  0.74546190  1
  O  O281  1  0.87034226  0.50076816  0.25419722  1
  O  O282  1  0.86197507  0.49437080  0.76099721  1
  O  O283  1  0.12847389  0.36649868  0.37366681  1
  O  O284  1  0.11615267  0.37567928  0.87957640  1
  O  O285  1  0.11845380  0.86907645  0.36740722  1
  O  O286  1  0.10901443  0.86599507  0.86880510  1
  O  O287  1  0.62901655  0.36378604  0.36814298  1
  O  O288  1  0.62206506  0.36788545  0.86873809  1
  O  O289  1  0.62525545  0.86312343  0.36398027  1
  O  O290  1  0.62273645  0.86815369  0.86321575  1
  O  O291  1  0.38330212  0.13573593  0.13762378  1
  O  O292  1  0.38231521  0.13248762  0.62862565  1
  O  O293  1  0.38285337  0.62687206  0.12977366  1
  O  O294  1  0.36866824  0.62293996  0.63476778  1
  O  O295  1  0.87902129  0.13297536  0.13495409  1
  O  O296  1  0.88435540  0.13289241  0.62642355  1
  O  O297  1  0.88420119  0.62208018  0.13121725  1
  O  O298  1  0.87241471  0.63611569  0.62389911  1
  O  O299  1  0.26408642  0.25054377  0.13334962  1
  O  O300  1  0.26255640  0.24774016  0.62580610  1
  O  O301  1  0.24757443  0.74812664  0.10752076  1
  O  O302  1  0.24823230  0.75586494  0.61142604  1
  O  O303  1  0.75999192  0.24676799  0.11687303  1
  O  O304  1  0.75743799  0.25291954  0.62019780  1
  O  O305  1  0.74263864  0.75960530  0.11334030  1
  O  O306  1  0.76454647  0.75086976  0.62722481  1
  O  O307  1  0.24101942  0.23509425  0.37191029  1
  O  O308  1  0.24498857  0.25280897  0.87425810  1
  O  O309  1  0.24162329  0.75149119  0.38402876  1
  O  O310  1  0.23985978  0.74033807  0.88086558  1
  O  O311  1  0.74396474  0.24476876  0.38042587  1
  O  O312  1  0.74362194  0.24292585  0.88313079  1
  O  O313  1  0.73838896  0.75084593  0.37033288  1
  O  O314  1  0.74501345  0.74262810  0.87685059  1
  O  O315  1  -0.00525415  0.11271239  0.00886250  1
  O  O316  1  0.00694927  0.11993352  0.51075637  1
  O  O317  1  0.00229600  0.63054337  0.01043050  1
  O  O318  1  0.00808315  0.61676292  0.49427317  1
  O  O319  1  0.50336054  0.11988137  0.00796277  1
  O  O320  1  0.50564562  0.11551280  0.50424494  1
  O  O321  1  0.51263226  0.63335629  0.00712575  1
  O  O322  1  0.51985166  0.62966053  0.49632847  1
  O  O323  1  0.48813552  0.37353586  0.50419400  1
  O  O324  1  0.48604670  0.37832481  0.99966272  1
  O  O325  1  0.50058424  0.88582296  0.49834013  1
  O  O326  1  0.52287215  0.88756320  0.98437180  1
  O  O327  1  0.99290443  0.38201811  0.49696417  1
  O  O328  1  0.99582577  0.37237309  0.98860312  1
  O  O329  1  1.00287550  0.88427327  0.48974683  1
  O  O330  1  0.99118029  0.88448826  0.99539321  1
  O  O331  1  0.48247855  0.49765217  0.36890729  1
  O  O332  1  0.48793990  0.50169988  0.87265812  1
  O  O333  1  0.49204008  1.00043918  0.38257548  1
  O  O334  1  0.50295495  0.99244047  0.88435687  1
  O  O335  1  0.98699118  0.49849883  0.38375324  1
  O  O336  1  0.98924438  0.48885193  0.87602932  1
  O  O337  1  1.00020723  0.99577912  0.38284302  1
  O  O338  1  1.00178885  0.99412358  0.88652318  1
  O  O339  1  -0.00603826  0.01208475  0.11368339  1
  O  O340  1  0.00477128  0.00677253  0.61924493  1
  O  O341  1  0.01149134  0.51343454  0.12419404  1
  O  O342  1  -0.00321404  0.49589751  0.61221800  1
  O  O343  1  0.49986984  0.01510489  0.12320683  1
  O  O344  1  0.50626459  0.00401681  0.61750659  1
  O  O345  1  0.51043067  0.51201569  0.13079570  1
  O  O346  1  0.50816680  0.50902576  0.63535828  1
  O  O347  1  0.23605552  0.37070743  0.24673112  1
  O  O348  1  0.25653623  0.37113687  0.72639856  1
  O  O349  1  0.24319949  0.88653873  0.25427715  1
  O  O350  1  0.24157586  0.87464859  0.73970541  1
  O  O351  1  0.73804731  0.38101170  0.25003066  1
  O  O352  1  0.74327018  0.37897969  0.74696771  1
  O  O353  1  0.74582965  0.88268627  0.24291084  1
  O  O354  1  0.74316378  0.88260350  0.75058242  1
  O  O355  1  0.25538220  0.11366420  0.25957094  1
  O  O356  1  0.26028720  0.11226356  0.74299290  1
  O  O357  1  0.26161805  0.63385050  0.24944996  1
  O  O358  1  0.25927167  0.62969458  0.75972185  1
  O  O359  1  0.75499678  0.12015215  0.25203291  1
  O  O360  1  0.74964455  0.11800051  0.76144293  1
  O  O361  1  0.76611035  0.61615720  0.24026330  1
  O  O362  1  0.74183898  0.61473881  0.75941038  1
  O  O363  1  0.36892181  0.11752485  0.37392423  1
  O  O364  1  0.39575730  0.11834948  0.85079265  1
  O  O365  1  0.37200808  0.61329379  0.36653179  1
  O  O366  1  0.36675315  0.62021642  0.87016692  1
  O  O367  1  0.87190115  0.12640218  0.36268956  1
  O  O368  1  0.86235246  0.13130299  0.87687810  1
  O  O369  1  0.87943337  0.61915379  0.35854581  1
  O  O370  1  0.86205036  0.61815864  0.87990575  1
  O  O371  1  0.12243313  0.38357943  0.13311009  1
  O  O372  1  0.14069882  0.37333789  0.62102963  1
  O  O373  1  0.11502539  0.86958302  0.13794742  1
  O  O374  1  0.13160492  0.87793869  0.62649382  1
  O  O375  1  0.61889097  0.38574040  0.13041944  1
  O  O376  1  0.63325146  0.37405846  0.63372057  1
  O  O377  1  0.63151201  0.87055561  0.13993952  1
  O  O378  1  0.62682202  0.87725722  0.63600502  1
  O  O379  1  0.12301088  0.25550197  0.26066100  1
  O  O380  1  0.12596738  0.25881321  0.76661884  1
  O  O381  1  0.13137898  0.75907741  0.26073584  1
  O  O382  1  0.11175419  0.75267762  0.75188101  1
  O  O383  1  0.62103772  0.25755476  0.25625681  1
  O  O384  1  0.62016809  0.25946658  0.75376864  1
  O  O385  1  0.62205443  0.75172880  0.25852808  1
  O  O386  1  0.62546895  0.75616816  0.75916653  1
  O  O387  1  0.38304807  0.24935922  0.25004609  1
  O  O388  1  0.38206358  0.24375168  0.74253398  1
  O  O389  1  0.38243490  0.74294974  0.24846422  1
  O  O390  1  0.37318835  0.73619646  0.74760704  1
  O  O391  1  0.87706672  0.24285072  0.24464937  1
  O  O392  1  0.87361268  0.24676216  0.73885680  1
  O  O393  1  0.87035972  0.73823153  0.25040401  1
  O  O394  1  0.88664755  0.75101530  0.74015276  1
  O  O395  1  0.37859495  0.48777444  0.49116667  1
  O  O396  1  0.37506950  0.49462275  0.99498198  1
  O  O397  1  0.38339948  0.99883451  0.49378917  1
  O  O398  1  0.39208765  0.98795897  1.00722850  1
  O  O399  1  0.87680109  0.49887157  0.49231869  1
  O  O400  1  0.86295879  0.49794574  0.98777009  1
  O  O401  1  0.88908237  1.00244290  0.49850265  1
  O  O402  1  0.87726615  0.99023075  1.00092088  1
  O  O403  1  0.11182300  -0.00281911  0.00242345  1
  O  O404  1  0.11585968  0.00952106  0.50410727  1
  O  O405  1  0.12406150  0.51309528  0.00425517  1
  O  O406  1  0.11508501  0.50799468  0.50032354  1
  O  O407  1  0.61884699  0.01570007  0.00010277  1
  O  O408  1  0.61964592  0.00401820  0.50246210  1
  O  O409  1  0.63142287  0.50935057  0.00691613  1
  O  O410  1  0.63127500  0.51093407  0.49471956  1
  O  O411  1  0.37477426  0.37344261  0.12184629  1
  O  O412  1  0.37052309  0.37099286  0.61702863  1
  O  O413  1  0.42270037  0.85445183  0.11730321  1
  O  O414  1  0.36132333  0.87183036  0.62146822  1
  O  O415  1  0.88490082  0.36188022  0.12768251  1
  O  O416  1  0.87120392  0.36794413  0.62155583  1
  O  O417  1  0.85934592  0.87760272  0.11761556  1
  O  O418  1  0.87485080  0.86192896  0.61953871  1
  O  O419  1  0.13148728  0.12905217  0.38316967  1
  O  O420  1  0.12930564  0.13686512  0.87257635  1
  O  O421  1  0.12391776  0.63311991  0.37799902  1
  O  O422  1  0.12773365  0.62656987  0.88106907  1
  O  O423  1  0.63135367  0.13564324  0.38000086  1
  O  O424  1  0.63121371  0.13224611  0.88326122  1
  O  O425  1  0.62400341  0.63474272  0.37743333  1
  O  O426  1  0.63018271  0.62997074  0.87982606  1
