# generated using pymatgen
data_V85Zn86O256
_symmetry_space_group_name_H-M   'P 1'
_cell_length_a   16.92051674
_cell_length_b   16.91605571
_cell_length_c   16.92114365
_cell_angle_alpha   89.95521624
_cell_angle_beta   90.04817084
_cell_angle_gamma   90.03212262
_symmetry_Int_Tables_number   1
_chemical_formula_structural   V85Zn86O256
_chemical_formula_sum   'V85 Zn86 O256'
_cell_volume   4843.30798851
_cell_formula_units_Z   1
loop_
 _symmetry_equiv_pos_site_id
 _symmetry_equiv_pos_as_xyz
  1  'x, y, z'
loop_
 _atom_site_type_symbol
 _atom_site_label
 _atom_site_symmetry_multiplicity
 _atom_site_fract_x
 _atom_site_fract_y
 _atom_site_fract_z
 _atom_site_occupancy
  V  V0  1  0.25354829  0.00115217  0.75248333  1
  V  V1  1  0.12501817  0.12487157  -0.00097597  1
  V  V2  1  0.86175599  0.24743943  0.62123720  1
  V  V3  1  0.62948031  0.25381573  0.38445795  1
  V  V4  1  0.25168360  0.87792638  0.12624102  1
  V  V5  1  0.37458275  0.12226590  0.25589379  1
  V  V6  1  0.37015062  0.87000057  0.49194944  1
  V  V7  1  0.61885570  0.62896627  0.49746845  1
  V  V8  1  0.62713688  0.37908613  0.24955153  1
  V  V9  1  -0.00368496  0.87421334  0.87525051  1
  V  V10  1  0.00411799  0.12812219  0.62396034  1
  V  V11  1  0.86590147  0.50018130  0.86710993  1
  V  V12  1  0.00116172  0.62853899  0.12737847  1
  V  V13  1  -0.00057905  0.12468136  0.12510104  1
  V  V14  1  0.38359332  0.74828866  0.63390319  1
  V  V15  1  0.74993271  0.24769767  -0.00311227  1
  V  V16  1  0.37684726  0.62757479  0.25143813  1
  V  V17  1  0.87447836  0.25041405  0.12576416  1
  V  V18  1  0.25514006  0.62551317  0.87861586  1
  V  V19  1  0.74788942  0.75315185  0.50951992  1
  V  V20  1  0.87889487  0.62472038  0.74138741  1
  V  V21  1  0.00651617  0.00318853  0.49611202  1
  V  V22  1  0.86830172  0.88130579  -0.00565556  1
  V  V23  1  0.25145919  -0.00370174  0.25359791  1
  V  V24  1  0.49944875  0.37997589  0.37829253  1
  V  V25  1  0.12428414  -0.00412760  0.12917234  1
  V  V26  1  0.63738021  0.37984806  0.75069765  1
  V  V27  1  0.87071579  -0.00274641  0.36965835  1
  V  V28  1  0.49996562  0.47959124  0.00067366  1
  V  V29  1  0.74473846  0.63418776  0.37484135  1
  V  V30  1  0.49720105  0.87247129  0.86845570  1
  V  V31  1  0.61958605  0.74765259  0.87728823  1
  V  V32  1  -0.00128594  0.25013728  0.25140454  1
  V  V33  1  0.87689777  0.63299185  0.25064236  1
  V  V34  1  0.25341631  0.37692511  0.12215357  1
  V  V35  1  0.12760804  0.75120053  0.34929453  1
  V  V36  1  0.74424101  0.87660952  0.13921449  1
  V  V37  1  0.50044751  0.25751133  0.75105434  1
  V  V38  1  0.37423811  0.25303864  0.12353918  1
  V  V39  1  0.12385955  0.37713635  0.74718488  1
  V  V40  1  0.49904330  0.25228434  0.25099289  1
  V  V41  1  -0.00114942  0.37468720  0.87162706  1
  V  V42  1  0.12473428  0.24265890  0.37859185  1
  V  V43  1  0.00116910  0.37683841  0.38048783  1
  V  V44  1  0.49767152  -0.00198449  0.49689358  1
  V  V45  1  0.37964692  0.11933259  0.75419477  1
  V  V46  1  0.51415933  0.87232719  0.37310609  1
  V  V47  1  0.12885833  0.00528562  0.62136373  1
  V  V48  1  0.50055113  0.62435284  0.64431236  1
  V  V49  1  0.00498106  0.51633606  0.50514226  1
  V  V50  1  0.25158548  0.11972408  0.38245895  1
  V  V51  1  0.25180511  0.37730326  0.62329426  1
  V  V52  1  0.62322513  0.24875176  0.87418998  1
  V  V53  1  0.25049475  0.87539417  0.62348853  1
  V  V54  1  0.50210036  0.12316710  0.12376497  1
  V  V55  1  0.62885453  0.12012349  0.50632893  1
  V  V56  1  0.75282655  -0.00744683  0.72894971  1
  V  V57  1  0.87436346  0.50324504  0.37584345  1
  V  V58  1  0.19020717  0.69174359  0.55028235  1
  V  V59  1  0.37752074  0.75443184  0.12429477  1
  V  V60  1  0.50161349  0.11841776  0.62655935  1
  V  V61  1  0.62472985  0.87445118  0.73809341  1
  V  V62  1  0.24337964  0.75235453  -0.00375558  1
  V  V63  1  0.75417887  0.10830651  0.87699677  1
  V  V64  1  0.00488287  0.87166468  0.36189686  1
  V  V65  1  0.49873185  0.00122965  -0.00707330  1
  V  V66  1  0.87474844  0.37482707  -0.00161196  1
  V  V67  1  0.12463848  0.87316494  0.75712531  1
  V  V68  1  0.24973117  0.50259690  0.25133577  1
  V  V69  1  0.86637561  0.12336025  0.24887547  1
  V  V70  1  0.74636516  0.62600798  0.87467574  1
  V  V71  1  0.25521520  0.12010216  0.87666609  1
  V  V72  1  0.37425449  0.88228573  -0.00260745  1
  V  V73  1  0.37657004  0.48328525  0.88211994  1
  V  V74  1  0.12502013  0.37528423  0.24961701  1
  V  V75  1  0.87873575  0.75270759  0.12267443  1
  V  V76  1  0.24903269  0.24859109  0.50145382  1
  V  V77  1  0.87255567  0.87689157  0.50679963  1
  V  V78  1  0.25462051  0.25365872  -0.00182555  1
  V  V79  1  0.51375034  0.74887711  0.25554110  1
  V  V80  1  0.00027861  0.50243091  -0.00037323  1
  V  V81  1  0.25799213  0.50194792  0.75182243  1
  V  V82  1  0.50564811  0.62820632  0.11140132  1
  V  V83  1  0.75106697  0.37674739  0.12472180  1
  V  V84  1  0.74814888  0.12361368  0.37682383  1
  Zn  Zn85  1  0.74977098  0.50449591  0.24771963  1
  Zn  Zn86  1  0.63320344  0.50741483  0.63172792  1
  Zn  Zn87  1  0.12405563  0.24902814  0.87239754  1
  Zn  Zn88  1  0.86774412  0.36943216  0.49705494  1
  Zn  Zn89  1  -0.00018757  0.24787161  0.74774311  1
  Zn  Zn90  1  -0.00525720  0.00375113  -0.00701651  1
  Zn  Zn91  1  0.49964592  0.50164595  0.50527320  1
  Zn  Zn92  1  0.87991782  0.11755331  0.75402457  1
  Zn  Zn93  1  0.12589738  0.50342707  0.12275328  1
  Zn  Zn94  1  0.63127323  0.50732034  0.11478015  1
  Zn  Zn95  1  0.37593245  0.24923059  0.62482037  1
  Zn  Zn96  1  0.63073075  -0.00392476  0.13457457  1
  Zn  Zn97  1  0.24581688  0.63077474  0.37689247  1
  Zn  Zn98  1  0.88133915  0.74992050  0.62519543  1
  Zn  Zn99  1  0.00593462  0.74433654  0.74782888  1
  Zn  Zn100  1  0.74543115  0.74662412  0.00124214  1
  Zn  Zn101  1  0.37692244  0.37649833  0.49986765  1
  Zn  Zn102  1  0.37402719  0.50233903  0.37754018  1
  Zn  Zn103  1  0.74642649  0.37890256  0.61220076  1
  Zn  Zn104  1  0.12511637  0.51200778  0.62167322  1
  Zn  Zn105  1  0.62557333  0.12081857  0.00033073  1
  Zn  Zn106  1  0.12046451  0.63249997  -0.00762051  1
  Zn  Zn107  1  0.18788752  0.18577190  0.18902998  1
  Zn  Zn108  1  0.18732404  0.18892751  0.68874524  1
  Zn  Zn109  1  0.18861520  0.68680895  0.18061173  1
  Zn  Zn110  1  0.19550488  0.69015158  0.71123651  1
  Zn  Zn111  1  0.68565538  0.19064812  0.18987046  1
  Zn  Zn112  1  0.68676789  0.18038414  0.69269369  1
  Zn  Zn113  1  0.68922372  0.68931336  0.18471922  1
  Zn  Zn114  1  0.69116960  0.68855519  0.69296442  1
  Zn  Zn115  1  0.31268387  0.31236014  0.31260883  1
  Zn  Zn116  1  0.31225946  0.30927151  0.81102081  1
  Zn  Zn117  1  0.31492042  0.81162602  0.31093134  1
  Zn  Zn118  1  0.31236477  0.81476698  0.81496015  1
  Zn  Zn119  1  0.81019310  0.31304712  0.31721099  1
  Zn  Zn120  1  0.81438098  0.30362860  0.80888064  1
  Zn  Zn121  1  0.81505804  0.81036066  0.31560933  1
  Zn  Zn122  1  0.81032185  0.81067802  0.81095406  1
  Zn  Zn123  1  0.18599335  0.43926122  0.43742236  1
  Zn  Zn124  1  0.18518717  0.43818624  0.93686226  1
  Zn  Zn125  1  0.18647500  0.93260780  0.43561728  1
  Zn  Zn126  1  0.18392977  0.93987435  0.93793637  1
  Zn  Zn127  1  0.68999632  0.44540434  0.44482363  1
  Zn  Zn128  1  0.68398692  0.43523229  0.93422062  1
  Zn  Zn129  1  0.68843054  0.94013910  0.44028972  1
  Zn  Zn130  1  0.68004972  0.93185107  0.94405512  1
  Zn  Zn131  1  0.31664825  0.06243367  0.06447274  1
  Zn  Zn132  1  0.31784790  0.06048800  0.56225662  1
  Zn  Zn133  1  0.31795761  0.56421757  0.06162671  1
  Zn  Zn134  1  0.32236463  0.55946735  0.56512297  1
  Zn  Zn135  1  0.80893592  0.05736856  0.06437840  1
  Zn  Zn136  1  0.81720935  0.06494208  0.55849548  1
  Zn  Zn137  1  0.81318172  0.56385781  0.05773233  1
  Zn  Zn138  1  0.80852554  0.55873144  0.56060298  1
  Zn  Zn139  1  0.43731163  0.44080077  0.18681103  1
  Zn  Zn140  1  0.43809720  0.43911416  0.69038238  1
  Zn  Zn141  1  0.46571413  0.95381169  0.20437741  1
  Zn  Zn142  1  0.43945850  0.93714400  0.68510116  1
  Zn  Zn143  1  0.93668863  0.44128422  0.19000390  1
  Zn  Zn144  1  0.93318563  0.43844632  0.68307125  1
  Zn  Zn145  1  0.93388837  0.93938181  0.18380438  1
  Zn  Zn146  1  0.93925868  0.93931826  0.68901476  1
  Zn  Zn147  1  0.06281850  0.06198501  0.31031570  1
  Zn  Zn148  1  0.06257943  0.05738651  0.81271576  1
  Zn  Zn149  1  0.06315865  0.56544125  0.31160854  1
  Zn  Zn150  1  0.06445105  0.56167548  0.81274801  1
  Zn  Zn151  1  0.56274883  0.06006886  0.31695788  1
  Zn  Zn152  1  0.56901536  0.05762564  0.81148550  1
  Zn  Zn153  1  0.56418340  0.56424915  0.31052858  1
  Zn  Zn154  1  0.56005231  0.55844886  0.82166117  1
  Zn  Zn155  1  0.43719313  0.19042132  0.43852752  1
  Zn  Zn156  1  0.43709289  0.19052584  0.93626534  1
  Zn  Zn157  1  0.43580176  0.69066367  0.43906400  1
  Zn  Zn158  1  0.43162412  0.68941893  0.93174003  1
  Zn  Zn159  1  0.93715594  0.18473990  0.44017625  1
  Zn  Zn160  1  0.93596097  0.18733044  0.93528991  1
  Zn  Zn161  1  0.93950416  0.69435611  0.43663844  1
  Zn  Zn162  1  0.93530689  0.69211683  0.93314928  1
  Zn  Zn163  1  0.06529326  0.31292057  0.06160745  1
  Zn  Zn164  1  0.06507572  0.31474437  0.56058609  1
  Zn  Zn165  1  0.06051394  0.81535783  0.06144656  1
  Zn  Zn166  1  0.05496778  0.81974758  0.56556879  1
  Zn  Zn167  1  0.56670818  0.30908890  0.06408957  1
  Zn  Zn168  1  0.56376865  0.30998626  0.56580954  1
  Zn  Zn169  1  0.56280034  0.81168808  0.05965109  1
  Zn  Zn170  1  0.56052439  0.80745142  0.56019031  1
  O  O171  1  0.12080882  0.11910571  0.11899884  1
  O  O172  1  0.12188725  0.11327690  0.62914160  1
  O  O173  1  0.11432727  0.62406317  0.11808008  1
  O  O174  1  0.13992985  0.63427479  0.61949760  1
  O  O175  1  0.61142167  0.12711983  0.12584408  1
  O  O176  1  0.61824161  0.12999210  0.61380870  1
  O  O177  1  0.61307474  0.62242062  0.12891559  1
  O  O178  1  0.61237181  0.63004469  0.62399781  1
  O  O179  1  0.38615430  0.37548833  0.37380425  1
  O  O180  1  0.36967837  0.38374156  0.87874842  1
  O  O181  1  0.37813371  0.86949704  0.39018267  1
  O  O182  1  0.38777751  0.87167847  0.88054666  1
  O  O183  1  0.88363361  0.38442747  0.37267462  1
  O  O184  1  0.87949839  0.37997856  0.87546468  1
  O  O185  1  0.88520347  0.88149743  0.37860257  1
  O  O186  1  0.88283713  0.87172382  0.88178646  1
  O  O187  1  0.24306308  0.00902937  0.36791963  1
  O  O188  1  0.24583813  0.01297888  0.87017766  1
  O  O189  1  0.24868215  0.50361768  0.36224036  1
  O  O190  1  0.26037623  0.49960898  0.87287389  1
  O  O191  1  0.75734280  0.01075127  0.37431527  1
  O  O192  1  0.74563426  0.00808218  0.88088074  1
  O  O193  1  0.76017720  0.51377467  0.37448749  1
  O  O194  1  0.76066531  0.50366013  0.88032268  1
  O  O195  1  0.25063626  0.49408030  0.13270903  1
  O  O196  1  0.25114776  0.49497662  0.63394535  1
  O  O197  1  0.24449694  0.99859015  0.13242373  1
  O  O198  1  0.24536679  0.99774824  0.63021437  1
  O  O199  1  0.75018626  0.49277050  0.12464576  1
  O  O200  1  0.74583992  0.49366602  0.62419186  1
  O  O201  1  0.74831331  0.98364238  0.12857262  1
  O  O202  1  0.74857267  1.00333751  0.63072194  1
  O  O203  1  0.00370751  0.37121474  0.26001540  1
  O  O204  1  0.00682151  0.37636668  0.75501165  1
  O  O205  1  -0.00343137  0.88184357  0.26362819  1
  O  O206  1  0.00743684  0.87939080  0.75989923  1
  O  O207  1  0.50740130  0.37111582  0.25382014  1
  O  O208  1  0.50593215  0.36008091  0.74582434  1
  O  O209  1  0.48634222  0.86159361  0.26852538  1
  O  O210  1  0.51221569  0.88423564  0.75737497  1
  O  O211  1  0.49109247  0.13428352  0.24602074  1
  O  O212  1  0.49706475  0.12610867  0.74480119  1
  O  O213  1  0.49298720  0.63069860  0.24482945  1
  O  O214  1  0.50170101  0.62400800  0.74285129  1
  O  O215  1  0.98919376  0.13116372  0.24639335  1
  O  O216  1  1.00023141  0.12380066  0.74029335  1
  O  O217  1  0.99208575  0.61941095  0.23536710  1
  O  O218  1  0.98561971  0.62580540  0.75914427  1
  O  O219  1  0.36181546  0.24619856  0.00567692  1
  O  O220  1  0.36213048  0.25390339  0.50123666  1
  O  O221  1  0.36704859  0.76164023  0.00464985  1
  O  O222  1  0.37794772  0.76392489  0.51178807  1
  O  O223  1  0.87001341  0.25548847  0.00581823  1
  O  O224  1  0.88111867  0.24805184  0.51671197  1
  O  O225  1  0.87322355  0.76087817  0.00725327  1
  O  O226  1  0.86963445  0.76068939  0.50016365  1
  O  O227  1  0.13759136  0.25289380  0.49130572  1
  O  O228  1  0.13496525  0.23941285  1.00063690  1
  O  O229  1  0.12921874  0.75359052  0.49866068  1
  O  O230  1  0.13931562  0.75318494  1.00330562  1
  O  O231  1  0.61785941  0.23912488  0.48820239  1
  O  O232  1  0.63146132  0.24663177  0.99157964  1
  O  O233  1  0.63347434  0.74031380  0.50308299  1
  O  O234  1  0.62573400  0.75347295  0.98321885  1
  O  O235  1  0.49466414  0.24403435  0.12985849  1
  O  O236  1  0.49844332  0.23727909  0.63320219  1
  O  O237  1  0.49645876  0.74509697  0.13069366  1
  O  O238  1  0.49034665  0.74279100  0.62920699  1
  O  O239  1  0.99469289  0.24516379  0.12998052  1
  O  O240  1  1.00487269  0.23635954  0.62237592  1
  O  O241  1  0.98870303  0.74387684  0.11978876  1
  O  O242  1  0.99418751  0.75902286  0.63402398  1
  O  O243  1  0.00622723  0.25490503  0.37328987  1
  O  O244  1  0.00037579  0.26286383  0.87359289  1
  O  O245  1  0.01018484  0.76413320  0.37488923  1
  O  O246  1  -0.00008830  0.76660918  0.87059727  1
  O  O247  1  0.50765671  0.25931580  0.37004733  1
  O  O248  1  0.51411440  0.24029519  0.86641425  1
  O  O249  1  0.49910883  0.76054049  0.37030081  1
  O  O250  1  0.50457032  0.75878468  0.87448230  1
  O  O251  1  0.25592117  0.12998261  0.49004484  1
  O  O252  1  0.24554071  0.12964237  0.99478492  1
  O  O253  1  0.25079763  0.62763950  0.49697376  1
  O  O254  1  0.24957576  0.63493331  0.99797142  1
  O  O255  1  0.73980610  0.11981341  0.49120595  1
  O  O256  1  0.74914075  0.12734641  0.99195506  1
  O  O257  1  0.74420080  0.63335868  0.49329363  1
  O  O258  1  0.75575689  0.62771444  0.98298325  1
  O  O259  1  0.24195069  0.36575115  0.00944510  1
  O  O260  1  0.25012611  0.36926272  0.50734639  1
  O  O261  1  0.25605182  0.87199689  0.00114783  1
  O  O262  1  0.26323394  0.88178978  0.50663805  1
  O  O263  1  0.75578129  0.36894685  0.00351397  1
  O  O264  1  0.75313464  0.37039832  0.49623614  1
  O  O265  1  0.75652643  0.87083569  0.00714239  1
  O  O266  1  0.75963594  0.86616359  0.49001484  1
  O  O267  1  0.13214062  0.49514956  0.24641541  1
  O  O268  1  0.13298893  0.49123681  0.74526369  1
  O  O269  1  0.13672444  1.00789426  0.23990373  1
  O  O270  1  0.13344254  0.99275990  0.74244742  1
  O  O271  1  0.62684340  0.48789351  0.24704996  1
  O  O272  1  0.61793858  0.48160160  0.75482441  1
  O  O273  1  0.57574280  0.99211853  0.23194992  1
  O  O274  1  0.63887413  0.98616295  0.75275798  1
  O  O275  1  0.36920016  0.01560016  0.24531048  1
  O  O276  1  0.37041179  0.01145494  0.74557575  1
  O  O277  1  0.36828459  0.50947747  0.25164222  1
  O  O278  1  0.36990036  0.49311760  0.76677190  1
  O  O279  1  0.88029614  0.00908982  0.26153380  1
  O  O280  1  0.85787872  -0.00087549  0.74605023  1
  O  O281  1  0.87505156  0.51108238  0.26104581  1
  O  O282  1  0.88048519  0.50867903  0.75863422  1
  O  O283  1  0.11902447  0.36535138  0.36975847  1
  O  O284  1  0.11605071  0.37507810  0.86659170  1
  O  O285  1  0.11346082  0.86630940  0.37448219  1
  O  O286  1  0.11511475  0.88046289  0.86822679  1
  O  O287  1  0.62179872  0.36948863  0.36966831  1
  O  O288  1  0.62826051  0.36226863  0.86265784  1
  O  O289  1  0.61276197  0.87648608  0.37680481  1
  O  O290  1  0.61344171  0.86952729  0.87044439  1
  O  O291  1  0.38206786  0.13402014  0.13171346  1
  O  O292  1  0.38308457  0.12757299  0.63349035  1
  O  O293  1  0.38296444  0.63207693  0.13381438  1
  O  O294  1  0.38839114  0.63722816  0.62206294  1
  O  O295  1  0.87763202  0.12793053  0.13198747  1
  O  O296  1  0.88484526  0.13196277  0.62569667  1
  O  O297  1  0.87926308  0.63216218  0.13002339  1
  O  O298  1  0.87281313  0.62081330  0.63944962  1
  O  O299  1  0.25303627  0.25604636  0.11902672  1
  O  O300  1  0.24989418  0.25649346  0.61731081  1
  O  O301  1  0.25657498  0.75900629  0.11831686  1
  O  O302  1  0.25286365  0.74886920  0.61753770  1
  O  O303  1  0.75519792  0.25514642  0.11886978  1
  O  O304  1  0.76062245  0.24401841  0.62789912  1
  O  O305  1  0.76160414  0.75625900  0.12279605  1
  O  O306  1  0.75779866  0.74577180  0.61292416  1
  O  O307  1  0.24293407  0.24367001  0.38044290  1
  O  O308  1  0.24758841  0.24098013  0.88249113  1
  O  O309  1  0.23234704  0.75376325  0.36772710  1
  O  O310  1  0.25768675  0.73986690  0.88356174  1
  O  O311  1  0.74131369  0.23593081  0.36989789  1
  O  O312  1  0.74223945  0.23986780  0.87797298  1
  O  O313  1  0.75738414  0.73859397  0.38431852  1
  O  O314  1  0.74126626  0.74271420  0.87665932  1
  O  O315  1  0.00766828  0.12585326  0.00451169  1
  O  O316  1  -0.00122665  0.11109225  0.50506678  1
  O  O317  1  -0.00210170  0.61887530  0.00526796  1
  O  O318  1  -0.00092561  0.61481830  0.49551898  1
  O  O319  1  0.49973709  0.12061211  0.00615368  1
  O  O320  1  0.50230508  0.11724005  0.50486226  1
  O  O321  1  0.49175179  0.62419574  0.01014643  1
  O  O322  1  0.50674043  0.62827630  0.50648114  1
  O  O323  1  0.50113913  0.37487586  0.49221606  1
  O  O324  1  0.49531149  0.38100970  1.00766865  1
  O  O325  1  0.49476203  0.87760173  0.49233824  1
  O  O326  1  0.49231800  0.88221941  0.99435676  1
  O  O327  1  0.99706348  0.37820476  0.48805377  1
  O  O328  1  0.99473901  0.37984176  0.99321199  1
  O  O329  1  0.99295453  0.88736140  0.48936594  1
  O  O330  1  0.99318389  0.87713270  0.98979993  1
  O  O331  1  0.50144307  0.48764270  0.37283877  1
  O  O332  1  0.48736838  0.49922408  0.88918339  1
  O  O333  1  0.49658172  0.98465297  0.38409940  1
  O  O334  1  0.50429571  0.99453849  0.88608335  1
  O  O335  1  0.99655218  0.49443184  0.38024716  1
  O  O336  1  0.99279482  0.49019162  0.88060209  1
  O  O337  1  0.99741615  0.99366455  0.37912566  1
  O  O338  1  1.00119342  0.98516236  0.87720138  1
  O  O339  1  0.00793652  0.00739423  0.12366077  1
  O  O340  1  0.00775407  0.00792155  0.61740695  1
  O  O341  1  -0.00238844  0.50820410  0.11585649  1
  O  O342  1  0.00188066  0.49768915  0.60863549  1
  O  O343  1  0.48310485  0.01367458  0.10644920  1
  O  O344  1  0.49933440  0.01156065  0.61814183  1
  O  O345  1  0.49840918  0.50668419  0.11154675  1
  O  O346  1  0.50188949  0.51451969  0.62800322  1
  O  O347  1  0.24488175  0.38194742  0.24463113  1
  O  O348  1  0.24438391  0.38172792  0.74496748  1
  O  O349  1  0.25926300  0.89055497  0.24591980  1
  O  O350  1  0.24539524  0.88236165  0.74571232  1
  O  O351  1  0.74349860  0.37722114  0.24551062  1
  O  O352  1  0.73859351  0.36918435  0.74884244  1
  O  O353  1  0.75491323  0.86950822  0.23812308  1
  O  O354  1  0.74191719  0.88574031  0.75040756  1
  O  O355  1  0.25622054  0.11939265  0.25886560  1
  O  O356  1  0.25853816  0.12361170  0.75785967  1
  O  O357  1  0.25736163  0.61797783  0.24646092  1
  O  O358  1  0.25428263  0.60912880  0.75993175  1
  O  O359  1  0.76016979  0.12763034  0.25393849  1
  O  O360  1  0.74840732  0.10714671  0.75994952  1
  O  O361  1  0.75760452  0.62527583  0.25636356  1
  O  O362  1  0.76384149  0.62605088  0.76256686  1
  O  O363  1  0.36521513  0.13116040  0.36707283  1
  O  O364  1  0.36701743  0.12754943  0.86734786  1
  O  O365  1  0.37072580  0.62804019  0.36309203  1
  O  O366  1  0.36237464  0.61026822  0.88255961  1
  O  O367  1  0.86771495  0.11995868  0.36944294  1
  O  O368  1  0.85900024  0.12877218  0.87248811  1
  O  O369  1  0.87315439  0.62254918  0.36737860  1
  O  O370  1  0.87020960  0.61640350  0.86899668  1
  O  O371  1  0.13505057  0.37606850  0.13192159  1
  O  O372  1  0.13591851  0.37838131  0.63041495  1
  O  O373  1  0.13136313  0.88963435  0.11833252  1
  O  O374  1  0.13263118  0.88741811  0.63082603  1
  O  O375  1  0.63355651  0.37481638  0.13347630  1
  O  O376  1  0.62578760  0.37110312  0.64036212  1
  O  O377  1  0.64164127  0.86824715  0.12281517  1
  O  O378  1  0.61766046  0.87018435  0.63919763  1
  O  O379  1  0.11897036  0.25437817  0.25676564  1
  O  O380  1  0.12383078  0.26403438  0.75129496  1
  O  O381  1  0.12449758  0.75531394  0.25033555  1
  O  O382  1  0.12696819  0.76829780  0.75079309  1
  O  O383  1  0.62057358  0.26068103  0.25947364  1
  O  O384  1  0.62010454  0.25306903  0.75634412  1
  O  O385  1  0.61289636  0.74669479  0.24976689  1
  O  O386  1  0.63364740  0.76739025  0.75989899  1
  O  O387  1  0.37738506  0.24198010  0.24408587  1
  O  O388  1  0.38409052  0.23907635  0.75110926  1
  O  O389  1  0.38017087  0.74283320  0.24262131  1
  O  O390  1  0.36382129  0.75343038  0.73160620  1
  O  O391  1  0.87956098  0.24397024  0.24633049  1
  O  O392  1  0.88035274  0.24211560  0.73621814  1
  O  O393  1  0.87577868  0.73935110  0.24345309  1
  O  O394  1  0.87477878  0.73607876  0.74941354  1
  O  O395  1  0.38152731  0.49516327  0.49450260  1
  O  O396  1  0.38360276  0.49703188  0.99248766  1
  O  O397  1  0.38786010  0.98420042  0.50823414  1
  O  O398  1  0.37574720  0.98860148  0.99704450  1
  O  O399  1  0.88679707  0.50112921  0.48771639  1
  O  O400  1  0.88487809  0.49364477  0.99184287  1
  O  O401  1  0.88132796  0.99670015  0.48615420  1
  O  O402  1  0.87749785  0.98581489  1.00658489  1
  O  O403  1  0.12505515  0.01312612  0.00852552  1
  O  O404  1  0.11830599  -0.00533172  0.50814858  1
  O  O405  1  0.10964426  0.49844757  0.00160817  1
  O  O406  1  0.11058979  0.49989366  0.49976465  1
  O  O407  1  0.61273816  0.00099284  0.01131922  1
  O  O408  1  0.61197969  0.00873983  0.49569867  1
  O  O409  1  0.60604974  0.49332691  -0.00248589  1
  O  O410  1  0.61989267  0.51633649  0.50467331  1
  O  O411  1  0.36133361  0.36936105  0.13236092  1
  O  O412  1  0.36313474  0.37203648  0.62755836  1
  O  O413  1  0.36948213  0.87205998  0.11519873  1
  O  O414  1  0.37121233  0.86518358  0.61969054  1
  O  O415  1  0.87054854  0.37069029  0.12134760  1
  O  O416  1  0.87487639  0.35777181  0.62424345  1
  O  O417  1  0.86856361  0.86874652  0.11977413  1
  O  O418  1  0.87733210  0.88282190  0.60898182  1
  O  O419  1  0.13243835  0.13642681  0.36990113  1
  O  O420  1  0.13090393  0.12719693  0.88306322  1
  O  O421  1  0.12353230  0.64580423  0.36698954  1
  O  O422  1  0.14452353  0.61405710  0.87801659  1
  O  O423  1  0.63016783  0.13022862  0.38026674  1
  O  O424  1  0.63790443  0.12928837  0.87608962  1
  O  O425  1  0.63370234  0.62223870  0.38269617  1
  O  O426  1  0.63306769  0.63374030  0.86537935  1
