# generated using pymatgen
data_V85Zn86O256
_symmetry_space_group_name_H-M   'P 1'
_cell_length_a   16.92814335
_cell_length_b   16.92614715
_cell_length_c   16.92039388
_cell_angle_alpha   89.97938282
_cell_angle_beta   89.91893002
_cell_angle_gamma   90.06193789
_symmetry_Int_Tables_number   1
_chemical_formula_structural   V85Zn86O256
_chemical_formula_sum   'V85 Zn86 O256'
_cell_volume   4848.16276731
_cell_formula_units_Z   1
loop_
 _symmetry_equiv_pos_site_id
 _symmetry_equiv_pos_as_xyz
  1  'x, y, z'
loop_
 _atom_site_type_symbol
 _atom_site_label
 _atom_site_symmetry_multiplicity
 _atom_site_fract_x
 _atom_site_fract_y
 _atom_site_fract_z
 _atom_site_occupancy
  V  V0  1  0.62358145  0.00264755  0.61076364  1
  V  V1  1  0.25915027  0.49865893  0.75299340  1
  V  V2  1  -0.00505379  0.49974989  0.00054313  1
  V  V3  1  0.74493411  0.50662233  0.74536258  1
  V  V4  1  -0.00447374  0.62671002  0.13178658  1
  V  V5  1  0.24918651  0.62529108  0.37538336  1
  V  V6  1  0.37644630  0.25059664  0.62158429  1
  V  V7  1  0.24452660  0.12717536  0.88750213  1
  V  V8  1  0.33180314  0.44345560  0.93423562  1
  V  V9  1  0.38750588  0.87912726  0.50763359  1
  V  V10  1  0.25771669  0.75246543  0.51189964  1
  V  V11  1  0.75410230  0.74311815  0.49164290  1
  V  V12  1  0.25602689  0.25219965  0.49667442  1
  V  V13  1  0.12758074  0.12671384  0.49781849  1
  V  V14  1  0.50718223  0.50380078  -0.00232246  1
  V  V15  1  0.51348457  0.62495513  0.12239976  1
  V  V16  1  0.00022038  0.24963086  0.75033652  1
  V  V17  1  0.74511346  0.62759524  0.88989547  1
  V  V18  1  0.24675132  0.00013381  0.75090280  1
  V  V19  1  0.00088064  0.00094309  0.49827388  1
  V  V20  1  0.87443714  -0.00068735  0.88112000  1
  V  V21  1  0.11449494  0.87143739  0.74934986  1
  V  V22  1  0.87366900  0.25631068  0.12348369  1
  V  V23  1  0.74405586  0.25627284  0.00463793  1
  V  V24  1  0.37456133  -0.00066013  0.87854780  1
  V  V25  1  0.74535045  0.37709433  0.62604596  1
  V  V26  1  0.00039496  0.87270493  0.36536640  1
  V  V27  1  0.37450195  0.63581856  0.74721071  1
  V  V28  1  0.62537461  0.25298269  0.36257779  1
  V  V29  1  0.25753426  0.63086491  0.88192729  1
  V  V30  1  0.87256348  0.75378792  0.12163396  1
  V  V31  1  0.12486425  0.37335101  0.74826676  1
  V  V32  1  0.50309425  0.37618431  0.36282056  1
  V  V33  1  0.87399858  0.25012640  0.62483441  1
  V  V34  1  0.49872703  0.63026556  0.62283494  1
  V  V35  1  0.12493627  -0.00059946  0.62584373  1
  V  V36  1  0.87604200  0.62929661  0.75279868  1
  V  V37  1  0.62862155  0.61964283  0.50254546  1
  V  V38  1  0.36806528  0.75203581  0.12357339  1
  V  V39  1  0.12257682  0.24663958  0.88969103  1
  V  V40  1  0.37506681  0.12232137  0.74687507  1
  V  V41  1  0.87520920  0.00182529  0.37169515  1
  V  V42  1  0.38392671  0.62219991  0.25040971  1
  V  V43  1  0.74853576  0.49020825  0.25819404  1
  V  V44  1  0.12739473  0.50142203  0.62709957  1
  V  V45  1  0.73917603  0.24730206  0.49987324  1
  V  V46  1  0.73475269  0.86651590  0.12484979  1
  V  V47  1  0.13269203  -0.01024873  0.12637180  1
  V  V48  1  0.12828585  0.63470784  0.00201512  1
  V  V49  1  0.88007070  0.75072612  0.62748675  1
  V  V50  1  0.00063077  0.50060128  0.50144461  1
  V  V51  1  0.50219590  0.49131935  0.50652023  1
  V  V52  1  0.87461569  0.37527562  0.49869906  1
  V  V53  1  0.36517999  0.24503093  0.10612728  1
  V  V54  1  0.74566283  0.00075434  0.75037468  1
  V  V55  1  0.25271296  0.49512383  0.24994053  1
  V  V56  1  0.62614376  0.74704125  0.88563973  1
  V  V57  1  0.62312929  0.01845352  0.12992858  1
  V  V58  1  0.36625907  0.87292274  0.00629469  1
  V  V59  1  0.74570694  0.12390286  0.37600813  1
  V  V60  1  0.17557695  0.80915976  0.31926746  1
  V  V61  1  0.63028473  0.48026015  0.12954009  1
  V  V62  1  0.38554400  0.00340983  0.37042081  1
  V  V63  1  0.25438313  0.12278918  0.36475391  1
  V  V64  1  0.48763114  0.23591326  0.24022034  1
  V  V65  1  0.74975535  0.87440849  0.62479778  1
  V  V66  1  0.11984770  0.74977969  0.87284432  1
  V  V67  1  0.87885504  0.12550076  0.24483152  1
  V  V68  1  0.12559381  0.63272065  0.49737501  1
  V  V69  1  0.50636429  0.01041428  0.00294827  1
  V  V70  1  0.50857250  0.76054688  0.24826529  1
  V  V71  1  0.87761648  0.87491638  0.49888275  1
  V  V72  1  0.12529952  0.49829028  0.12712355  1
  V  V73  1  0.00222137  0.62819228  0.63104872  1
  V  V74  1  0.37838537  0.49443854  0.38076669  1
  V  V75  1  0.50211035  0.87257671  0.87655758  1
  V  V76  1  0.50430434  0.12184895  0.61028335  1
  V  V77  1  0.62276754  0.38039076  0.74573245  1
  V  V78  1  0.49971013  0.24880596  0.74860788  1
  V  V79  1  0.25737037  0.37574284  0.61952677  1
  V  V80  1  0.62908141  0.75013941  0.37203892  1
  V  V81  1  0.00218448  0.37304053  0.37229837  1
  V  V82  1  0.49817798  0.37913032  0.87812275  1
  V  V83  1  0.74404732  0.12384307  0.88077538  1
  V  V84  1  0.62119540  0.24496546  0.87927355  1
  Zn  Zn85  1  0.86570856  0.37922841  -0.00021151  1
  Zn  Zn86  1  0.62429049  0.87146902  0.74968415  1
  Zn  Zn87  1  -0.00076589  0.74891687  0.25400340  1
  Zn  Zn88  1  0.51185700  0.88271920  0.37740841  1
  Zn  Zn89  1  0.25558972  0.37300147  0.10889569  1
  Zn  Zn90  1  -0.00590461  0.37463354  0.87516521  1
  Zn  Zn91  1  0.87284984  0.49985939  0.87586239  1
  Zn  Zn92  1  0.87252323  0.12601095  0.74966134  1
  Zn  Zn93  1  -0.00703348  0.86859777  0.87530623  1
  Zn  Zn94  1  -0.00117895  0.12555272  0.62337059  1
  Zn  Zn95  1  0.85849198  0.63062754  0.26121494  1
  Zn  Zn96  1  0.12693438  0.37064004  0.24814968  1
  Zn  Zn97  1  0.86924600  0.50531973  0.37735745  1
  Zn  Zn98  1  0.00931132  -0.00041394  -0.00061202  1
  Zn  Zn99  1  0.25627235  0.87271734  0.63020311  1
  Zn  Zn100  1  0.00462856  0.24854977  0.24495094  1
  Zn  Zn101  1  0.12775278  0.25011807  0.36964402  1
  Zn  Zn102  1  0.24960741  -0.01069305  0.24861906  1
  Zn  Zn103  1  0.50034696  0.75190386  0.74770676  1
  Zn  Zn104  1  0.74535102  -0.00363043  0.24913004  1
  Zn  Zn105  1  0.87116761  0.87110490  0.00005866  1
  Zn  Zn106  1  0.01598488  0.12711640  0.10186810  1
  Zn  Zn107  1  0.18733706  0.18605816  0.18100494  1
  Zn  Zn108  1  0.18657021  0.18620551  0.68742677  1
  Zn  Zn109  1  0.19098086  0.67991287  0.18554229  1
  Zn  Zn110  1  0.18892458  0.68818667  0.69108101  1
  Zn  Zn111  1  0.69052698  0.19078082  0.19039538  1
  Zn  Zn112  1  0.68421885  0.18656119  0.68989843  1
  Zn  Zn113  1  0.68990686  0.68249576  0.18745205  1
  Zn  Zn114  1  0.68420383  0.69057156  0.68683650  1
  Zn  Zn115  1  0.31569586  0.31373751  0.31204329  1
  Zn  Zn116  1  0.30811615  0.30465920  0.80851477  1
  Zn  Zn117  1  0.33972125  0.81104053  0.32003513  1
  Zn  Zn118  1  0.30815748  0.81350647  0.81915250  1
  Zn  Zn119  1  0.81256212  0.31677277  0.30887379  1
  Zn  Zn120  1  0.81071518  0.31454788  0.81609651  1
  Zn  Zn121  1  0.81243560  0.81519027  0.30470658  1
  Zn  Zn122  1  0.80813977  0.81087128  0.81331688  1
  Zn  Zn123  1  0.18627031  0.43918894  0.43800599  1
  Zn  Zn124  1  0.16500590  0.44068653  0.93460927  1
  Zn  Zn125  1  0.19683851  0.94313238  0.44371919  1
  Zn  Zn126  1  0.18430020  0.93651281  0.93942206  1
  Zn  Zn127  1  0.68365181  0.43465383  0.43755387  1
  Zn  Zn128  1  0.68368166  0.44008928  0.93438011  1
  Zn  Zn129  1  0.69133890  0.93323105  0.43608766  1
  Zn  Zn130  1  0.68683549  0.93392838  0.94384421  1
  Zn  Zn131  1  0.31022609  0.06148736  0.07100845  1
  Zn  Zn132  1  0.31462850  0.06039237  0.55978167  1
  Zn  Zn133  1  0.31339428  0.56970484  0.06879793  1
  Zn  Zn134  1  0.31668944  0.56417316  0.56317719  1
  Zn  Zn135  1  0.80705829  0.06708746  0.06321016  1
  Zn  Zn136  1  0.81048025  0.06435208  0.56102324  1
  Zn  Zn137  1  0.81043318  0.56147928  0.07192823  1
  Zn  Zn138  1  0.81272809  0.56268309  0.56428957  1
  Zn  Zn139  1  0.43724736  0.43156470  0.18086550  1
  Zn  Zn140  1  0.43756849  0.44209466  0.68790939  1
  Zn  Zn141  1  0.43975916  0.94203841  0.18623588  1
  Zn  Zn142  1  0.44045901  0.93990337  0.68831674  1
  Zn  Zn143  1  0.93328030  0.43729156  0.18956553  1
  Zn  Zn144  1  0.93441422  0.43903442  0.68902710  1
  Zn  Zn145  1  0.93955330  0.94074226  0.18137233  1
  Zn  Zn146  1  0.93515772  0.94095491  0.69009850  1
  Zn  Zn147  1  0.06696858  0.05972102  0.30389745  1
  Zn  Zn148  1  0.05847573  0.06587990  0.81718427  1
  Zn  Zn149  1  0.06057229  0.56084664  0.31554544  1
  Zn  Zn150  1  0.06367510  0.56422908  0.81382113  1
  Zn  Zn151  1  0.56493484  0.06647827  0.31280499  1
  Zn  Zn152  1  0.56174601  0.06047457  0.80886741  1
  Zn  Zn153  1  0.57110881  0.56426277  0.31300042  1
  Zn  Zn154  1  0.56224832  0.56465870  0.81206714  1
  Zn  Zn155  1  0.43801593  0.18976365  0.43316008  1
  Zn  Zn156  1  0.43258361  0.18693922  0.93600697  1
  Zn  Zn157  1  0.44197286  0.68878987  0.43729860  1
  Zn  Zn158  1  0.43925635  0.68816491  0.93925952  1
  Zn  Zn159  1  0.93539381  0.18836739  0.43600888  1
  Zn  Zn160  1  0.93119425  0.18500441  0.93818412  1
  Zn  Zn161  1  0.94037335  0.68830926  0.43458352  1
  Zn  Zn162  1  0.93694698  0.68528159  0.94105390  1
  Zn  Zn163  1  0.05820297  0.31540414  0.06692066  1
  Zn  Zn164  1  0.06508829  0.31207218  0.56105355  1
  Zn  Zn165  1  0.05660317  0.81976216  0.06300787  1
  Zn  Zn166  1  0.06376488  0.81389076  0.56065132  1
  Zn  Zn167  1  0.55267009  0.30870146  0.05921065  1
  Zn  Zn168  1  0.56096385  0.31241799  0.55967597  1
  Zn  Zn169  1  0.55790188  0.81425966  0.06036047  1
  Zn  Zn170  1  0.56706262  0.80915798  0.56393822  1
  O  O171  1  0.12553935  0.10744615  0.13121552  1
  O  O172  1  0.12445069  0.11983110  0.61314178  1
  O  O173  1  0.12074227  0.61660256  0.11928841  1
  O  O174  1  0.12186153  0.62117268  0.62203864  1
  O  O175  1  0.62702376  0.11684504  0.12394953  1
  O  O176  1  0.61620459  0.11678377  0.62841160  1
  O  O177  1  0.61495397  0.61656652  0.12465069  1
  O  O178  1  0.61719127  0.62756827  0.61230779  1
  O  O179  1  0.38376238  0.38750280  0.37385116  1
  O  O180  1  0.38015146  0.37591822  0.86698538  1
  O  O181  1  0.38566201  0.88765916  0.38734329  1
  O  O182  1  0.38156931  0.87973870  0.88416693  1
  O  O183  1  0.88189236  0.37822337  0.38372691  1
  O  O184  1  0.87689282  0.38126509  0.87924428  1
  O  O185  1  0.88146631  0.88159601  0.37943411  1
  O  O186  1  0.87107111  0.88273367  0.87504989  1
  O  O187  1  0.26175585  0.00690191  0.37330026  1
  O  O188  1  0.25141530  0.00893138  0.86876009  1
  O  O189  1  0.26065976  0.50462334  0.37205200  1
  O  O190  1  0.25585850  0.50190973  0.87179315  1
  O  O191  1  0.75504812  0.00750332  0.37331512  1
  O  O192  1  0.74820122  0.00578289  0.86913828  1
  O  O193  1  0.74718514  0.49496385  0.36353734  1
  O  O194  1  0.74791478  0.51201607  0.86478902  1
  O  O195  1  0.24450067  0.50038759  0.13377920  1
  O  O196  1  0.24828291  0.49409106  0.63100437  1
  O  O197  1  0.24274400  0.99440004  0.13146122  1
  O  O198  1  0.24334397  0.99925051  0.63346452  1
  O  O199  1  0.73378411  0.49366545  0.12484237  1
  O  O200  1  0.75329503  0.49310632  0.63751220  1
  O  O201  1  0.73305703  0.99659779  0.12307041  1
  O  O202  1  0.74567370  0.99692035  0.63150879  1
  O  O203  1  0.00233735  0.37518426  0.25983172  1
  O  O204  1  0.00462958  0.36577333  0.74777493  1
  O  O205  1  -0.00429960  0.87507338  0.26294031  1
  O  O206  1  0.01141766  0.87709528  0.75083137  1
  O  O207  1  0.49800018  0.36826122  0.26039793  1
  O  O208  1  0.50417643  0.37320806  0.75671318  1
  O  O209  1  0.49772886  0.86299863  0.25131413  1
  O  O210  1  0.49902241  0.87577526  0.76436089  1
  O  O211  1  0.49861978  0.13813102  0.25148959  1
  O  O212  1  0.49240629  0.13091752  0.74498963  1
  O  O213  1  0.49727622  0.62884102  0.24398822  1
  O  O214  1  0.49031757  0.62312372  0.74258915  1
  O  O215  1  0.98402046  0.12903452  0.26140063  1
  O  O216  1  0.99738076  0.13823044  0.74552979  1
  O  O217  1  1.00471623  0.62430672  0.23810195  1
  O  O218  1  0.99048887  0.62010106  0.74284943  1
  O  O219  1  0.37687122  0.25495240  0.00621891  1
  O  O220  1  0.36370448  0.24736860  0.50512718  1
  O  O221  1  0.38313160  0.76332733  0.00920281  1
  O  O222  1  0.36828066  0.76444232  0.48988108  1
  O  O223  1  0.86232371  0.25181142  0.00535823  1
  O  O224  1  0.86686311  0.25767489  0.50670830  1
  O  O225  1  0.87683181  0.74666077  0.01646114  1
  O  O226  1  0.87024221  0.75341988  0.50663907  1
  O  O227  1  0.13687152  0.24221472  0.49931036  1
  O  O228  1  0.12127656  0.25760886  0.98839822  1
  O  O229  1  0.13552131  0.73889804  0.50586683  1
  O  O230  1  0.12031833  0.73859728  0.99752707  1
  O  O231  1  0.63553365  0.25394446  0.49129454  1
  O  O232  1  0.62548158  0.25332539  0.98736228  1
  O  O233  1  0.63646813  0.74252419  0.49588513  1
  O  O234  1  0.61770752  0.75022465  0.98591399  1
  O  O235  1  0.48878282  0.25188524  0.13490107  1
  O  O236  1  0.49543972  0.24489049  0.62907332  1
  O  O237  1  0.49735381  0.74193700  0.13122617  1
  O  O238  1  0.50285283  0.73629245  0.62727035  1
  O  O239  1  0.99098518  0.24287891  0.12445287  1
  O  O240  1  0.99078558  0.25081277  0.62949755  1
  O  O241  1  0.99323752  0.74264619  0.12920559  1
  O  O242  1  0.98741318  0.74626458  0.61990541  1
  O  O243  1  0.00138290  0.26363426  0.37841071  1
  O  O244  1  0.00532932  0.25033841  0.86566040  1
  O  O245  1  0.00334114  0.76457830  0.37573565  1
  O  O246  1  0.01423541  0.74448222  0.87736191  1
  O  O247  1  0.50604995  0.25636367  0.36814963  1
  O  O248  1  0.50308762  0.25679477  0.86947009  1
  O  O249  1  0.50948554  0.75162046  0.36544196  1
  O  O250  1  0.50576947  0.75644242  0.87248540  1
  O  O251  1  0.24440396  0.13201324  0.49525502  1
  O  O252  1  0.25475918  0.12036499  0.98475480  1
  O  O253  1  0.24874921  0.63379055  0.49465211  1
  O  O254  1  0.24182784  0.61922435  0.99296686  1
  O  O255  1  0.75629560  0.13746850  0.49025880  1
  O  O256  1  0.74786333  0.13569271  0.98651872  1
  O  O257  1  0.74341852  0.63255484  0.50578302  1
  O  O258  1  0.75116655  0.61826949  0.98748292  1
  O  O259  1  0.25747435  0.39367708  -0.01090283  1
  O  O260  1  0.24583888  0.36701987  0.50893112  1
  O  O261  1  0.26840245  0.87570394  -0.00748806  1
  O  O262  1  0.26040868  0.86679263  0.50355788  1
  O  O263  1  0.74567448  0.36082422  -0.00924292  1
  O  O264  1  0.75440524  0.36907849  0.50624940  1
  O  O265  1  0.75309916  0.87791375  0.01882157  1
  O  O266  1  0.75979424  0.86572996  0.50583377  1
  O  O267  1  0.13484286  0.50139923  0.24244823  1
  O  O268  1  0.13738349  0.49632642  0.74696338  1
  O  O269  1  0.13273209  0.99531597  0.24177133  1
  O  O270  1  0.12974261  0.99549057  0.74642050  1
  O  O271  1  0.62997196  0.49797853  0.23781710  1
  O  O272  1  0.63129896  0.49186943  0.75202250  1
  O  O273  1  0.62261877  1.00403927  0.23439109  1
  O  O274  1  0.63561649  0.99656974  0.74380735  1
  O  O275  1  0.37165668  -0.00900492  0.26620722  1
  O  O276  1  0.36684860  0.00220306  0.75820242  1
  O  O277  1  0.37280070  0.50569016  0.25526348  1
  O  O278  1  0.36321772  0.50953057  0.74843832  1
  O  O279  1  0.87205807  0.00796772  0.25621209  1
  O  O280  1  0.86074763  0.00231295  0.75592158  1
  O  O281  1  0.85950510  0.49914489  0.25037585  1
  O  O282  1  0.86631147  0.51237315  0.75086853  1
  O  O283  1  0.11672643  0.37367207  0.37495102  1
  O  O284  1  0.11935451  0.36449166  0.86426842  1
  O  O285  1  0.12145450  0.87479984  0.37938602  1
  O  O286  1  0.12430147  0.86593994  0.86746835  1
  O  O287  1  0.61559163  0.36417876  0.37730527  1
  O  O288  1  0.61565014  0.36920437  0.86451634  1
  O  O289  1  0.62562324  0.85859049  0.38087874  1
  O  O290  1  0.61873134  0.86798986  0.87510299  1
  O  O291  1  0.37188289  0.14321907  0.12081446  1
  O  O292  1  0.38218220  0.12780243  0.62862855  1
  O  O293  1  0.38615928  0.62925383  0.13640687  1
  O  O294  1  0.38282771  0.62391189  0.63523460  1
  O  O295  1  0.87368957  0.13274054  0.13303177  1
  O  O296  1  0.87417804  0.13887203  0.62587072  1
  O  O297  1  0.88203412  0.63078296  0.13037118  1
  O  O298  1  0.88107899  0.63247861  0.63165814  1
  O  O299  1  0.25971206  0.25515031  0.12270310  1
  O  O300  1  0.25527195  0.25699808  0.61933754  1
  O  O301  1  0.26891623  0.74066018  0.12924148  1
  O  O302  1  0.25295326  0.74984879  0.61523228  1
  O  O303  1  0.75585350  0.24532465  0.11416909  1
  O  O304  1  0.75343255  0.25421464  0.61854609  1
  O  O305  1  0.75303629  0.75958360  0.12835475  1
  O  O306  1  0.76058528  0.75377214  0.61626937  1
  O  O307  1  0.25244077  0.24357765  0.38255866  1
  O  O308  1  0.23968974  0.23540439  0.86891681  1
  O  O309  1  0.24377954  0.74983227  0.37770322  1
  O  O310  1  0.23755049  0.73978236  0.87519108  1
  O  O311  1  0.74316600  0.24705673  0.37918728  1
  O  O312  1  0.73906680  0.24256995  0.87690609  1
  O  O313  1  0.74854354  0.75396430  0.38493075  1
  O  O314  1  0.74299787  0.73542710  0.87355937  1
  O  O315  1  -0.00228733  0.11397174  -0.01056452  1
  O  O316  1  0.00915329  0.12065000  0.49895816  1
  O  O317  1  0.00571198  0.61712824  0.01181417  1
  O  O318  1  0.01051137  0.62206090  0.50860223  1
  O  O319  1  0.49563823  0.10824705  -0.00842100  1
  O  O320  1  0.49897412  0.13143573  0.51144304  1
  O  O321  1  0.49502477  0.61537537  0.00953820  1
  O  O322  1  0.50567079  0.61868992  0.50633426  1
  O  O323  1  0.50357542  0.38684832  0.49211510  1
  O  O324  1  0.49853809  0.38260701  0.98522641  1
  O  O325  1  0.49009400  0.86967185  0.50096102  1
  O  O326  1  0.49330339  0.88363729  0.98984880  1
  O  O327  1  0.99467196  0.38020032  0.49732231  1
  O  O328  1  1.00179464  0.39121525  0.99924664  1
  O  O329  1  0.99577036  0.88179621  0.49314742  1
  O  O330  1  0.99020954  0.88137763  0.99284079  1
  O  O331  1  0.49712684  0.49386899  0.37898694  1
  O  O332  1  0.50294473  0.49389135  0.88351563  1
  O  O333  1  0.49081696  1.00188616  0.37352202  1
  O  O334  1  0.49662170  0.99365362  0.88333420  1
  O  O335  1  1.00211175  0.48821563  0.38529090  1
  O  O336  1  0.99857318  0.50210267  0.88595731  1
  O  O337  1  0.99612740  0.99394664  0.38075352  1
  O  O338  1  0.98449203  0.99595367  0.86732565  1
  O  O339  1  0.01025674  0.00631648  0.12382365  1
  O  O340  1  0.00559372  0.00273464  0.61828820  1
  O  O341  1  0.00690850  0.50523838  0.12213775  1
  O  O342  1  0.00640368  0.50560265  0.62093040  1
  O  O343  1  0.51089695  -0.00246191  0.11386194  1
  O  O344  1  0.51111936  0.00977581  0.62898083  1
  O  O345  1  0.50759370  0.50430920  0.11986218  1
  O  O346  1  0.49515479  0.50955446  0.61419372  1
  O  O347  1  0.24946095  0.38916290  0.25454923  1
  O  O348  1  0.24583329  0.38164861  0.74355440  1
  O  O349  1  0.24540084  0.86195402  0.26784658  1
  O  O350  1  0.24433394  0.88696201  0.75149127  1
  O  O351  1  0.74798706  0.38838538  0.24704956  1
  O  O352  1  0.74085547  0.38279191  0.74752872  1
  O  O353  1  0.75182846  0.88074491  0.23154767  1
  O  O354  1  0.74907037  0.88275887  0.74142623  1
  O  O355  1  0.25021905  0.12597864  0.26438338  1
  O  O356  1  0.25414914  0.11392176  0.75184343  1
  O  O357  1  0.26005372  0.61466714  0.25644514  1
  O  O358  1  0.25562912  0.61771183  0.75849046  1
  O  O359  1  0.76007494  0.12371500  0.25896549  1
  O  O360  1  0.74855334  0.11789260  0.75867211  1
  O  O361  1  0.74720219  0.60155064  0.24042644  1
  O  O362  1  0.75556409  0.61931426  0.74998400  1
  O  O363  1  0.36977151  0.10994869  0.38453844  1
  O  O364  1  0.36379881  0.11970365  0.86731977  1
  O  O365  1  0.37350570  0.61947494  0.36516935  1
  O  O366  1  0.36399078  0.62918951  0.87065940  1
  O  O367  1  0.86482421  0.12133350  0.37091011  1
  O  O368  1  0.86070530  0.11816862  0.86865602  1
  O  O369  1  0.88588887  0.61719447  0.37126999  1
  O  O370  1  0.86330948  0.62588481  0.86861099  1
  O  O371  1  0.13148270  0.38848000  0.12350982  1
  O  O372  1  0.13587495  0.38031051  0.62937421  1
  O  O373  1  0.11907901  0.88752423  0.12919800  1
  O  O374  1  0.12913964  0.88023163  0.63238296  1
  O  O375  1  0.61590335  0.38278278  0.12427426  1
  O  O376  1  0.62812709  0.36848373  0.63772579  1
  O  O377  1  0.63247965  0.87715804  0.12275854  1
  O  O378  1  0.63222034  0.88210083  0.62608440  1
  O  O379  1  0.12272449  0.25307565  0.25172497  1
  O  O380  1  0.11650500  0.25466787  0.75067511  1
  O  O381  1  0.12529198  0.74838675  0.25362314  1
  O  O382  1  0.13011740  0.76015021  0.75782631  1
  O  O383  1  0.61487918  0.24769684  0.25803925  1
  O  O384  1  0.61813708  0.25790423  0.75852937  1
  O  O385  1  0.61968118  0.74124442  0.25916516  1
  O  O386  1  0.62142275  0.75249998  0.76058828  1
  O  O387  1  0.38665998  0.24698578  0.25292448  1
  O  O388  1  0.37984104  0.24291334  0.74109173  1
  O  O389  1  0.38811601  0.74064986  0.24509059  1
  O  O390  1  0.37390028  0.73946900  0.75474813  1
  O  O391  1  0.87465239  0.24420155  0.24100840  1
  O  O392  1  0.88028896  0.25188265  0.74176474  1
  O  O393  1  0.87737618  0.74608620  0.23914493  1
  O  O394  1  0.86909379  0.73834240  0.74207922  1
  O  O395  1  0.38618006  0.50824543  0.48887516  1
  O  O396  1  0.38510783  0.50220807  1.00318175  1
  O  O397  1  0.37168048  0.98608572  0.49056904  1
  O  O398  1  0.38394503  0.99057318  0.99931520  1
  O  O399  1  0.88112539  0.49088674  0.50357859  1
  O  O400  1  0.88160077  0.50041199  1.00210644  1
  O  O401  1  0.87994697  0.99573924  0.49335791  1
  O  O402  1  0.86459627  1.00162217  0.98553758  1
  O  O403  1  0.12799802  -0.00513767  0.01528462  1
  O  O404  1  0.12238583  0.00713768  0.50606377  1
  O  O405  1  0.11667366  0.51289514  0.00848440  1
  O  O406  1  0.12362530  0.51125409  0.50920785  1
  O  O407  1  0.61239159  -0.00140923  0.00827388  1
  O  O408  1  0.63352248  -0.00158375  0.51141366  1
  O  O409  1  0.61435863  0.49511567  0.01084556  1
  O  O410  1  0.61606001  0.50822254  0.49629398  1
  O  O411  1  0.37007284  0.35775689  0.13018642  1
  O  O412  1  0.36384076  0.37089463  0.63017521  1
  O  O413  1  0.38126368  0.86808240  0.11468226  1
  O  O414  1  0.37523628  0.88119539  0.61259788  1
  O  O415  1  0.87987542  0.36070483  0.12041032  1
  O  O416  1  0.86761951  0.36597203  0.62094062  1
  O  O417  1  0.86738588  0.86791422  0.12438945  1
  O  O418  1  0.87177530  0.86841440  0.62104315  1
  O  O419  1  0.13413547  0.12363240  0.38558114  1
  O  O420  1  0.13668403  0.13178003  0.86994564  1
  O  O421  1  0.13418671  0.61810745  0.38672727  1
  O  O422  1  0.13501002  0.62834319  0.88228258  1
  O  O423  1  0.63814313  0.13353783  0.37245723  1
  O  O424  1  0.62860309  0.13538086  0.86776803  1
  O  O425  1  0.62078916  0.63642966  0.39040150  1
  O  O426  1  0.63760090  0.63017722  0.87209301  1
