# generated using pymatgen
data_V85Zn86O256
_symmetry_space_group_name_H-M   'P 1'
_cell_length_a   16.96918309
_cell_length_b   16.96900686
_cell_length_c   16.98234511
_cell_angle_alpha   89.95838219
_cell_angle_beta   89.92127592
_cell_angle_gamma   90.05121821
_symmetry_Int_Tables_number   1
_chemical_formula_structural   V85Zn86O256
_chemical_formula_sum   'V85 Zn86 O256'
_cell_volume   4890.06153791
_cell_formula_units_Z   1
loop_
 _symmetry_equiv_pos_site_id
 _symmetry_equiv_pos_as_xyz
  1  'x, y, z'
loop_
 _atom_site_type_symbol
 _atom_site_label
 _atom_site_symmetry_multiplicity
 _atom_site_fract_x
 _atom_site_fract_y
 _atom_site_fract_z
 _atom_site_occupancy
  V  V0  1  0.37997140  0.26027683  0.62489797  1
  V  V1  1  0.00294159  0.12179755  0.62760048  1
  V  V2  1  0.37134897  0.50559889  0.38225052  1
  V  V3  1  0.25688619  0.74622830  0.48962114  1
  V  V4  1  -0.05532714  0.19731115  0.29581005  1
  V  V5  1  0.25232384  -0.00029902  0.24921337  1
  V  V6  1  0.25300421  0.12441033  0.37702509  1
  V  V7  1  0.87615354  0.12628240  0.75373108  1
  V  V8  1  -0.00137312  0.49799404  0.00100255  1
  V  V9  1  0.62287774  0.00198795  0.13734756  1
  V  V10  1  0.87987179  0.87487321  0.48619229  1
  V  V11  1  0.87206635  0.62273494  0.25018323  1
  V  V12  1  0.74924364  0.74631396  0.49977658  1
  V  V13  1  0.12737859  -0.00468839  0.62104298  1
  V  V14  1  0.87569606  0.25127642  0.62957455  1
  V  V15  1  0.50191609  0.12877050  0.11112032  1
  V  V16  1  0.75541964  0.50469502  0.75121624  1
  V  V17  1  0.37913097  0.39798051  -0.01130513  1
  V  V18  1  0.37475009  0.75029265  0.12896333  1
  V  V19  1  0.49457426  0.37635283  0.37945992  1
  V  V20  1  0.25673254  0.12228013  0.87073712  1
  V  V21  1  0.12552894  0.75071534  0.87385656  1
  V  V22  1  0.37411483  0.25509486  0.12202699  1
  V  V23  1  0.62683237  0.87157712  0.74680016  1
  V  V24  1  0.37712103  0.12757312  0.24808636  1
  V  V25  1  0.74303055  0.61935346  0.37830073  1
  V  V26  1  0.48997630  0.12284629  0.62644566  1
  V  V27  1  0.73622361  0.13518548  0.88179213  1
  V  V28  1  0.30755198  0.81825401  0.67761031  1
  V  V29  1  -0.00159845  0.00150389  0.00038972  1
  V  V30  1  -0.00316537  0.62554241  0.63807837  1
  V  V31  1  0.50161667  0.62054295  0.11678458  1
  V  V32  1  0.25499081  0.00218729  0.74442219  1
  V  V33  1  0.86107702  0.37118836  0.00205243  1
  V  V34  1  0.00178658  0.37461855  0.87367494  1
  V  V35  1  0.60576371  0.36881280  0.74833837  1
  V  V36  1  0.49815039  0.49997941  0.50378376  1
  V  V37  1  0.62726588  0.74860973  0.37220341  1
  V  V38  1  0.12704008  0.62481873  -0.00113278  1
  V  V39  1  0.62896922  0.01074223  0.61948866  1
  V  V40  1  0.11794134  0.87051308  0.74326934  1
  V  V41  1  0.50212074  0.86845549  0.87399252  1
  V  V42  1  0.25236297  0.37450576  0.61736514  1
  V  V43  1  0.00008992  -0.00519377  0.48739784  1
  V  V44  1  -0.00461221  0.13647995  0.12089785  1
  V  V45  1  0.75382795  0.87484266  0.62323584  1
  V  V46  1  0.87171224  0.49824064  0.37470869  1
  V  V47  1  0.48650188  0.63149917  0.62237830  1
  V  V48  1  0.37366156  0.87118380  0.49818333  1
  V  V49  1  0.74618596  0.37287773  0.62840480  1
  V  V50  1  0.29810470  0.57414675  0.81408934  1
  V  V51  1  0.87357417  0.37362219  0.50203953  1
  V  V52  1  0.75197619  0.00134304  0.75262216  1
  V  V53  1  0.13976859  0.37580966  0.75111384  1
  V  V54  1  0.87963030  0.74771390  0.63669409  1
  V  V55  1  0.00427132  0.25110917  0.75043658  1
  V  V56  1  0.24349273  0.75169221  0.00569782  1
  V  V57  1  0.62349881  0.74182526  0.87446719  1
  V  V58  1  -0.00279172  0.62581138  0.12503351  1
  V  V59  1  0.62862026  0.50057690  0.11159988  1
  V  V60  1  0.74044564  0.87585059  0.12911901  1
  V  V61  1  0.12962592  0.49950757  0.62777194  1
  V  V62  1  0.50862610  -0.00327791  -0.00054114  1
  V  V63  1  0.62668433  0.37982118  0.25024621  1
  V  V64  1  0.25124371  0.37953116  0.12755051  1
  V  V65  1  0.87202624  0.75163899  0.12247503  1
  V  V66  1  0.24848759  0.50899080  0.25696039  1
  V  V67  1  0.50640344  0.87468035  0.37219357  1
  V  V68  1  0.62666265  0.51223293  0.61756987  1
  V  V69  1  0.25292078  0.25016744  -0.00282337  1
  V  V70  1  0.50565236  0.00385722  0.49615663  1
  V  V71  1  0.37515757  0.87335022  0.00109344  1
  V  V72  1  -0.00326958  0.75724312  0.25924789  1
  V  V73  1  0.87408828  0.00307412  0.87660465  1
  V  V74  1  0.62167895  0.24249383  0.38070889  1
  V  V75  1  0.74324472  0.74443709  0.00053887  1
  V  V76  1  0.50341824  0.74964355  0.25106196  1
  V  V77  1  0.12454778  0.00156915  0.12360703  1
  V  V78  1  -0.00180778  0.87299857  0.87252776  1
  V  V79  1  0.12894527  0.62586119  0.49217020  1
  V  V80  1  0.00036947  0.50096125  0.49968551  1
  V  V81  1  0.24847691  0.87744350  0.12815194  1
  V  V82  1  0.76493197  0.00276589  0.25603090  1
  V  V83  1  0.12842625  0.24996206  0.37042035  1
  V  V84  1  0.11822230  0.37531603  0.25005350  1
  Zn  Zn85  1  0.49952825  0.25304085  0.25010440  1
  Zn  Zn86  1  0.73777072  0.23810603  0.50710916  1
  Zn  Zn87  1  0.75836087  0.62869702  0.87276604  1
  Zn  Zn88  1  0.43329675  0.16882654  0.79794658  1
  Zn  Zn89  1  0.75111451  0.12115885  0.37332553  1
  Zn  Zn90  1  0.12381262  0.50262039  0.12834529  1
  Zn  Zn91  1  0.86050647  0.25067883  0.12677668  1
  Zn  Zn92  1  0.87053913  0.87815927  0.00087926  1
  Zn  Zn93  1  0.13122375  0.24847180  0.87275422  1
  Zn  Zn94  1  0.88127690  0.50752843  0.86861255  1
  Zn  Zn95  1  0.37790643  -0.00003830  0.37412553  1
  Zn  Zn96  1  0.12448855  0.75485364  0.37655814  1
  Zn  Zn97  1  0.37193833  0.62768500  0.25636327  1
  Zn  Zn98  1  0.37446046  -0.00848757  0.86994773  1
  Zn  Zn99  1  0.74878034  0.49745798  0.24299450  1
  Zn  Zn100  1  0.71849395  0.25033596  0.00849795  1
  Zn  Zn101  1  0.12816126  0.12638548  -0.00228311  1
  Zn  Zn102  1  0.25462731  0.25208094  0.49692282  1
  Zn  Zn103  1  0.49259030  0.74926841  0.74015663  1
  Zn  Zn104  1  0.12220896  0.12614078  0.49804989  1
  Zn  Zn105  1  -0.00378381  0.37312206  0.37049543  1
  Zn  Zn106  1  0.11747202  0.88037538  0.25960752  1
  Zn  Zn107  1  0.18655144  0.18778516  0.18740467  1
  Zn  Zn108  1  0.19133682  0.18815513  0.68564922  1
  Zn  Zn109  1  0.18147308  0.68817983  0.18906961  1
  Zn  Zn110  1  0.17622807  0.68803143  0.68291118  1
  Zn  Zn111  1  0.68518056  0.18830105  0.19039406  1
  Zn  Zn112  1  0.68494917  0.18910922  0.69408952  1
  Zn  Zn113  1  0.68440226  0.68255690  0.18922086  1
  Zn  Zn114  1  0.69157087  0.68788775  0.68627093  1
  Zn  Zn115  1  0.31237208  0.31733255  0.31148449  1
  Zn  Zn116  1  0.34585659  0.29728015  0.82566055  1
  Zn  Zn117  1  0.31421357  0.81393279  0.31430655  1
  Zn  Zn118  1  0.34367791  0.75272041  0.85568590  1
  Zn  Zn119  1  0.80224767  0.31488924  0.31692007  1
  Zn  Zn120  1  0.81174428  0.31636507  0.81539290  1
  Zn  Zn121  1  0.80854550  0.81411503  0.30763255  1
  Zn  Zn122  1  0.81241268  0.81403529  0.81472953  1
  Zn  Zn123  1  0.18587156  0.43676052  0.43681590  1
  Zn  Zn124  1  0.18955460  0.43972152  0.93733644  1
  Zn  Zn125  1  0.18818431  0.93368556  0.43497040  1
  Zn  Zn126  1  0.18654844  0.93705127  0.93540206  1
  Zn  Zn127  1  0.68502579  0.43132766  0.43956218  1
  Zn  Zn128  1  0.67761885  0.43577408  0.92860044  1
  Zn  Zn129  1  0.68938194  0.93491386  0.43537137  1
  Zn  Zn130  1  0.68840375  0.93427287  0.93905871  1
  Zn  Zn131  1  0.31705312  0.06328071  0.05819379  1
  Zn  Zn132  1  0.31300525  0.05745524  0.55778394  1
  Zn  Zn133  1  0.30924005  0.56750582  0.07075236  1
  Zn  Zn134  1  0.31218835  0.56071632  0.56421569  1
  Zn  Zn135  1  0.80969174  0.06966499  0.06471236  1
  Zn  Zn136  1  0.81480271  0.05727414  0.56373923  1
  Zn  Zn137  1  0.81191144  0.56133144  0.05713052  1
  Zn  Zn138  1  0.81350191  0.56366276  0.56465215  1
  Zn  Zn139  1  0.43816646  0.44173028  0.19335426  1
  Zn  Zn140  1  0.43902159  0.44784171  0.80647679  1
  Zn  Zn141  1  0.43937788  0.93660701  0.18962402  1
  Zn  Zn142  1  0.44511742  0.94179849  0.68686485  1
  Zn  Zn143  1  0.93337512  0.43548437  0.18352062  1
  Zn  Zn144  1  0.94061662  0.43737705  0.68764758  1
  Zn  Zn145  1  0.93475603  0.93731575  0.18340669  1
  Zn  Zn146  1  0.93783099  0.93595582  0.68466814  1
  Zn  Zn147  1  0.06734329  0.06024299  0.31142524  1
  Zn  Zn148  1  0.06980199  0.06105368  0.81335928  1
  Zn  Zn149  1  0.05892364  0.56393196  0.31324436  1
  Zn  Zn150  1  0.07337761  0.55952499  0.81511541  1
  Zn  Zn151  1  0.56120520  0.06467877  0.30813804  1
  Zn  Zn152  1  0.56666951  0.05246389  0.81263941  1
  Zn  Zn153  1  0.56100171  0.56276852  0.31175712  1
  Zn  Zn154  1  0.57072125  0.56595679  0.79874230  1
  Zn  Zn155  1  0.43787191  0.18853770  0.44255365  1
  Zn  Zn156  1  0.55227352  0.28347500  0.89672967  1
  Zn  Zn157  1  0.44040086  0.68369191  0.44214295  1
  Zn  Zn158  1  0.44233703  0.58258937  0.93293039  1
  Zn  Zn159  1  0.90266725  0.16168860  0.46569905  1
  Zn  Zn160  1  0.93649355  0.18964172  0.93724064  1
  Zn  Zn161  1  0.93210890  0.68333413  0.44240055  1
  Zn  Zn162  1  0.93647707  0.68691424  0.93529848  1
  Zn  Zn163  1  0.06723540  0.31531790  0.05998485  1
  Zn  Zn164  1  0.06355950  0.31146551  0.55915158  1
  Zn  Zn165  1  0.05824326  0.81613336  0.06548469  1
  Zn  Zn166  1  0.06095562  0.80901285  0.55925675  1
  Zn  Zn167  1  0.55642036  0.32142313  0.06707352  1
  Zn  Zn168  1  0.55772133  0.31507313  0.56478179  1
  Zn  Zn169  1  0.56327546  0.80927526  0.06275788  1
  Zn  Zn170  1  0.56620608  0.81360390  0.55836074  1
  O  O171  1  0.12028931  0.11536802  0.12213756  1
  O  O172  1  0.11742024  0.11776646  0.62179865  1
  O  O173  1  0.11278589  0.62528699  0.11801712  1
  O  O174  1  0.11659800  0.61659964  0.61459943  1
  O  O175  1  0.61099791  0.11591815  0.13064041  1
  O  O176  1  0.62282385  0.11362976  0.62748335  1
  O  O177  1  0.61205975  0.61421141  0.12916565  1
  O  O178  1  0.63341508  0.61318996  0.62004748  1
  O  O179  1  0.38813250  0.38331313  0.37056131  1
  O  O180  1  0.36330476  0.39408689  0.88544210  1
  O  O181  1  0.38894294  0.87560670  0.38196988  1
  O  O182  1  0.38378122  0.86516379  0.88624647  1
  O  O183  1  0.87433216  0.37892077  0.38502850  1
  O  O184  1  0.88578508  0.38019167  0.88299771  1
  O  O185  1  0.87198613  0.86870438  0.38806925  1
  O  O186  1  0.88224718  0.88317137  0.87761119  1
  O  O187  1  0.25389444  0.00852212  0.36746737  1
  O  O188  1  0.24924047  0.00209016  0.86379745  1
  O  O189  1  0.25892471  0.49310905  0.36920513  1
  O  O190  1  0.23382628  0.51866593  0.87025852  1
  O  O191  1  0.74742971  -0.00096423  0.36066929  1
  O  O192  1  0.75496206  0.00609810  0.87138015  1
  O  O193  1  0.75338293  0.50576657  0.37863011  1
  O  O194  1  0.74670241  0.49893012  0.85745560  1
  O  O195  1  0.24663969  0.49366079  0.13557556  1
  O  O196  1  0.23713171  0.49206968  0.61924162  1
  O  O197  1  0.24329322  0.99827462  0.12741561  1
  O  O198  1  0.23576791  1.00587289  0.62831873  1
  O  O199  1  0.73265348  0.50843859  0.12446736  1
  O  O200  1  0.74452051  0.49272030  0.62792826  1
  O  O201  1  0.74206031  0.99587569  0.13121962  1
  O  O202  1  0.74509350  0.99590755  0.63004874  1
  O  O203  1  0.01443326  0.38258697  0.24818488  1
  O  O204  1  0.00771574  0.37062150  0.75730900  1
  O  O205  1  -0.00368169  0.86040153  0.24365892  1
  O  O206  1  0.00681322  0.88173138  0.76078118  1
  O  O207  1  0.50723436  0.37557444  0.26031623  1
  O  O208  1  0.50780445  0.38400868  0.73790718  1
  O  O209  1  0.49590186  0.86138622  0.25912180  1
  O  O210  1  0.51099770  0.87223213  0.75177454  1
  O  O211  1  0.48628788  0.12639279  0.24158707  1
  O  O212  1  0.50230923  0.10736259  0.73576271  1
  O  O213  1  0.49861899  0.63787753  0.24591274  1
  O  O214  1  0.50934626  0.63252100  0.72630861  1
  O  O215  1  1.00264040  0.13011063  0.24073723  1
  O  O216  1  0.99818829  0.12976151  0.74774930  1
  O  O217  1  0.99142518  0.63213756  0.24357881  1
  O  O218  1  1.00803915  0.61732273  0.73646535  1
  O  O219  1  0.36243721  0.26664697  0.01482113  1
  O  O220  1  0.37091785  0.24249270  0.51787618  1
  O  O221  1  0.36230214  0.76303058  0.01093290  1
  O  O222  1  0.36959290  0.75639994  0.49727663  1
  O  O223  1  0.87919679  0.26766540  -0.00198393  1
  O  O224  1  0.88277286  0.26630796  0.51110850  1
  O  O225  1  0.86973018  0.75277076  0.01294415  1
  O  O226  1  0.86867127  0.75944435  0.50536083  1
  O  O227  1  0.12361904  0.24701147  0.48332060  1
  O  O228  1  0.14193398  0.25206415  0.99733957  1
  O  O229  1  0.13410827  0.74195718  0.50066840  1
  O  O230  1  0.12418790  0.74614567  0.99777557  1
  O  O231  1  0.62267975  0.25585582  0.48626431  1
  O  O232  1  0.60884709  0.26392672  0.98837023  1
  O  O233  1  0.64140508  0.75620962  0.48900433  1
  O  O234  1  0.63125736  0.75659543  0.98707751  1
  O  O235  1  0.48965430  0.24385354  0.12707149  1
  O  O236  1  0.48856459  0.24046287  0.62098853  1
  O  O237  1  0.49860713  0.74440931  0.13486820  1
  O  O238  1  0.50688146  0.73621914  0.61819742  1
  O  O239  1  1.00482674  0.23797893  0.11724802  1
  O  O240  1  0.99684114  0.24350695  0.63062672  1
  O  O241  1  0.98879523  0.74602803  0.13055512  1
  O  O242  1  0.99167607  0.73815597  0.62073248  1
  O  O243  1  0.00484665  0.24843371  0.36366839  1
  O  O244  1  0.00503787  0.26125691  0.87173002  1
  O  O245  1  -0.00827614  0.74268876  0.36013597  1
  O  O246  1  0.00761471  0.76700855  0.88541737  1
  O  O247  1  0.50501514  0.25771829  0.37632387  1
  O  O248  1  0.45506989  0.26110355  0.85495504  1
  O  O249  1  0.50865361  0.75290148  0.37221692  1
  O  O250  1  0.51059442  0.75715035  0.86248912  1
  O  O251  1  0.24828418  0.12278455  0.48498866  1
  O  O252  1  0.25284295  0.13435913  0.99295582  1
  O  O253  1  0.24080451  0.63412980  0.50759496  1
  O  O254  1  0.23273304  0.63312973  1.01240809  1
  O  O255  1  0.78502990  0.13303170  0.48580050  1
  O  O256  1  0.74896301  0.12569974  0.98424854  1
  O  O257  1  0.75873858  0.63538519  0.49058319  1
  O  O258  1  0.75110676  0.64124049  1.00127443  1
  O  O259  1  0.25709716  0.37524252  0.00857793  1
  O  O260  1  0.24328075  0.37305937  0.51309303  1
  O  O261  1  0.25485971  0.87494552  0.00933643  1
  O  O262  1  0.26666026  0.86874255  0.49546139  1
  O  O263  1  0.76002441  0.37377046  -0.01198341  1
  O  O264  1  0.75737506  0.37154874  0.51255152  1
  O  O265  1  0.75146714  0.86598380  0.01001300  1
  O  O266  1  0.76169917  0.86966606  0.50380857  1
  O  O267  1  0.13100519  0.49477125  0.25263162  1
  O  O268  1  0.12037563  0.48887739  0.73755370  1
  O  O269  1  0.13290078  0.99996442  0.24011562  1
  O  O270  1  0.13362534  0.98728540  0.74355767  1
  O  O271  1  0.62515922  0.49456933  0.24507733  1
  O  O272  1  0.63697982  0.49124695  0.73364010  1
  O  O273  1  0.62362859  0.99591013  0.23916288  1
  O  O274  1  0.63250004  0.98778767  0.74008047  1
  O  O275  1  0.37027365  0.00970333  0.24991458  1
  O  O276  1  0.35846837  -0.01357541  0.74780905  1
  O  O277  1  0.36510535  0.50272059  0.26029620  1
  O  O278  1  0.35812756  0.51455436  0.75946883  1
  O  O279  1  0.86354620  0.00099673  0.24661331  1
  O  O280  1  0.87075712  0.00591553  0.75520636  1
  O  O281  1  0.87043921  0.50302087  0.25483830  1
  O  O282  1  0.85933323  0.49130167  0.74841115  1
  O  O283  1  0.12046193  0.36768585  0.36787553  1
  O  O284  1  0.12153629  0.37357110  0.86658398  1
  O  O285  1  0.12473508  0.86898042  0.37184177  1
  O  O286  1  0.11661078  0.87193817  0.86715054  1
  O  O287  1  0.61341709  0.36943984  0.37026545  1
  O  O288  1  0.61761819  0.37570883  0.85349687  1
  O  O289  1  0.61350469  0.86579202  0.37905082  1
  O  O290  1  0.62137027  0.87114009  0.86457424  1
  O  O291  1  0.37806497  0.13528533  0.12940950  1
  O  O292  1  0.38742597  0.11975077  0.62097010  1
  O  O293  1  0.38481379  0.63274001  0.13194796  1
  O  O294  1  0.38801994  0.62570937  0.62173424  1
  O  O295  1  0.88746138  0.13145112  0.12130526  1
  O  O296  1  0.88300253  0.12940945  0.63487753  1
  O  O297  1  0.87721531  0.63151452  0.12946926  1
  O  O298  1  0.88504426  0.63403045  0.62026575  1
  O  O299  1  0.25446108  0.25845614  0.12097603  1
  O  O300  1  0.25388762  0.25675332  0.61757474  1
  O  O301  1  0.25111430  0.75844094  0.12536520  1
  O  O302  1  0.25095917  0.75629076  0.61887446  1
  O  O303  1  0.74835300  0.24122249  0.11680718  1
  O  O304  1  0.75565137  0.25547232  0.62479616  1
  O  O305  1  0.75131923  0.75626472  0.12343213  1
  O  O306  1  0.75687496  0.75403604  0.61529637  1
  O  O307  1  0.24552074  0.24469280  0.37601496  1
  O  O308  1  0.25674763  0.24153485  0.88201802  1
  O  O309  1  0.25040267  0.74839259  0.38609234  1
  O  O310  1  0.23167195  0.76015193  0.89005791  1
  O  O311  1  0.73318464  0.24690211  0.37897627  1
  O  O312  1  0.75206249  0.23725465  0.87583246  1
  O  O313  1  0.74465926  0.74395321  0.37830700  1
  O  O314  1  0.74352024  0.75462226  0.88482506  1
  O  O315  1  0.00341366  0.11657613  0.00352448  1
  O  O316  1  -0.00369734  0.11232668  0.51038957  1
  O  O317  1  0.00493635  0.61630945  0.00544366  1
  O  O318  1  0.00341755  0.61362075  0.50608914  1
  O  O319  1  0.49035870  0.10986576  0.01163232  1
  O  O320  1  0.49861258  0.10926810  0.50461922  1
  O  O321  1  0.49603537  0.63634488  0.01923443  1
  O  O322  1  0.50245723  0.61349730  0.50930788  1
  O  O323  1  0.50345133  0.38959613  0.49392473  1
  O  O324  1  0.47526679  0.37998232  1.00343653  1
  O  O325  1  0.49357672  0.88175091  0.49394926  1
  O  O326  1  0.49313428  0.87727738  0.99660284  1
  O  O327  1  0.99433480  0.38687421  0.49928586  1
  O  O328  1  1.00185270  0.38491461  0.99278531  1
  O  O329  1  0.98766524  0.87878411  0.50195688  1
  O  O330  1  0.99698437  0.88854310  0.99549516  1
  O  O331  1  0.49535810  0.49557689  0.38380074  1
  O  O332  1  0.50334794  0.51476005  0.87025124  1
  O  O333  1  0.50262454  0.99194837  0.37910393  1
  O  O334  1  0.49821025  0.98839197  0.88299650  1
  O  O335  1  0.99061869  0.49896340  0.38356070  1
  O  O336  1  1.00334140  0.48942363  0.88155245  1
  O  O337  1  1.00421461  1.00594034  0.38825700  1
  O  O338  1  0.99753680  0.99432318  0.88271614  1
  O  O339  1  0.00565536  0.00681920  0.11831312  1
  O  O340  1  0.01067571  0.00412936  0.62165143  1
  O  O341  1  0.00062034  0.50561000  0.11581948  1
  O  O342  1  0.00749723  0.50356551  0.61733014  1
  O  O343  1  0.50589096  0.00305180  0.12008017  1
  O  O344  1  0.51019547  0.00398139  0.61518177  1
  O  O345  1  0.50389091  0.51545885  0.13033477  1
  O  O346  1  0.51558076  0.51374881  0.61844460  1
  O  O347  1  0.24127700  0.38481954  0.24458998  1
  O  O348  1  0.24003142  0.36818942  0.73760823  1
  O  O349  1  0.25156012  0.88256786  0.24314594  1
  O  O350  1  0.24245707  0.87600745  0.73408153  1
  O  O351  1  0.73174454  0.37911054  0.25483699  1
  O  O352  1  0.74654125  0.38041071  0.73904417  1
  O  O353  1  0.75136014  0.88824386  0.24117044  1
  O  O354  1  0.74621489  0.88284860  0.74426929  1
  O  O355  1  0.25992227  0.12219600  0.25628784  1
  O  O356  1  0.24133934  0.11186259  0.75623779  1
  O  O357  1  0.24769487  0.61277350  0.24649099  1
  O  O358  1  0.24531486  0.63465973  0.75299045  1
  O  O359  1  0.74264463  0.10664079  0.25363735  1
  O  O360  1  0.75590220  0.12039162  0.75840297  1
  O  O361  1  0.75606469  0.62284555  0.25976212  1
  O  O362  1  0.74982558  0.60731960  0.74490185  1
  O  O363  1  0.37025419  0.12646535  0.36581488  1
  O  O364  1  0.36053515  0.11038267  0.87005430  1
  O  O365  1  0.38037433  0.61021239  0.37444606  1
  O  O366  1  0.35977989  0.63930019  0.87471004  1
  O  O367  1  0.88364178  0.14148488  0.35353418  1
  O  O368  1  0.87052219  0.12015916  0.86979638  1
  O  O369  1  0.86437565  0.61807334  0.37078229  1
  O  O370  1  0.87125322  0.62007155  0.87772228  1
  O  O371  1  0.13601108  0.37724627  0.13162733  1
  O  O372  1  0.12920424  0.38113248  0.62957809  1
  O  O373  1  0.12775851  0.88789274  0.12868234  1
  O  O374  1  0.11536386  0.88201410  0.63219836  1
  O  O375  1  0.61237142  0.39375218  0.13565183  1
  O  O376  1  0.63111954  0.38308770  0.62857433  1
  O  O377  1  0.63475558  0.88114619  0.12264557  1
  O  O378  1  0.63391432  0.88085185  0.62954654  1
  O  O379  1  0.13247013  0.25957476  0.26051995  1
  O  O380  1  0.11982534  0.25789299  0.75030021  1
  O  O381  1  0.10645644  0.74921933  0.25151735  1
  O  O382  1  0.12510438  0.76252578  0.75850098  1
  O  O383  1  0.61903731  0.25867496  0.26214145  1
  O  O384  1  0.61881625  0.26837902  0.73980650  1
  O  O385  1  0.62005779  0.74754480  0.26355249  1
  O  O386  1  0.63324015  0.76255915  0.75267450  1
  O  O387  1  0.37372919  0.24605937  0.23904955  1
  O  O388  1  0.36257153  0.23666368  0.72623463  1
  O  O389  1  0.38260854  0.74822749  0.24628829  1
  O  O390  1  0.36861065  0.76660508  0.74155765  1
  O  O391  1  0.88240468  0.26345606  0.24660655  1
  O  O392  1  0.88278708  0.24735674  0.74731659  1
  O  O393  1  0.87937070  0.74574586  0.24045123  1
  O  O394  1  0.86924242  0.75490040  0.73574366  1
  O  O395  1  0.38394398  0.50069694  0.49467515  1
  O  O396  1  0.37254045  0.50131287  1.00181550  1
  O  O397  1  0.38488700  0.98951776  0.49604732  1
  O  O398  1  0.38322698  0.98554216  1.00046285  1
  O  O399  1  0.88072841  0.48998655  0.49878504  1
  O  O400  1  0.88278749  0.48916055  0.99771244  1
  O  O401  1  0.88481569  0.98297160  0.50499694  1
  O  O402  1  0.88236848  1.00104779  0.99565684  1
  O  O403  1  0.11716752  0.00125826  0.00690398  1
  O  O404  1  0.11877735  -0.00023908  0.50684745  1
  O  O405  1  0.11644634  0.50856962  0.00254316  1
  O  O406  1  0.11710759  0.50495199  0.50451037  1
  O  O407  1  0.61241828  -0.00831101  0.00878998  1
  O  O408  1  0.61951624  -0.00767788  0.50875131  1
  O  O409  1  0.62499457  0.49423484  0.01269461  1
  O  O410  1  0.62148017  0.49488689  0.51260734  1
  O  O411  1  0.36478852  0.37432436  0.12668731  1
  O  O412  1  0.36696757  0.36126926  0.62711012  1
  O  O413  1  0.37013932  0.87037098  0.12137246  1
  O  O414  1  0.37306220  0.87465347  0.61917134  1
  O  O415  1  0.87614911  0.37325745  0.10621704  1
  O  O416  1  0.86806709  0.37152109  0.62093290  1
  O  O417  1  0.86272197  0.86722055  0.12357054  1
  O  O418  1  0.87026661  0.86736836  0.61842366  1
  O  O419  1  0.13607158  0.13265789  0.37162486  1
  O  O420  1  0.13853848  0.12703843  0.87863328  1
  O  O421  1  0.11796056  0.62909830  0.38915202  1
  O  O422  1  0.11215045  0.63990250  0.88687736  1
  O  O423  1  0.61954407  0.14005667  0.37269017  1
  O  O424  1  0.63755800  0.12260527  0.86783711  1
  O  O425  1  0.63634129  0.63029601  0.37397726  1
  O  O426  1  0.63641403  0.64047912  0.86349911  1
