# generated using pymatgen
data_V85Zn86O256
_symmetry_space_group_name_H-M   'P 1'
_cell_length_a   16.91719274
_cell_length_b   16.91987591
_cell_length_c   16.90830009
_cell_angle_alpha   90.01387805
_cell_angle_beta   90.04464542
_cell_angle_gamma   90.06561632
_symmetry_Int_Tables_number   1
_chemical_formula_structural   V85Zn86O256
_chemical_formula_sum   'V85 Zn86 O256'
_cell_volume   4839.77295734
_cell_formula_units_Z   1
loop_
 _symmetry_equiv_pos_site_id
 _symmetry_equiv_pos_as_xyz
  1  'x, y, z'
loop_
 _atom_site_type_symbol
 _atom_site_label
 _atom_site_symmetry_multiplicity
 _atom_site_fract_x
 _atom_site_fract_y
 _atom_site_fract_z
 _atom_site_occupancy
  V  V0  1  0.75523552  0.24556707  0.00414619  1
  V  V1  1  -0.00306143  0.12651234  0.12429699  1
  V  V2  1  -0.00024749  -0.00007467  -0.00151424  1
  V  V3  1  0.86730332  0.36202008  0.49723827  1
  V  V4  1  0.12227293  0.24880519  0.86689045  1
  V  V5  1  0.62562640  0.87574935  0.25007153  1
  V  V6  1  0.12465599  0.62493120  0.00070841  1
  V  V7  1  0.12801405  0.00542017  0.62384234  1
  V  V8  1  0.37697151  0.63138164  0.74853406  1
  V  V9  1  -0.00320185  0.36961448  0.86687642  1
  V  V10  1  0.87583275  0.00267017  0.37627453  1
  V  V11  1  0.87794976  0.50257973  0.37939831  1
  V  V12  1  0.62575915  0.25471038  0.38280995  1
  V  V13  1  0.75361368  0.74438170  0.00485819  1
  V  V14  1  0.49874941  0.62682245  0.12559625  1
  V  V15  1  0.74933975  0.13087136  0.38793051  1
  V  V16  1  0.87015665  0.24384517  0.64289497  1
  V  V17  1  0.26292494  0.75170487  0.00367942  1
  V  V18  1  0.12660852  0.12527401  -0.00152100  1
  V  V19  1  0.12017436  0.49704032  0.61828637  1
  V  V20  1  0.62049319  0.74972364  0.87208462  1
  V  V21  1  0.50620671  0.37850221  0.37045633  1
  V  V22  1  0.00044521  0.87364377  0.87373749  1
  V  V23  1  0.12419749  0.76094920  0.36884469  1
  V  V24  1  0.12588571  0.49804135  0.12666963  1
  V  V25  1  0.75035515  0.00407062  0.24847064  1
  V  V26  1  0.37240288  0.63050582  0.24635343  1
  V  V27  1  0.49499513  0.12662646  0.12113655  1
  V  V28  1  0.00277679  0.00915212  0.50104724  1
  V  V29  1  0.37210945  0.13193530  0.24533604  1
  V  V30  1  0.49756516  0.11472541  0.64062514  1
  V  V31  1  0.00310189  0.13236475  0.63830917  1
  V  V32  1  0.12547647  -0.00944777  0.12577143  1
  V  V33  1  0.75199048  0.87354425  0.12359353  1
  V  V34  1  0.24713698  0.12513549  0.37848293  1
  V  V35  1  -0.00302086  0.49969687  -0.00003462  1
  V  V36  1  0.12458997  0.75010618  0.87483085  1
  V  V37  1  0.24825742  0.87316160  0.62644023  1
  V  V38  1  0.49693951  0.75334674  0.24704878  1
  V  V39  1  0.74809053  0.36975246  0.13183438  1
  V  V40  1  0.37797107  0.88199002  0.50294490  1
  V  V41  1  0.87228982  0.13112880  0.24449787  1
  V  V42  1  0.49377692  0.87662241  0.89237983  1
  V  V43  1  0.24758406  0.49824462  0.74693748  1
  V  V44  1  0.26556713  0.87012157  0.12516792  1
  V  V45  1  0.00197856  0.38044802  0.38121551  1
  V  V46  1  0.75228904  0.62101366  0.86367912  1
  V  V47  1  0.74868044  -0.00492903  0.74166938  1
  V  V48  1  0.60796613  0.11394589  0.50151080  1
  V  V49  1  0.86927625  0.75115773  0.61610235  1
  V  V50  1  0.87601312  0.00134544  0.86777597  1
  V  V51  1  0.63014789  0.75370386  0.38192353  1
  V  V52  1  0.37591403  0.00760020  0.88334229  1
  V  V53  1  0.24855001  0.62533144  0.87504786  1
  V  V54  1  0.11819074  0.62526389  0.49733409  1
  V  V55  1  0.62456649  0.49351327  0.13379550  1
  V  V56  1  0.75273390  0.62926493  0.37822398  1
  V  V57  1  0.12543487  0.24886225  0.38124162  1
  V  V58  1  0.00016056  0.25225350  0.24640217  1
  V  V59  1  0.50094021  0.49654084  -0.00226106  1
  V  V60  1  0.24775829  0.62602632  0.37488840  1
  V  V61  1  0.61943262  -0.00021514  0.12195730  1
  V  V62  1  0.87542814  0.37120985  0.00597499  1
  V  V63  1  0.24787403  -0.00317627  0.25025719  1
  V  V64  1  0.25483262  0.24777887  0.50357543  1
  V  V65  1  0.62069208  0.24907663  0.86746582  1
  V  V66  1  0.50334785  0.25505685  0.24478067  1
  V  V67  1  0.25210613  0.24836892  0.00683554  1
  V  V68  1  0.75298403  0.12381186  0.86618391  1
  V  V69  1  -0.00842928  0.74570535  0.74978265  1
  V  V70  1  0.62455471  0.12010973  -0.00051715  1
  V  V71  1  0.49998534  0.63000481  0.62731947  1
  V  V72  1  -0.00543881  0.62085378  0.62655389  1
  V  V73  1  0.63674815  0.50156522  0.63010738  1
  V  V74  1  0.50381579  0.50498730  0.50085429  1
  V  V75  1  0.37506190  0.37075414  0.00722636  1
  V  V76  1  0.61505987  0.87424933  0.74441302  1
  V  V77  1  0.86951598  0.50003854  0.86266911  1
  V  V78  1  0.87530958  0.87038918  0.00288883  1
  V  V79  1  0.62647821  0.62212532  0.00002434  1
  V  V80  1  0.37477986  0.50152929  0.37518545  1
  V  V81  1  0.49980018  0.88482264  0.37792134  1
  V  V82  1  0.37416172  0.49900556  0.87465954  1
  V  V83  1  -0.00796072  0.75878674  0.24337057  1
  V  V84  1  0.38527565  0.25216257  0.64087293  1
  Zn  Zn85  1  0.11992528  0.37114240  0.74436003  1
  Zn  Zn86  1  0.25994403  0.00348945  0.74969523  1
  Zn  Zn87  1  -0.00704733  0.63167738  0.12385664  1
  Zn  Zn88  1  0.87128505  0.87706431  0.49895153  1
  Zn  Zn89  1  0.00377919  0.88199708  0.37414655  1
  Zn  Zn90  1  0.37807226  0.00541242  0.37888774  1
  Zn  Zn91  1  0.37649909  0.37492413  0.50213580  1
  Zn  Zn92  1  0.12535564  0.87404084  0.74826074  1
  Zn  Zn93  1  0.25000291  0.75052036  0.50076532  1
  Zn  Zn94  1  0.74834067  0.36843825  0.62730923  1
  Zn  Zn95  1  0.25040286  0.37276510  0.62456912  1
  Zn  Zn96  1  0.37615092  0.75165112  0.62455969  1
  Zn  Zn97  1  0.24813297  0.49817818  0.25001152  1
  Zn  Zn98  1  0.75020362  0.49783541  0.25273311  1
  Zn  Zn99  1  0.74219516  0.87375104  0.61708223  1
  Zn  Zn100  1  0.12786579  0.37550268  0.25120450  1
  Zn  Zn101  1  0.25176314  0.37020137  0.13060067  1
  Zn  Zn102  1  0.25820926  0.12968763  0.86864977  1
  Zn  Zn103  1  0.49283210  0.36385789  0.86717545  1
  Zn  Zn104  1  0.63262292  0.63111072  0.50246846  1
  Zn  Zn105  1  0.62588428  0.37781885  0.75017250  1
  Zn  Zn106  1  0.87204276  0.62683355  0.24133024  1
  Zn  Zn107  1  0.18277317  0.18628833  0.18794435  1
  Zn  Zn108  1  0.19207394  0.18395918  0.68714619  1
  Zn  Zn109  1  0.18327047  0.68820598  0.18799482  1
  Zn  Zn110  1  0.18415943  0.68761022  0.68681702  1
  Zn  Zn111  1  0.68375924  0.19043725  0.19072802  1
  Zn  Zn112  1  0.68574057  0.18308976  0.68346142  1
  Zn  Zn113  1  0.68841455  0.68533304  0.19083268  1
  Zn  Zn114  1  0.68544907  0.68863136  0.68796777  1
  Zn  Zn115  1  0.31553346  0.31383222  0.31193898  1
  Zn  Zn116  1  0.30798725  0.31410916  0.81704461  1
  Zn  Zn117  1  0.31226918  0.81497704  0.31335295  1
  Zn  Zn118  1  0.31321977  0.81564634  0.81208435  1
  Zn  Zn119  1  0.81288816  0.31095039  0.31341767  1
  Zn  Zn120  1  0.80405002  0.31807139  0.81192311  1
  Zn  Zn121  1  0.81284962  0.81617368  0.31440946  1
  Zn  Zn122  1  0.80972648  0.81012468  0.81097559  1
  Zn  Zn123  1  0.18896410  0.43588849  0.43951296  1
  Zn  Zn124  1  0.18658182  0.43400091  0.93775194  1
  Zn  Zn125  1  0.19002712  0.94096192  0.44391227  1
  Zn  Zn126  1  0.19321341  0.93551330  0.93932756  1
  Zn  Zn127  1  0.68988157  0.44145062  0.44107654  1
  Zn  Zn128  1  0.68941913  0.43452372  0.93923551  1
  Zn  Zn129  1  0.69079673  0.93942309  0.44046267  1
  Zn  Zn130  1  0.68736000  0.93575357  0.93390816  1
  Zn  Zn131  1  0.31520178  0.05712398  0.05691978  1
  Zn  Zn132  1  0.31787602  0.06546573  0.56595056  1
  Zn  Zn133  1  0.31202771  0.56233627  0.06334992  1
  Zn  Zn134  1  0.30983800  0.56366483  0.56110132  1
  Zn  Zn135  1  0.81261340  0.06003784  0.06020191  1
  Zn  Zn136  1  0.81430074  0.06774771  0.56269067  1
  Zn  Zn137  1  0.81299776  0.55873306  0.06285243  1
  Zn  Zn138  1  0.81849547  0.56249622  0.55480623  1
  Zn  Zn139  1  0.43665479  0.43945639  0.18870177  1
  Zn  Zn140  1  0.44205448  0.43703173  0.68888467  1
  Zn  Zn141  1  0.43638403  0.94312197  0.18970458  1
  Zn  Zn142  1  0.43710936  0.93784836  0.69336115  1
  Zn  Zn143  1  0.93614284  0.43927328  0.18943988  1
  Zn  Zn144  1  0.93525291  0.43413931  0.68220792  1
  Zn  Zn145  1  0.93876785  0.93697862  0.18885674  1
  Zn  Zn146  1  0.93989800  0.93571562  0.68639146  1
  Zn  Zn147  1  0.06494235  0.06493734  0.31104529  1
  Zn  Zn148  1  0.06911463  0.06157570  0.80905779  1
  Zn  Zn149  1  0.05735033  0.56727834  0.30896909  1
  Zn  Zn150  1  0.06000864  0.55998760  0.81005782  1
  Zn  Zn151  1  0.56381389  0.06726241  0.31016341  1
  Zn  Zn152  1  0.56166526  0.05424284  0.81560599  1
  Zn  Zn153  1  0.56454416  0.56747489  0.31329666  1
  Zn  Zn154  1  0.56150715  0.56083639  0.81064782  1
  Zn  Zn155  1  0.43442781  0.19100795  0.43638445  1
  Zn  Zn156  1  0.43883901  0.18665178  0.94201075  1
  Zn  Zn157  1  0.43774385  0.69427767  0.43686894  1
  Zn  Zn158  1  0.43988032  0.68659583  0.93488376  1
  Zn  Zn159  1  0.94146034  0.18569576  0.43821435  1
  Zn  Zn160  1  0.93630462  0.18649514  0.93348288  1
  Zn  Zn161  1  0.94159813  0.68754304  0.43504304  1
  Zn  Zn162  1  0.93453248  0.68415426  0.93713770  1
  Zn  Zn163  1  0.06352246  0.31291255  0.06138583  1
  Zn  Zn164  1  0.06014936  0.30965540  0.56025634  1
  Zn  Zn165  1  0.06708411  0.81286130  0.06116833  1
  Zn  Zn166  1  0.05846182  0.81605475  0.55806008  1
  Zn  Zn167  1  0.56525973  0.30954660  0.05802005  1
  Zn  Zn168  1  0.55947366  0.31495820  0.56146120  1
  Zn  Zn169  1  0.56588879  0.80817790  0.06406919  1
  Zn  Zn170  1  0.55873039  0.81474588  0.56123551  1
  O  O171  1  0.11974650  0.11642971  0.11405023  1
  O  O172  1  0.11167913  0.12139139  0.62573189  1
  O  O173  1  0.11957293  0.61785222  0.11687463  1
  O  O174  1  0.11641198  0.61997545  0.61679746  1
  O  O175  1  0.62005341  0.11830077  0.11943214  1
  O  O176  1  0.60926584  0.13299732  0.61055558  1
  O  O177  1  0.61948319  0.61636234  0.11983303  1
  O  O178  1  0.61928628  0.61956253  0.62220645  1
  O  O179  1  0.38705758  0.38537476  0.37541610  1
  O  O180  1  0.37464907  0.38218900  0.88601861  1
  O  O181  1  0.38329770  0.87821414  0.38111390  1
  O  O182  1  0.39207509  0.86621405  0.87869584  1
  O  O183  1  0.87904930  0.37710149  0.38344582  1
  O  O184  1  0.87852530  0.37768713  0.88536752  1
  O  O185  1  0.87598963  0.89383556  0.37252599  1
  O  O186  1  0.87900666  0.87941743  0.88444559  1
  O  O187  1  0.24835418  0.00757759  0.36735265  1
  O  O188  1  0.26328647  -0.00120351  0.87650117  1
  O  O189  1  0.25864390  0.50670940  0.37482534  1
  O  O190  1  0.25192049  0.50613784  0.86881531  1
  O  O191  1  0.75626049  0.01176655  0.36739462  1
  O  O192  1  0.75753726  0.00450722  0.86870398  1
  O  O193  1  0.75663337  0.50743546  0.37284227  1
  O  O194  1  0.75720801  0.50805024  0.88212012  1
  O  O195  1  0.23633651  0.49986675  0.12438812  1
  O  O196  1  0.24231143  0.49812810  0.63115974  1
  O  O197  1  0.24602764  0.99056108  0.12885074  1
  O  O198  1  0.24357246  0.99520257  0.62469910  1
  O  O199  1  0.74004624  0.48890518  0.12416853  1
  O  O200  1  0.73806065  0.50519887  0.61726495  1
  O  O201  1  0.74006583  0.99626927  0.12892660  1
  O  O202  1  0.75767127  1.00169299  0.63901527  1
  O  O203  1  -0.00153345  0.36591716  0.26047249  1
  O  O204  1  0.00025341  0.37880653  0.76357471  1
  O  O205  1  0.00044288  0.86546994  0.25436703  1
  O  O206  1  0.00217404  0.86534532  0.75731592  1
  O  O207  1  0.49628863  0.36730369  0.25640647  1
  O  O208  1  0.51240871  0.38725003  0.75903861  1
  O  O209  1  0.50389136  0.87000049  0.25326004  1
  O  O210  1  0.51307024  0.87473305  0.75978167  1
  O  O211  1  0.49220922  0.13137765  0.24199003  1
  O  O212  1  0.50903926  0.12242504  0.73956050  1
  O  O213  1  0.49335501  0.63378930  0.24716427  1
  O  O214  1  0.48884825  0.61841833  0.74081034  1
  O  O215  1  0.99295838  0.13173712  0.24528667  1
  O  O216  1  0.99924053  0.12205302  0.73714658  1
  O  O217  1  0.99601484  0.64239455  0.24817984  1
  O  O218  1  1.00399224  0.63262356  0.73905906  1
  O  O219  1  0.36597310  0.25848175  -0.00442533  1
  O  O220  1  0.36880381  0.25373153  0.50730917  1
  O  O221  1  0.36192929  0.73987203  0.00048264  1
  O  O222  1  0.37125284  0.76374511  0.50050157  1
  O  O223  1  0.86352013  0.25453306  -0.00357534  1
  O  O224  1  0.87472472  0.25980195  0.49748985  1
  O  O225  1  0.86672977  0.75869390  -0.00397357  1
  O  O226  1  0.88421471  0.75288951  0.51292341  1
  O  O227  1  0.13263897  0.25221032  0.48782754  1
  O  O228  1  0.12947335  0.24171133  0.99411335  1
  O  O229  1  0.12309280  0.74360685  0.48739698  1
  O  O230  1  0.13009491  0.74246144  0.99260477  1
  O  O231  1  0.61700543  0.24257275  0.48725031  1
  O  O232  1  0.63564415  0.23692526  0.99383256  1
  O  O233  1  0.61980442  0.75061672  0.48571615  1
  O  O234  1  0.63317141  0.74221840  0.99341811  1
  O  O235  1  0.50748541  0.24086132  0.13289355  1
  O  O236  1  0.48919368  0.24583514  0.62412463  1
  O  O237  1  0.50640600  0.74421941  0.13871383  1
  O  O238  1  0.49822378  0.73443886  0.61957759  1
  O  O239  1  1.00707396  0.24516908  0.13857103  1
  O  O240  1  0.99226030  0.23857760  0.62253622  1
  O  O241  1  1.00825940  0.75376115  0.13993274  1
  O  O242  1  0.99477025  0.74367378  0.63174656  1
  O  O243  1  0.00843798  0.25257629  0.36775495  1
  O  O244  1  0.00801456  0.25848068  0.88171403  1
  O  O245  1  0.00966415  0.75561328  0.36744468  1
  O  O246  1  0.00329140  0.75180953  0.86928347  1
  O  O247  1  0.50349899  0.26093202  0.36902780  1
  O  O248  1  0.51677095  0.24662888  0.88197214  1
  O  O249  1  0.50773544  0.76005886  0.36424553  1
  O  O250  1  0.51296756  0.75713966  0.88052377  1
  O  O251  1  0.25667514  0.13583006  0.49138949  1
  O  O252  1  0.24232529  0.12973036  0.99648464  1
  O  O253  1  0.23832870  0.62842829  0.49379718  1
  O  O254  1  0.24292150  0.63033279  0.99624548  1
  O  O255  1  0.73933239  0.12327376  0.49079327  1
  O  O256  1  0.74576217  0.12898393  0.99257448  1
  O  O257  1  0.75077256  0.62498938  0.48431865  1
  O  O258  1  0.74400930  0.63032514  0.99521612  1
  O  O259  1  0.25706332  0.36692803  0.00248742  1
  O  O260  1  0.25404235  0.36193605  0.50062333  1
  O  O261  1  0.24730470  0.86548287  0.01511203  1
  O  O262  1  0.25647760  0.87354343  0.51130653  1
  O  O263  1  0.75732099  0.36483771  0.00718294  1
  O  O264  1  0.76377594  0.37525707  0.50443366  1
  O  O265  1  0.75635312  0.86715986  0.00234093  1
  O  O266  1  0.75666920  0.88034674  0.50524809  1
  O  O267  1  0.12307541  0.50019835  0.23936059  1
  O  O268  1  0.13107233  0.50022428  0.73797876  1
  O  O269  1  0.13843560  1.00874646  0.23977556  1
  O  O270  1  0.12268375  0.99332155  0.73459641  1
  O  O271  1  0.62385457  0.50175892  0.23708335  1
  O  O272  1  0.62672409  0.50703509  0.73246416  1
  O  O273  1  0.63108342  0.99690264  0.24240867  1
  O  O274  1  0.63381643  0.98231334  0.75856443  1
  O  O275  1  0.36342322  0.01227613  0.25152891  1
  O  O276  1  0.37512268  -0.01444825  0.77535650  1
  O  O277  1  0.37669585  0.50953320  0.26197929  1
  O  O278  1  0.36565923  0.50697841  0.75466969  1
  O  O279  1  0.87276987  0.01208349  0.25571538  1
  O  O280  1  0.86827409  -0.01015635  0.76219770  1
  O  O281  1  0.87309576  0.49842169  0.26522148  1
  O  O282  1  0.87844836  0.49352571  0.76346836  1
  O  O283  1  0.11726044  0.36936722  0.37440078  1
  O  O284  1  0.11425532  0.36626002  0.87600171  1
  O  O285  1  0.12733460  0.86353797  0.37995429  1
  O  O286  1  0.11855444  0.86760741  0.87651553  1
  O  O287  1  0.61505666  0.37158805  0.37992649  1
  O  O288  1  0.62753002  0.35581344  0.88177206  1
  O  O289  1  0.61966836  0.87258623  0.36908145  1
  O  O290  1  0.61755291  0.86727131  0.87080360  1
  O  O291  1  0.38455175  0.11899549  0.13003406  1
  O  O292  1  0.38878832  0.13763813  0.62438849  1
  O  O293  1  0.38128601  0.61808729  0.13897944  1
  O  O294  1  0.38096016  0.62380539  0.63158163  1
  O  O295  1  0.88162031  0.11895757  0.13347885  1
  O  O296  1  0.88530076  0.13775454  0.62338397  1
  O  O297  1  0.87968547  0.61902729  0.12668673  1
  O  O298  1  0.88713602  0.63333389  0.61757508  1
  O  O299  1  0.24239034  0.24927055  0.11170181  1
  O  O300  1  0.26018292  0.24941371  0.61861655  1
  O  O301  1  0.24428575  0.76296120  0.12119295  1
  O  O302  1  0.25000563  0.75840082  0.62287898  1
  O  O303  1  0.74343695  0.25500118  0.11596880  1
  O  O304  1  0.76609322  0.24439977  0.62575316  1
  O  O305  1  0.74207750  0.75560488  0.11239212  1
  O  O306  1  0.76720839  0.74576926  0.62887986  1
  O  O307  1  0.24553528  0.24470762  0.38042333  1
  O  O308  1  0.23970136  0.24985526  0.88733886  1
  O  O309  1  0.23836949  0.74538658  0.37388463  1
  O  O310  1  0.24444872  0.74607681  0.88243801  1
  O  O311  1  0.73831138  0.24223528  0.36822654  1
  O  O312  1  0.74382754  0.23967431  0.88235227  1
  O  O313  1  0.74106251  0.74513811  0.36814229  1
  O  O314  1  0.74292747  0.74403035  0.88573899  1
  O  O315  1  0.00489977  0.11961554  0.00496399  1
  O  O316  1  -0.00206732  0.11523348  0.50947589  1
  O  O317  1  0.00626651  0.61565467  -0.00091256  1
  O  O318  1  0.01177569  0.62689556  0.50681992  1
  O  O319  1  0.50997308  0.12765589  0.01236534  1
  O  O320  1  0.50546791  0.12332451  0.49817588  1
  O  O321  1  0.50460191  0.61791129  0.00654806  1
  O  O322  1  0.49942184  0.61679618  0.50271822  1
  O  O323  1  0.49799498  0.39006020  0.49170140  1
  O  O324  1  0.49360723  0.38066479  0.99626103  1
  O  O325  1  0.49285228  0.87464302  0.48953275  1
  O  O326  1  0.50704619  0.87285346  0.99084197  1
  O  O327  1  0.98945963  0.36841536  0.48684284  1
  O  O328  1  0.99240711  0.37960666  0.99388477  1
  O  O329  1  0.99362400  0.89187475  0.49634034  1
  O  O330  1  0.99333146  0.87873986  0.99536379  1
  O  O331  1  0.49668994  0.49754069  0.37885688  1
  O  O332  1  0.49579390  0.50349634  0.88847136  1
  O  O333  1  0.49859206  0.98827713  0.36377302  1
  O  O334  1  0.49324465  0.98537598  0.87893397  1
  O  O335  1  0.99440564  0.49038287  0.37097407  1
  O  O336  1  0.99435608  0.49304962  0.88429913  1
  O  O337  1  0.99437021  1.00571776  0.38059965  1
  O  O338  1  0.99442846  0.99544725  0.87800889  1
  O  O339  1  0.00810041  0.00418673  0.12009275  1
  O  O340  1  0.00290299  0.01053862  0.62028638  1
  O  O341  1  0.00758326  0.49613135  0.11268237  1
  O  O342  1  0.00664043  0.50823802  0.62870797  1
  O  O343  1  0.51265496  0.00868359  0.13127884  1
  O  O344  1  0.49247156  0.01536411  0.62738076  1
  O  O345  1  0.50568546  0.50310363  0.11573278  1
  O  O346  1  0.50696884  0.51005033  0.61587592  1
  O  O347  1  0.24853987  0.37892958  0.24803021  1
  O  O348  1  0.24528123  0.38807996  0.75032586  1
  O  O349  1  0.25317019  0.88369016  0.23884231  1
  O  O350  1  0.24787051  0.87670460  0.73820063  1
  O  O351  1  0.75469339  0.37335781  0.23566853  1
  O  O352  1  0.73991738  0.37383026  0.74131544  1
  O  O353  1  0.74625863  0.88258646  0.24288711  1
  O  O354  1  0.74025376  0.87938545  0.74717579  1
  O  O355  1  0.25647078  0.12201123  0.25348833  1
  O  O356  1  0.24145574  0.11558212  0.75826511  1
  O  O357  1  0.25689984  0.62400507  0.25502618  1
  O  O358  1  0.25302142  0.61532360  0.75358995  1
  O  O359  1  0.75636580  0.12322299  0.25536414  1
  O  O360  1  0.74154656  0.11389067  0.76060013  1
  O  O361  1  0.75282789  0.62161309  0.26101721  1
  O  O362  1  0.74800295  0.63047662  0.76492131  1
  O  O363  1  0.36449486  0.12527267  0.36603979  1
  O  O364  1  0.37843069  0.11252420  0.88000844  1
  O  O365  1  0.37040669  0.62148143  0.36758785  1
  O  O366  1  0.36938594  0.61886402  0.86804626  1
  O  O367  1  0.86697332  0.12070562  0.36960858  1
  O  O368  1  0.86523000  0.11401906  0.87851624  1
  O  O369  1  0.87129577  0.61831720  0.37470342  1
  O  O370  1  0.86478496  0.61258460  0.88036417  1
  O  O371  1  0.12653416  0.38421368  0.12674564  1
  O  O372  1  0.12426449  0.38215962  0.62455453  1
  O  O373  1  0.13165512  0.88809935  0.12174427  1
  O  O374  1  0.13257477  0.88164174  0.62306099  1
  O  O375  1  0.63442657  0.38188394  0.11721832  1
  O  O376  1  0.62580367  0.39150998  0.61824697  1
  O  O377  1  0.63009579  0.88310815  0.12872172  1
  O  O378  1  0.62315929  0.86809740  0.63971141  1
  O  O379  1  0.11799048  0.25069642  0.26157164  1
  O  O380  1  0.12946252  0.25194469  0.76347186  1
  O  O381  1  0.11682141  0.74695514  0.26378116  1
  O  O382  1  0.11534380  0.75010047  0.75924723  1
  O  O383  1  0.60984000  0.24275779  0.26391805  1
  O  O384  1  0.62931304  0.24430675  0.76605741  1
  O  O385  1  0.61882146  0.75811562  0.25709998  1
  O  O386  1  0.63091305  0.76197139  0.76089788  1
  O  O387  1  0.38533137  0.23927204  0.25264969  1
  O  O388  1  0.37155839  0.25490305  0.73962170  1
  O  O389  1  0.38386200  0.74226378  0.25596963  1
  O  O390  1  0.36878611  0.73472643  0.74881236  1
  O  O391  1  0.88379361  0.23831477  0.25531436  1
  O  O392  1  0.87503571  0.25260952  0.74109839  1
  O  O393  1  0.88890206  0.75264253  0.25418459  1
  O  O394  1  0.88610232  0.75136990  0.74304931  1
  O  O395  1  0.38119099  0.50218513  0.48855323  1
  O  O396  1  0.38193328  0.49567098  0.99498182  1
  O  O397  1  0.36876895  0.98754175  0.49651457  1
  O  O398  1  0.37441889  0.99136601  0.98480211  1
  O  O399  1  0.87517245  0.48585157  0.48732711  1
  O  O400  1  0.88231793  0.48941764  0.99308972  1
  O  O401  1  0.88166432  1.00593914  0.49073011  1
  O  O402  1  0.88014612  0.99277605  0.98931654  1
  O  O403  1  0.12032377  0.00619229  0.00452951  1
  O  O404  1  0.11795524  -0.00059114  0.51307196  1
  O  O405  1  0.11713720  0.50431523  0.00365925  1
  O  O406  1  0.12954083  0.50745424  0.51084189  1
  O  O407  1  0.63292177  0.01125033  0.00644940  1
  O  O408  1  0.62122138  0.01586275  0.49408329  1
  O  O409  1  0.61749292  0.50290951  0.00584298  1
  O  O410  1  0.61806164  0.50791005  0.50620096  1
  O  O411  1  0.37282352  0.38235895  0.11156752  1
  O  O412  1  0.37505146  0.36459860  0.62380706  1
  O  O413  1  0.36442298  0.87718522  0.12674571  1
  O  O414  1  0.36999885  0.87380580  0.62058038  1
  O  O415  1  0.86830205  0.37905382  0.11264642  1
  O  O416  1  0.87929958  0.35935867  0.61341055  1
  O  O417  1  0.86881637  0.88421505  0.11094941  1
  O  O418  1  0.87644826  0.85927680  0.62546920  1
  O  O419  1  0.13886374  0.13307697  0.37058964  1
  O  O420  1  0.11993270  0.13062804  0.88699442  1
  O  O421  1  0.12733000  0.63135513  0.38089931  1
  O  O422  1  0.12960344  0.62881387  0.88027403  1
  O  O423  1  0.62838386  0.13206285  0.38388238  1
  O  O424  1  0.63078320  0.12805933  0.88269005  1
  O  O425  1  0.63291328  0.63674042  0.37463204  1
  O  O426  1  0.62892924  0.63107634  0.87970325  1
