# generated using pymatgen
data_V85Zn86O256
_symmetry_space_group_name_H-M   'P 1'
_cell_length_a   16.94654941
_cell_length_b   16.94264218
_cell_length_c   16.93631701
_cell_angle_alpha   89.95781429
_cell_angle_beta   89.94859390
_cell_angle_gamma   90.00551539
_symmetry_Int_Tables_number   1
_chemical_formula_structural   V85Zn86O256
_chemical_formula_sum   'V85 Zn86 O256'
_cell_volume   4862.74057366
_cell_formula_units_Z   1
loop_
 _symmetry_equiv_pos_site_id
 _symmetry_equiv_pos_as_xyz
  1  'x, y, z'
loop_
 _atom_site_type_symbol
 _atom_site_label
 _atom_site_symmetry_multiplicity
 _atom_site_fract_x
 _atom_site_fract_y
 _atom_site_fract_z
 _atom_site_occupancy
  V  V0  1  0.25046496  0.37163749  0.11688795  1
  V  V1  1  0.37303062  0.00136927  0.87403443  1
  V  V2  1  0.75011884  -0.00062026  0.25113980  1
  V  V3  1  0.11771937  0.36952706  0.24659781  1
  V  V4  1  0.76189330  0.12465943  0.87000983  1
  V  V5  1  0.74360814  0.12205074  0.37788209  1
  V  V6  1  -0.00001756  0.62539035  0.62448571  1
  V  V7  1  0.49299381  0.49632867  0.00211421  1
  V  V8  1  0.00561793  0.23841820  0.75164984  1
  V  V9  1  0.12744463  0.62408524  0.49595138  1
  V  V10  1  0.74773224  0.75786728  0.49967227  1
  V  V11  1  0.11681370  0.24725031  0.37108281  1
  V  V12  1  0.62828822  0.87427980  0.75576552  1
  V  V13  1  0.49921098  0.24873380  0.75061672  1
  V  V14  1  0.87391096  0.62566041  0.75067496  1
  V  V15  1  0.88381277  0.87993281  0.00075441  1
  V  V16  1  0.00441681  0.12398421  0.11500628  1
  V  V17  1  0.88690605  0.87827722  0.49683058  1
  V  V18  1  0.62415530  -0.00015625  0.12471751  1
  V  V19  1  0.50500455  0.74604690  0.75859616  1
  V  V20  1  0.22803918  0.24400977  -0.01066406  1
  V  V21  1  -0.00134381  0.49872118  0.49709370  1
  V  V22  1  0.62748738  0.12459932  -0.00011531  1
  V  V23  1  0.37029820  0.87984890  0.50590391  1
  V  V24  1  0.38414340  0.38750348  0.49980551  1
  V  V25  1  0.50200913  0.13100515  0.12905095  1
  V  V26  1  0.24747952  0.75336851  0.00651205  1
  V  V27  1  0.25677493  0.61793170  0.36567923  1
  V  V28  1  0.00118123  0.75931910  0.25292143  1
  V  V29  1  0.37055004  0.75234977  0.62905181  1
  V  V30  1  0.62423785  0.86751096  0.25321564  1
  V  V31  1  0.58226073  0.69543860  0.43604207  1
  V  V32  1  0.88489857  0.12591063  0.25190539  1
  V  V33  1  0.37740316  0.25317670  0.10572188  1
  V  V34  1  0.37461382  0.73353698  0.13128069  1
  V  V35  1  0.62451687  0.37540224  0.75174988  1
  V  V36  1  0.25076859  0.49996492  0.75209083  1
  V  V37  1  0.49983056  0.38700353  0.37098545  1
  V  V38  1  0.87504349  0.75341137  0.12479433  1
  V  V39  1  0.37698869  0.14304148  0.24936154  1
  V  V40  1  0.49703432  0.73796622  0.24770490  1
  V  V41  1  0.00282413  0.37145656  0.87131186  1
  V  V42  1  0.24619979  0.25067555  0.49368172  1
  V  V43  1  0.00501950  0.62873068  0.11983831  1
  V  V44  1  0.12436556  0.75247251  0.37249385  1
  V  V45  1  0.75028248  0.62847188  0.38121252  1
  V  V46  1  0.00075105  0.50310216  -0.00320968  1
  V  V47  1  0.74586167  0.75128917  -0.00773427  1
  V  V48  1  0.61557317  0.24564027  0.37281200  1
  V  V49  1  0.00009307  0.75510561  0.75072102  1
  V  V50  1  0.87620443  0.24097878  0.62982188  1
  V  V51  1  0.12557600  0.00007358  0.10574996  1
  V  V52  1  0.24736232  0.12874235  0.37467816  1
  V  V53  1  0.00599640  0.11537520  0.61004985  1
  V  V54  1  0.87778776  0.25023796  0.13142381  1
  V  V55  1  0.74983188  0.87554737  0.12434852  1
  V  V56  1  0.50281968  0.87422129  0.37668537  1
  V  V57  1  0.12444713  0.49904000  0.62496716  1
  V  V58  1  0.87556068  0.37461214  0.49944278  1
  V  V59  1  0.62769098  0.24848545  0.87445523  1
  V  V60  1  0.62849986  -0.00067811  0.62066053  1
  V  V61  1  0.24921394  0.37484602  0.62337927  1
  V  V62  1  0.62244515  0.50667068  0.12390783  1
  V  V63  1  0.37675813  0.00227561  0.36992019  1
  V  V64  1  0.37498689  0.87741614  0.01320610  1
  V  V65  1  0.75547227  0.25145895  0.00034403  1
  V  V66  1  0.13878211  0.87370000  0.73887222  1
  V  V67  1  0.61860106  0.62908211  -0.00513954  1
  V  V68  1  0.13252562  0.88701459  0.25159045  1
  V  V69  1  0.74751053  0.50138086  0.75145753  1
  V  V70  1  0.75416269  -0.00115132  0.74565642  1
  V  V71  1  0.75032818  0.37663330  0.12534477  1
  V  V72  1  0.12480788  0.74770283  0.87985575  1
  V  V73  1  0.37295490  0.24740199  0.62406567  1
  V  V74  1  0.75011540  0.37400441  0.62600586  1
  V  V75  1  0.74928277  0.50063592  0.25166602  1
  V  V76  1  0.50520559  0.12497343  0.61713398  1
  V  V77  1  0.25055857  0.62535179  0.88059973  1
  V  V78  1  0.88460182  -0.00329437  0.37622566  1
  V  V79  1  0.86857789  0.75630644  0.62448926  1
  V  V80  1  0.61711625  0.50610133  0.61549298  1
  V  V81  1  0.88097235  0.00070359  0.87420444  1
  V  V82  1  0.74294222  0.24449879  0.50196129  1
  V  V83  1  0.12551317  0.50333153  0.12427165  1
  V  V84  1  0.87607919  0.62774295  0.25023787  1
  Zn  Zn85  1  0.37201574  0.49568283  0.88031120  1
  Zn  Zn86  1  0.12583320  0.36996137  0.75218560  1
  Zn  Zn87  1  0.37090289  0.12495561  0.75184090  1
  Zn  Zn88  1  0.37822926  0.62407191  0.74978595  1
  Zn  Zn89  1  0.50213889  0.87323223  0.87998903  1
  Zn  Zn90  1  0.50054128  -0.00052055  -0.00108932  1
  Zn  Zn91  1  0.22884929  0.12287771  0.87139727  1
  Zn  Zn92  1  0.50126375  0.62639328  0.61304988  1
  Zn  Zn93  1  0.87569651  0.49861762  0.37441931  1
  Zn  Zn94  1  0.50598960  0.00519981  0.49699406  1
  Zn  Zn95  1  0.74683300  0.62937546  0.87345249  1
  Zn  Zn96  1  0.25556677  0.00130757  0.24067814  1
  Zn  Zn97  1  -0.00405637  0.37164969  0.36728583  1
  Zn  Zn98  1  0.24774127  0.75294545  0.50486498  1
  Zn  Zn99  1  0.00592237  0.87947568  0.87870796  1
  Zn  Zn100  1  0.13498687  -0.00375626  0.60299109  1
  Zn  Zn101  1  0.87440464  0.50045052  0.87555012  1
  Zn  Zn102  1  0.62128296  0.36798826  0.24671340  1
  Zn  Zn103  1  0.25319583  0.00336034  0.73925798  1
  Zn  Zn104  1  0.49218134  0.37041299  0.88206817  1
  Zn  Zn105  1  0.87492355  0.37766530  -0.00185040  1
  Zn  Zn106  1  0.25991291  0.50317592  0.24521361  1
  Zn  Zn107  1  0.18703955  0.18758811  0.18770285  1
  Zn  Zn108  1  0.18627782  0.18002106  0.68600737  1
  Zn  Zn109  1  0.18752777  0.68887990  0.18752586  1
  Zn  Zn110  1  0.18881502  0.68582026  0.68993727  1
  Zn  Zn111  1  0.69010606  0.18702742  0.19152093  1
  Zn  Zn112  1  0.68758578  0.18277414  0.68851207  1
  Zn  Zn113  1  0.68734491  0.68730271  0.18563954  1
  Zn  Zn114  1  0.68466010  0.68804372  0.68574447  1
  Zn  Zn115  1  0.33126315  0.34763811  0.29091998  1
  Zn  Zn116  1  0.31280134  0.31561046  0.81548505  1
  Zn  Zn117  1  0.30940592  0.81146542  0.31286392  1
  Zn  Zn118  1  0.31817843  0.81332359  0.81836441  1
  Zn  Zn119  1  0.80778350  0.31130568  0.31421294  1
  Zn  Zn120  1  0.81919191  0.31262845  0.81236614  1
  Zn  Zn121  1  0.81111958  0.81190661  0.31657476  1
  Zn  Zn122  1  0.81185145  0.81806066  0.81303464  1
  Zn  Zn123  1  0.18768097  0.43392565  0.43518119  1
  Zn  Zn124  1  0.18254748  0.43614339  0.93900734  1
  Zn  Zn125  1  0.19393069  0.93591328  0.43160814  1
  Zn  Zn126  1  0.19307540  0.93099847  0.93031944  1
  Zn  Zn127  1  0.68714874  0.43442759  0.43603577  1
  Zn  Zn128  1  0.68400288  0.43851498  0.93692773  1
  Zn  Zn129  1  0.68969712  0.93496760  0.43866913  1
  Zn  Zn130  1  0.69014117  0.93797967  0.93560134  1
  Zn  Zn131  1  0.30916933  0.06770528  0.05862360  1
  Zn  Zn132  1  0.31291587  0.06289819  0.56031200  1
  Zn  Zn133  1  0.30847530  0.56477606  0.06162354  1
  Zn  Zn134  1  0.31224231  0.56716706  0.56505902  1
  Zn  Zn135  1  0.81539933  0.06379846  0.06042751  1
  Zn  Zn136  1  0.81377391  0.06107818  0.56206895  1
  Zn  Zn137  1  0.81310844  0.56625920  0.06223211  1
  Zn  Zn138  1  0.80872850  0.56393398  0.56404417  1
  Zn  Zn139  1  0.43680361  0.43917825  0.18280822  1
  Zn  Zn140  1  0.43692658  0.43603074  0.69008862  1
  Zn  Zn141  1  0.43979960  0.93934248  0.18995114  1
  Zn  Zn142  1  0.44171863  0.93653188  0.69061339  1
  Zn  Zn143  1  0.93653029  0.43967916  0.18627441  1
  Zn  Zn144  1  0.93670771  0.43466931  0.68770437  1
  Zn  Zn145  1  0.94303040  0.94239487  0.18985490  1
  Zn  Zn146  1  0.93626135  0.93713021  0.68560239  1
  Zn  Zn147  1  0.06474384  0.06165314  0.43057347  1
  Zn  Zn148  1  0.05978074  0.05705506  0.79870451  1
  Zn  Zn149  1  0.06393942  0.56108837  0.30910110  1
  Zn  Zn150  1  0.06513378  0.56447806  0.81374264  1
  Zn  Zn151  1  0.56213300  0.06257674  0.30864150  1
  Zn  Zn152  1  0.56241510  0.06185610  0.81197423  1
  Zn  Zn153  1  0.56126063  0.55652165  0.30975678  1
  Zn  Zn154  1  0.56225485  0.56325308  0.81687638  1
  Zn  Zn155  1  0.43378620  0.19086634  0.44028958  1
  Zn  Zn156  1  0.43945535  0.18236301  0.93693542  1
  Zn  Zn157  1  0.42010922  0.68959931  0.43738660  1
  Zn  Zn158  1  0.43495908  0.68313753  0.94060946  1
  Zn  Zn159  1  0.93004629  0.18987193  0.43744697  1
  Zn  Zn160  1  1.05000274  0.18031291  0.93431884  1
  Zn  Zn161  1  0.93763002  0.68863620  0.43613826  1
  Zn  Zn162  1  0.93569132  0.68997996  0.93750864  1
  Zn  Zn163  1  0.05485867  0.31564739  0.06564080  1
  Zn  Zn164  1  0.06242108  0.30978301  0.56247770  1
  Zn  Zn165  1  0.06684848  0.81701530  0.06634633  1
  Zn  Zn166  1  0.06160609  0.81131881  0.56063890  1
  Zn  Zn167  1  0.56577154  0.31462203  0.06363477  1
  Zn  Zn168  1  0.56309310  0.31513765  0.56359021  1
  Zn  Zn169  1  0.55850153  0.81097437  0.06505943  1
  Zn  Zn170  1  0.55370831  0.82126999  0.57488421  1
  O  O171  1  0.11154096  0.11739056  0.12833106  1
  O  O172  1  0.10909946  0.12410376  0.61904337  1
  O  O173  1  0.11635164  0.61746934  0.12907577  1
  O  O174  1  0.12020191  0.62123380  0.61632779  1
  O  O175  1  0.62009496  0.12189072  0.12275266  1
  O  O176  1  0.61635920  0.11465732  0.62993334  1
  O  O177  1  0.63205961  0.61243230  0.11675947  1
  O  O178  1  0.62294383  0.61054543  0.62608352  1
  O  O179  1  0.39231098  0.36236046  0.39078521  1
  O  O180  1  0.38061471  0.38350100  0.87001888  1
  O  O181  1  0.38271066  0.88326239  0.37606301  1
  O  O182  1  0.37736361  0.88571393  0.88713532  1
  O  O183  1  0.87540048  0.37485385  0.38430159  1
  O  O184  1  0.88709010  0.37979730  0.87599483  1
  O  O185  1  0.87123677  0.88220120  0.38563783  1
  O  O186  1  0.87679739  0.88191869  0.88457677  1
  O  O187  1  0.26474475  0.00910782  0.37083370  1
  O  O188  1  0.26225194  0.00067215  0.87092160  1
  O  O189  1  0.23683736  0.51557062  0.37188311  1
  O  O190  1  0.24487698  0.50738309  0.87048154  1
  O  O191  1  0.75427609  0.00656257  0.37132283  1
  O  O192  1  0.75657830  0.00651633  0.86687093  1
  O  O193  1  0.74981601  0.50756126  0.36820647  1
  O  O194  1  0.75165850  0.50073753  0.86225329  1
  O  O195  1  0.24123920  0.49223698  0.12043743  1
  O  O196  1  0.24376495  0.49731228  0.63161756  1
  O  O197  1  0.22928521  1.01394956  0.12562575  1
  O  O198  1  0.24611067  1.00538165  0.62577498  1
  O  O199  1  0.74634960  0.49643401  0.13155126  1
  O  O200  1  0.74268547  0.49679075  0.63601543  1
  O  O201  1  0.74442535  0.99546357  0.13079719  1
  O  O202  1  0.74304405  1.00760845  0.63508930  1
  O  O203  1  0.01131010  0.37924116  0.24855009  1
  O  O204  1  0.00041944  0.36452425  0.75368510  1
  O  O205  1  0.00974830  0.86475346  0.24646332  1
  O  O206  1  0.00385601  0.86274759  0.74913103  1
  O  O207  1  0.50348423  0.37546519  0.26702002  1
  O  O208  1  0.50760775  0.36225121  0.74761870  1
  O  O209  1  0.50466943  0.86729303  0.26072052  1
  O  O210  1  0.50699568  0.86304721  0.75516028  1
  O  O211  1  0.49401469  0.12550222  0.23700381  1
  O  O212  1  0.49902185  0.13707019  0.74250149  1
  O  O213  1  0.50388860  0.63866959  0.25705971  1
  O  O214  1  0.50136152  0.63671680  0.75096451  1
  O  O215  1  0.98347658  0.12492408  0.24006049  1
  O  O216  1  0.99625802  0.13589324  0.73522299  1
  O  O217  1  0.99545038  0.63227051  0.23949500  1
  O  O218  1  0.99395368  0.63541730  0.74595715  1
  O  O219  1  0.36804645  0.24511081  0.00419156  1
  O  O220  1  0.36756316  0.25823070  0.51017016  1
  O  O221  1  0.37130402  0.75444206  0.01400110  1
  O  O222  1  0.37291773  0.76061161  0.51113287  1
  O  O223  1  0.86035528  0.25188736  0.01422668  1
  O  O224  1  0.86493749  0.25760888  0.50736895  1
  O  O225  1  0.86686707  0.75798526  0.00600848  1
  O  O226  1  0.86950823  0.75736778  0.50483126  1
  O  O227  1  0.13977903  0.25921534  0.49153837  1
  O  O228  1  0.12442348  0.24807359  0.99971695  1
  O  O229  1  0.12605031  0.74295591  0.49137634  1
  O  O230  1  0.13405891  0.75786075  0.99333552  1
  O  O231  1  0.63838058  0.25484019  0.49680220  1
  O  O232  1  0.63672280  0.24629229  0.99562412  1
  O  O233  1  0.63081765  0.75879893  0.50649750  1
  O  O234  1  0.63314902  0.74116404  1.01111601  1
  O  O235  1  0.49161291  0.24375822  0.11761684  1
  O  O236  1  0.49500318  0.24504741  0.63002663  1
  O  O237  1  0.48428941  0.75229878  0.13420257  1
  O  O238  1  0.49128341  0.74703857  0.63809384  1
  O  O239  1  0.98908693  0.23897775  0.12457059  1
  O  O240  1  0.99324407  0.24125464  0.62753355  1
  O  O241  1  0.99743588  0.74532033  0.13102603  1
  O  O242  1  0.98965417  0.74360110  0.63053687  1
  O  O243  1  0.01287966  0.25080792  0.38317995  1
  O  O244  1  -0.00561091  0.25384379  0.85818575  1
  O  O245  1  0.00949694  0.74249057  0.36283730  1
  O  O246  1  0.00699687  0.75115921  0.86773287  1
  O  O247  1  0.51332580  0.25255764  0.38421969  1
  O  O248  1  0.50717154  0.24795924  0.86731254  1
  O  O249  1  0.50601002  0.75386710  0.37413988  1
  O  O250  1  0.49345418  0.75026024  0.86243032  1
  O  O251  1  0.26354609  0.13729798  0.48337705  1
  O  O252  1  0.24601041  0.14127024  0.99444416  1
  O  O253  1  0.23772097  0.62553941  0.49314030  1
  O  O254  1  0.25231647  0.63615788  0.98935980  1
  O  O255  1  0.75495551  0.13271892  0.49032038  1
  O  O256  1  0.74545677  0.13316775  0.99457982  1
  O  O257  1  0.75526037  0.63542148  0.48932702  1
  O  O258  1  0.74474177  0.63503298  0.99875872  1
  O  O259  1  0.23757334  0.36173945  0.00869042  1
  O  O260  1  0.26127153  0.36981475  0.50236185  1
  O  O261  1  0.25993150  0.86074295  -0.00370430  1
  O  O262  1  0.26741390  0.87064154  0.49124035  1
  O  O263  1  0.75169045  0.36946467  0.00475709  1
  O  O264  1  0.75857654  0.36845700  0.50549136  1
  O  O265  1  0.75508504  0.86877000  0.00661257  1
  O  O266  1  0.75957640  0.86146586  0.49584934  1
  O  O267  1  0.12746637  0.49278395  0.23680513  1
  O  O268  1  0.13458474  0.50074255  0.74297504  1
  O  O269  1  0.12699216  0.98601088  0.25786284  1
  O  O270  1  0.12495101  0.97859555  0.74483824  1
  O  O271  1  0.63565543  0.49993436  0.24213606  1
  O  O272  1  0.63094608  0.49452534  0.74622237  1
  O  O273  1  0.62960892  0.98987732  0.24384728  1
  O  O274  1  0.63345236  0.99485206  0.74498851  1
  O  O275  1  0.37516802  0.01148048  0.25462065  1
  O  O276  1  0.37552766  -0.00167082  0.76241055  1
  O  O277  1  0.36123396  0.45713581  0.26075183  1
  O  O278  1  0.36008270  0.50241508  0.74612583  1
  O  O279  1  0.86778181  0.00401535  0.25661080  1
  O  O280  1  0.86214799  -0.00911571  0.75660108  1
  O  O281  1  0.86367407  0.50725593  0.24964488  1
  O  O282  1  0.86729589  0.50964009  0.74731633  1
  O  O283  1  0.12445988  0.36635782  0.36376973  1
  O  O284  1  0.10807508  0.37989968  0.87101106  1
  O  O285  1  0.13075909  0.86085217  0.36316561  1
  O  O286  1  0.12381872  0.86324834  0.86322620  1
  O  O287  1  0.61369303  0.36658685  0.37747856  1
  O  O288  1  0.62340245  0.36667009  0.86669347  1
  O  O289  1  0.61628869  0.88001222  0.36572488  1
  O  O290  1  0.62149382  0.88174061  0.86233318  1
  O  O291  1  0.38228514  0.13264428  0.12880810  1
  O  O292  1  0.38348622  0.13498364  0.62679870  1
  O  O293  1  0.37311793  0.63486256  0.12860192  1
  O  O294  1  0.38229350  0.63413210  0.62634845  1
  O  O295  1  0.87939948  0.13019991  0.13109373  1
  O  O296  1  0.88649620  0.13376211  0.61559941  1
  O  O297  1  0.88130054  0.63441708  0.13167396  1
  O  O298  1  0.87904972  0.63193166  0.63411240  1
  O  O299  1  0.25345051  0.25215476  0.11033367  1
  O  O300  1  0.25594220  0.25352553  0.61762845  1
  O  O301  1  0.26110911  0.74620664  0.11924996  1
  O  O302  1  0.26538075  0.74410194  0.62646059  1
  O  O303  1  0.75254111  0.25644526  0.11924929  1
  O  O304  1  0.75659141  0.25065303  0.62053586  1
  O  O305  1  0.75712251  0.75704563  0.11959421  1
  O  O306  1  0.76167577  0.74278478  0.61652239  1
  O  O307  1  0.24341410  0.24498215  0.37965989  1
  O  O308  1  0.24599890  0.25269666  0.88802347  1
  O  O309  1  0.24192702  0.73732378  0.37574226  1
  O  O310  1  0.24526294  0.74380532  0.88224898  1
  O  O311  1  0.74253081  0.24194221  0.38397216  1
  O  O312  1  0.75043110  0.24393248  0.88082465  1
  O  O313  1  0.74710940  0.74135880  0.38365422  1
  O  O314  1  0.75283850  0.75185114  0.88888038  1
  O  O315  1  -0.00967455  0.12523545  0.01667885  1
  O  O316  1  -0.00229262  0.12537281  0.50554182  1
  O  O317  1  -0.00527293  0.62175795  0.01198851  1
  O  O318  1  0.00908710  0.62074501  0.50308233  1
  O  O319  1  0.50923176  0.12294727  0.01111967  1
  O  O320  1  0.49759810  0.12556195  0.51276287  1
  O  O321  1  0.50860838  0.61510016  0.00053694  1
  O  O322  1  0.51092298  0.64093678  0.49141936  1
  O  O323  1  0.48985267  0.37316777  0.49627467  1
  O  O324  1  0.50894278  0.39169734  0.99953372  1
  O  O325  1  0.49320332  0.87611340  0.48800640  1
  O  O326  1  0.49128254  0.87728860  0.99942747  1
  O  O327  1  0.98775746  0.37860540  0.50105942  1
  O  O328  1  0.99586406  0.38351103  0.99176223  1
  O  O329  1  0.98530183  0.86634128  0.49538836  1
  O  O330  1  0.98735872  0.86988867  0.99991835  1
  O  O331  1  0.50558653  0.48562749  0.38009333  1
  O  O332  1  0.50102492  0.49887233  0.89062815  1
  O  O333  1  0.49318892  0.99409221  0.37393324  1
  O  O334  1  0.48910571  0.99914185  0.87799097  1
  O  O335  1  0.99794766  0.49744893  0.38288762  1
  O  O336  1  0.99884913  0.49756359  0.88180143  1
  O  O337  1  0.98262653  1.00752989  0.36889659  1
  O  O338  1  0.98409453  0.99632432  0.86417798  1
  O  O339  1  0.01183585  0.01300596  0.12879234  1
  O  O340  1  0.00012486  0.01424159  0.62774333  1
  O  O341  1  0.00456142  0.50945126  0.11925124  1
  O  O342  1  0.00395246  0.50604516  0.61901459  1
  O  O343  1  0.50949430  0.00874394  0.12450775  1
  O  O344  1  0.50835021  0.00939873  0.62590936  1
  O  O345  1  0.50989646  0.49626867  0.11648694  1
  O  O346  1  0.51318231  0.50159672  0.62913208  1
  O  O347  1  0.23269383  0.36797637  0.22884691  1
  O  O348  1  0.24554517  0.38159029  0.74205895  1
  O  O349  1  0.23717522  0.87803292  0.24909975  1
  O  O350  1  0.23970923  0.87043165  0.75182395  1
  O  O351  1  0.74806391  0.38582675  0.24623906  1
  O  O352  1  0.74669856  0.38126106  0.74491413  1
  O  O353  1  0.74178638  0.87727955  0.24617030  1
  O  O354  1  0.74120608  0.88380082  0.75190290  1
  O  O355  1  0.25978824  0.12622971  0.25866370  1
  O  O356  1  0.25369606  0.12399117  0.75562005  1
  O  O357  1  0.24648828  0.62164368  0.26094712  1
  O  O358  1  0.25069071  0.61811688  0.76189627  1
  O  O359  1  0.75655197  0.11650533  0.25780034  1
  O  O360  1  0.74787696  0.11517330  0.75983995  1
  O  O361  1  0.75416128  0.62189363  0.25929196  1
  O  O362  1  0.75601023  0.61960471  0.75065195  1
  O  O363  1  0.37478411  0.12262177  0.36516051  1
  O  O364  1  0.37519185  0.10959083  0.87543305  1
  O  O365  1  0.35612081  0.62146970  0.37663606  1
  O  O366  1  0.36495743  0.61791225  0.87256157  1
  O  O367  1  0.86404439  0.12072315  0.36904330  1
  O  O368  1  0.86245418  0.11600882  0.87934385  1
  O  O369  1  0.86703314  0.62378382  0.36835278  1
  O  O370  1  0.87295139  0.62586146  0.86116140  1
  O  O371  1  0.12538200  0.38235719  0.12797840  1
  O  O372  1  0.13161994  0.38344946  0.62276780  1
  O  O373  1  0.11979225  0.89339178  0.13612225  1
  O  O374  1  0.12415549  0.86794114  0.63633419  1
  O  O375  1  0.63349045  0.38593153  0.12727226  1
  O  O376  1  0.63157759  0.38187496  0.63335286  1
  O  O377  1  0.62829308  0.88136822  0.13207084  1
  O  O378  1  0.61875156  0.88794970  0.64149968  1
  O  O379  1  0.12494964  0.25609150  0.25819110  1
  O  O380  1  0.10793572  0.25204284  0.73851609  1
  O  O381  1  0.11931161  0.75747317  0.25360876  1
  O  O382  1  0.11797759  0.75597802  0.75390954  1
  O  O383  1  0.63308518  0.25249006  0.26572711  1
  O  O384  1  0.61984934  0.25494574  0.75375005  1
  O  O385  1  0.61617109  0.76162278  0.24079865  1
  O  O386  1  0.61427595  0.75709307  0.74605232  1
  O  O387  1  0.36979008  0.24486259  0.23802626  1
  O  O388  1  0.38190960  0.25187434  0.73928399  1
  O  O389  1  0.38023029  0.75603995  0.23820292  1
  O  O390  1  0.38552767  0.75065492  0.74621289  1
  O  O391  1  0.86363395  0.24136103  0.23912180  1
  O  O392  1  0.88469633  0.25430811  0.73540398  1
  O  O393  1  0.88299306  0.74930029  0.24613186  1
  O  O394  1  0.87897694  0.74792130  0.74309235  1
  O  O395  1  0.37152240  0.48563078  0.50505452  1
  O  O396  1  0.39026488  0.50513988  1.00549700  1
  O  O397  1  0.38195483  0.99524892  0.48940142  1
  O  O398  1  0.37339193  0.99434344  0.99433924  1
  O  O399  1  0.87832748  0.49194874  0.50119199  1
  O  O400  1  0.88673028  0.50126647  0.99976300  1
  O  O401  1  0.86954569  0.98501521  0.49360641  1
  O  O402  1  0.86672565  0.98972187  0.98932608  1
  O  O403  1  0.12523231  -0.01131190  0.00775352  1
  O  O404  1  0.11753842  -0.01360893  0.49220651  1
  O  O405  1  0.11085275  0.49828413  0.01107982  1
  O  O406  1  0.11912010  0.50584456  0.50401982  1
  O  O407  1  0.62756115  0.00657775  0.00794900  1
  O  O408  1  0.62523796  -0.00820091  0.51538834  1
  O  O409  1  0.62006304  0.50856634  0.00671248  1
  O  O410  1  0.63217085  0.49388387  0.51795874  1
  O  O411  1  0.36363201  0.36319727  0.12124696  1
  O  O412  1  0.37182786  0.36832871  0.61580404  1
  O  O413  1  0.37621251  0.87629132  0.11597081  1
  O  O414  1  0.38504360  0.86876609  0.61543497  1
  O  O415  1  0.86931848  0.36671329  0.12524333  1
  O  O416  1  0.86852711  0.36716583  0.61781893  1
  O  O417  1  0.87145858  0.87415264  0.12001022  1
  O  O418  1  0.87768016  0.86715037  0.61179708  1
  O  O419  1  0.13624568  0.13359441  0.37324485  1
  O  O420  1  0.11558902  0.12125823  0.86876418  1
  O  O421  1  0.12784922  0.63330500  0.37966631  1
  O  O422  1  0.13161831  0.64016375  0.87093435  1
  O  O423  1  0.63486412  0.12906656  0.37121565  1
  O  O424  1  0.63379090  0.13036847  0.88038441  1
  O  O425  1  0.63283898  0.62526700  0.37470454  1
  O  O426  1  0.62944337  0.62370397  0.88992558  1
