# generated using pymatgen
data_V85Zn86O256
_symmetry_space_group_name_H-M   'P 1'
_cell_length_a   16.91067525
_cell_length_b   16.91697787
_cell_length_c   16.91463096
_cell_angle_alpha   90.01921571
_cell_angle_beta   90.00262404
_cell_angle_gamma   90.00985771
_symmetry_Int_Tables_number   1
_chemical_formula_structural   V85Zn86O256
_chemical_formula_sum   'V85 Zn86 O256'
_cell_volume   4838.89530989
_cell_formula_units_Z   1
loop_
 _symmetry_equiv_pos_site_id
 _symmetry_equiv_pos_as_xyz
  1  'x, y, z'
loop_
 _atom_site_type_symbol
 _atom_site_label
 _atom_site_symmetry_multiplicity
 _atom_site_fract_x
 _atom_site_fract_y
 _atom_site_fract_z
 _atom_site_occupancy
  V  V0  1  -0.00329606  0.37325699  0.87169630  1
  V  V1  1  0.37248597  0.62693367  0.74483185  1
  V  V2  1  0.62576388  0.62643469  -0.00757147  1
  V  V3  1  0.63624821  0.00403568  0.11844149  1
  V  V4  1  0.24782274  0.75872311  -0.00058291  1
  V  V5  1  -0.00834609  0.86994025  0.86976346  1
  V  V6  1  -0.00396844  0.74964746  0.24993561  1
  V  V7  1  0.49902181  0.75211934  0.24566121  1
  V  V8  1  0.12320439  0.12185947  0.00162629  1
  V  V9  1  0.62691100  0.23544435  0.38293813  1
  V  V10  1  0.88086727  0.62079844  0.75144530  1
  V  V11  1  -0.00391856  0.49406026  0.50286453  1
  V  V12  1  0.24645629  0.37898689  0.12657876  1
  V  V13  1  0.00177092  0.24725566  0.25651590  1
  V  V14  1  0.50253834  0.24821867  0.25015364  1
  V  V15  1  0.37821140  0.37171423  -0.00148005  1
  V  V16  1  0.49801714  0.62934045  0.12579071  1
  V  V17  1  0.12673882  0.62374560  0.49609009  1
  V  V18  1  -0.00855225  -0.00910174  0.00202336  1
  V  V19  1  0.50336428  0.12317379  0.12167870  1
  V  V20  1  0.74404641  0.24011389  -0.00260565  1
  V  V21  1  0.11985591  0.00418864  0.62518857  1
  V  V22  1  0.87723601  0.23474005  0.62641919  1
  V  V23  1  0.75062603  0.49869315  0.24990404  1
  V  V24  1  0.14349808  0.24734495  0.37779844  1
  V  V25  1  0.50413388  0.00563221  0.50083523  1
  V  V26  1  0.62568736  0.75125959  0.37261211  1
  V  V27  1  0.75002370  0.37464492  0.12299023  1
  V  V28  1  0.24949898  0.24753321  0.00021087  1
  V  V29  1  0.11940312  0.74948339  0.86650055  1
  V  V30  1  0.25470341  0.11823338  0.87676100  1
  V  V31  1  -0.00548871  0.23237775  0.74860585  1
  V  V32  1  0.12874370  0.75033153  0.37531603  1
  V  V33  1  0.25698726  0.74665870  0.49987487  1
  V  V34  1  0.75310586  0.75257988  0.50133454  1
  V  V35  1  0.86814718  0.75848592  0.11873379  1
  V  V36  1  -0.00430521  0.01225091  0.49516099  1
  V  V37  1  0.12768620  0.87624089  0.24381747  1
  V  V38  1  0.14302481  0.12884730  0.50017262  1
  V  V39  1  0.12268966  0.24742369  0.87332255  1
  V  V40  1  0.87340763  0.00218797  0.87206002  1
  V  V41  1  0.50032672  0.50222752  0.49645235  1
  V  V42  1  0.50749587  0.13639531  0.62468861  1
  V  V43  1  0.62570239  0.62583138  0.49682597  1
  V  V44  1  0.62478605  0.50000064  0.12417975  1
  V  V45  1  0.87360250  0.49072521  0.37928064  1
  V  V46  1  0.75182105  0.00915764  0.74768500  1
  V  V47  1  0.76213820  0.38119733  0.62614243  1
  V  V48  1  0.87282143  0.12035093  0.26688657  1
  V  V49  1  0.36868573  0.37214780  0.49978882  1
  V  V50  1  0.00006491  0.11948123  0.12817870  1
  V  V51  1  0.49477242  0.63072404  0.62065473  1
  V  V52  1  0.49789080  0.75435327  0.74520420  1
  V  V53  1  0.87781910  0.87771693  0.49543553  1
  V  V54  1  0.12469057  0.61902056  0.00299526  1
  V  V55  1  0.12496307  0.37945743  0.24940491  1
  V  V56  1  0.37560402  0.76002942  0.12184542  1
  V  V57  1  0.25360257  0.87128396  0.62365964  1
  V  V58  1  0.25079137  -0.00140008  0.24980979  1
  V  V59  1  0.75272842  0.00202004  0.26842862  1
  V  V60  1  0.74504882  0.61704273  0.86585384  1
  V  V61  1  0.37055492  0.12495128  0.25793692  1
  V  V62  1  0.37459060  0.49472397  0.87239388  1
  V  V63  1  0.36910481  0.24972726  0.62568732  1
  V  V64  1  0.60982028  0.24995856  0.86852485  1
  V  V65  1  0.87396529  0.24752688  0.12716980  1
  V  V66  1  0.62870232  0.50081028  0.63205503  1
  V  V67  1  0.12666410  0.49761834  0.62674852  1
  V  V68  1  0.50306340  0.00330634  -0.00906628  1
  V  V69  1  0.36335279  0.50550571  0.36573495  1
  V  V70  1  0.49574377  0.87778964  0.37546978  1
  V  V71  1  0.25388431  -0.00125707  0.75098054  1
  V  V72  1  0.62837446  0.87847004  0.24537392  1
  V  V73  1  0.37689922  0.88164317  -0.01093954  1
  V  V74  1  0.75138881  0.24293326  0.49884689  1
  V  V75  1  0.62220741  -0.00155402  0.63120934  1
  V  V76  1  0.62331187  0.75678937  0.86444010  1
  V  V77  1  -0.00070258  0.49625813  0.00686162  1
  V  V78  1  0.49797793  0.49755720  -0.00127595  1
  V  V79  1  0.88649468  0.75380673  0.63279686  1
  V  V80  1  0.24922528  0.62444064  0.87462627  1
  V  V81  1  0.38277809  0.12839945  0.75374649  1
  V  V82  1  0.50420636  0.37615968  0.37622334  1
  V  V83  1  0.75275457  0.62369895  0.37486922  1
  V  V84  1  0.74617138  0.87295493  0.63341742  1
  Zn  Zn85  1  0.62630060  0.37291861  0.25173934  1
  Zn  Zn86  1  0.35411259  0.62471170  0.24688422  1
  Zn  Zn87  1  0.00458630  0.62961276  0.62981662  1
  Zn  Zn88  1  0.24750173  0.49551872  0.74974008  1
  Zn  Zn89  1  0.37718248  0.87286478  0.50340980  1
  Zn  Zn90  1  0.12616769  0.37111249  0.74837060  1
  Zn  Zn91  1  -0.00121375  0.37096333  0.38005919  1
  Zn  Zn92  1  0.37536166  0.24865534  0.12586992  1
  Zn  Zn93  1  0.12123788  0.87201866  0.74728102  1
  Zn  Zn94  1  0.62065625  0.37066781  0.75175343  1
  Zn  Zn95  1  0.24747319  0.37007189  0.62620728  1
  Zn  Zn96  1  0.49990596  0.88509219  0.86272874  1
  Zn  Zn97  1  -0.00103989  0.62212908  0.12582945  1
  Zn  Zn98  1  0.74880118  0.12520470  0.87494343  1
  Zn  Zn99  1  0.87338446  0.37397767  -0.00236480  1
  Zn  Zn100  1  0.18438139  0.54472680  0.18689035  1
  Zn  Zn101  1  0.13030462  -0.00814893  0.12137608  1
  Zn  Zn102  1  0.36666589  0.00519557  0.38251244  1
  Zn  Zn103  1  -0.00161726  0.87868258  0.37542315  1
  Zn  Zn104  1  0.87476576  0.62472074  0.24686825  1
  Zn  Zn105  1  0.87028783  0.49623339  0.87299428  1
  Zn  Zn106  1  0.75868206  0.76041069  -0.00675856  1
  Zn  Zn107  1  0.18838942  0.18787233  0.18799579  1
  Zn  Zn108  1  0.18720443  0.18541507  0.68832654  1
  Zn  Zn109  1  0.18683655  0.70552938  0.18150721  1
  Zn  Zn110  1  0.18877899  0.68486507  0.68386481  1
  Zn  Zn111  1  0.68729791  0.18427739  0.19134244  1
  Zn  Zn112  1  0.68666626  0.19106617  0.68796175  1
  Zn  Zn113  1  0.68845102  0.68664952  0.18543860  1
  Zn  Zn114  1  0.68850708  0.68329219  0.68714151  1
  Zn  Zn115  1  0.31592701  0.31758748  0.30936079  1
  Zn  Zn116  1  0.31240566  0.30997655  0.81035803  1
  Zn  Zn117  1  0.31019923  0.81344563  0.31133601  1
  Zn  Zn118  1  0.31269252  0.81137840  0.81166320  1
  Zn  Zn119  1  0.81136827  0.30996967  0.31343454  1
  Zn  Zn120  1  0.80993436  0.31344830  0.80718592  1
  Zn  Zn121  1  0.81221862  0.81500056  0.31011357  1
  Zn  Zn122  1  0.81215404  0.81168461  0.81191282  1
  Zn  Zn123  1  0.18515207  0.43441592  0.43780877  1
  Zn  Zn124  1  0.18664519  0.43524082  0.93690319  1
  Zn  Zn125  1  0.18646590  0.93757634  0.43438118  1
  Zn  Zn126  1  0.18270714  0.93600061  0.93661095  1
  Zn  Zn127  1  0.69006139  0.43209320  0.44525282  1
  Zn  Zn128  1  0.68676490  0.43356866  0.93672954  1
  Zn  Zn129  1  0.68307928  0.93732550  0.44291841  1
  Zn  Zn130  1  0.68856141  0.93579564  0.93501776  1
  Zn  Zn131  1  0.31618049  0.05926360  0.06924964  1
  Zn  Zn132  1  0.31748549  0.05908867  0.56703661  1
  Zn  Zn133  1  0.31442320  0.56605266  0.06001037  1
  Zn  Zn134  1  0.31111048  0.56031018  0.55814573  1
  Zn  Zn135  1  0.81652562  0.06016298  0.06636193  1
  Zn  Zn136  1  0.80941716  0.06185637  0.55925128  1
  Zn  Zn137  1  0.81522612  0.56785274  0.05946493  1
  Zn  Zn138  1  0.81574282  0.56520282  0.56414668  1
  Zn  Zn139  1  0.43607657  0.43480358  0.18620402  1
  Zn  Zn140  1  0.44256888  0.43679229  0.68697512  1
  Zn  Zn141  1  0.43866634  0.94075365  0.18414865  1
  Zn  Zn142  1  0.43378881  0.94084257  0.68512927  1
  Zn  Zn143  1  0.93666639  0.43511902  0.18995253  1
  Zn  Zn144  1  0.94069563  0.43718703  0.69007492  1
  Zn  Zn145  1  0.93422342  0.93472976  0.19076344  1
  Zn  Zn146  1  0.93708089  0.94092817  0.68715340  1
  Zn  Zn147  1  0.06783874  0.06300753  0.31778998  1
  Zn  Zn148  1  0.06385731  0.05750084  0.81530474  1
  Zn  Zn149  1  0.05781335  0.56557655  0.31901103  1
  Zn  Zn150  1  0.05905409  0.56067289  0.81472976  1
  Zn  Zn151  1  0.56119176  0.06134179  0.31132991  1
  Zn  Zn152  1  0.57005331  0.07017705  0.81098048  1
  Zn  Zn153  1  0.56197901  0.56146707  0.30959168  1
  Zn  Zn154  1  0.55389872  0.54121849  0.80072491  1
  Zn  Zn155  1  0.43798935  0.18881957  0.44047073  1
  Zn  Zn156  1  0.43720639  0.18467414  0.93806903  1
  Zn  Zn157  1  0.43524762  0.68682952  0.43074688  1
  Zn  Zn158  1  0.43865436  0.68777537  0.93416090  1
  Zn  Zn159  1  0.93755325  0.19105871  0.44402622  1
  Zn  Zn160  1  0.93280180  0.18514445  0.93939191  1
  Zn  Zn161  1  0.93942025  0.68463280  0.43879783  1
  Zn  Zn162  1  0.93682969  0.68525394  0.93838579  1
  Zn  Zn163  1  0.06135364  0.31061460  0.06421131  1
  Zn  Zn164  1  0.06088095  0.30918691  0.56331348  1
  Zn  Zn165  1  0.05689722  0.80941394  0.06057619  1
  Zn  Zn166  1  0.06557087  0.81776006  0.56031148  1
  Zn  Zn167  1  0.56476186  0.31060125  0.06035857  1
  Zn  Zn168  1  0.56536750  0.31504033  0.56236890  1
  Zn  Zn169  1  0.59187756  0.83111902  0.04214575  1
  Zn  Zn170  1  0.56376463  0.81357586  0.56229511  1
  O  O171  1  0.11253331  0.12400650  0.12189617  1
  O  O172  1  0.12954635  0.11916008  0.61144332  1
  O  O173  1  0.12266355  0.62608942  0.11316525  1
  O  O174  1  0.12235414  0.61837908  0.61529588  1
  O  O175  1  0.61405495  0.11669581  0.13194488  1
  O  O176  1  0.61535915  0.11768642  0.63072506  1
  O  O177  1  0.61873900  0.62065991  0.11429814  1
  O  O178  1  0.61943409  0.62509464  0.61049066  1
  O  O179  1  0.38580501  0.38124160  0.38021336  1
  O  O180  1  0.37033611  0.38659158  0.88205774  1
  O  O181  1  0.38744868  0.87628312  0.37457514  1
  O  O182  1  0.38128336  0.87143490  0.88448353  1
  O  O183  1  0.87573330  0.38647891  0.37230512  1
  O  O184  1  0.88164619  0.37535514  0.87529384  1
  O  O185  1  0.87512699  0.87004760  0.39164500  1
  O  O186  1  0.88007998  0.88300479  0.87489223  1
  O  O187  1  0.25196567  -0.00330050  0.36024937  1
  O  O188  1  0.24328480  0.01050403  0.86761268  1
  O  O189  1  0.26525782  0.49340495  0.37613950  1
  O  O190  1  0.25750898  0.50666023  0.87593398  1
  O  O191  1  0.74471978  0.00089840  0.36734519  1
  O  O192  1  0.75384816  -0.00121146  0.86633011  1
  O  O193  1  0.75460689  0.50209536  0.37335007  1
  O  O194  1  0.75058320  0.51243697  0.88062698  1
  O  O195  1  0.25041105  0.48477601  0.11407141  1
  O  O196  1  0.23673411  0.49919076  0.62387847  1
  O  O197  1  0.24604096  1.00305137  0.14017671  1
  O  O198  1  0.24094457  0.99497861  0.63118892  1
  O  O199  1  0.74660665  0.49324706  0.12685759  1
  O  O200  1  0.74533131  0.48767994  0.61237027  1
  O  O201  1  0.73882066  1.00498361  0.13183422  1
  O  O202  1  0.74323887  0.99442172  0.62908622  1
  O  O203  1  0.00641100  0.36281264  0.25135988  1
  O  O204  1  0.00190815  0.36740529  0.76194528  1
  O  O205  1  0.00365999  0.86585711  0.25539782  1
  O  O206  1  0.00276051  0.88179721  0.76430842  1
  O  O207  1  0.50092736  0.36548710  0.25679313  1
  O  O208  1  0.52531680  0.43228006  0.75976327  1
  O  O209  1  0.50562854  0.87356875  0.25728391  1
  O  O210  1  0.48916279  0.85921203  0.74478441  1
  O  O211  1  0.49518027  0.13145467  0.24391483  1
  O  O212  1  0.48902874  0.11664707  0.74110558  1
  O  O213  1  0.50249549  0.63022447  0.23570547  1
  O  O214  1  0.49172097  0.62935185  0.73822765  1
  O  O215  1  0.99620152  0.12686637  0.24667439  1
  O  O216  1  1.00029076  0.13300182  0.75562295  1
  O  O217  1  1.00093098  0.63784376  0.24898306  1
  O  O218  1  0.98641559  0.62789970  0.75123582  1
  O  O219  1  0.36960812  0.25746710  0.00041129  1
  O  O220  1  0.38145296  0.26074237  0.50960640  1
  O  O221  1  0.36931419  0.75688803  0.00224332  1
  O  O222  1  0.36093944  0.75045154  0.49195764  1
  O  O223  1  0.86511152  0.25055048  0.01022756  1
  O  O224  1  0.86619845  0.25096222  0.51258000  1
  O  O225  1  0.87434540  0.74807490  0.01240444  1
  O  O226  1  0.87103588  0.75597361  0.50843641  1
  O  O227  1  0.12313140  0.23690396  0.49474554  1
  O  O228  1  0.12878938  0.24131520  0.99470389  1
  O  O229  1  0.12932514  0.74407932  0.49296731  1
  O  O230  1  0.13179348  0.74407684  0.99330655  1
  O  O231  1  0.63655410  0.25227852  0.49509180  1
  O  O232  1  0.63869945  0.25268418  0.99277565  1
  O  O233  1  0.63219681  0.74650878  0.49168454  1
  O  O234  1  0.60645990  0.73072763  0.98172595  1
  O  O235  1  0.50252745  0.24319922  0.13337181  1
  O  O236  1  0.49510762  0.24087732  0.62196078  1
  O  O237  1  0.49494626  0.74415410  0.12721456  1
  O  O238  1  0.50239529  0.73867036  0.62703683  1
  O  O239  1  0.99636754  0.24095928  0.13730805  1
  O  O240  1  0.98497054  0.25414120  0.63230541  1
  O  O241  1  0.99094045  0.74730275  0.13325896  1
  O  O242  1  0.99005853  0.75145986  0.61976741  1
  O  O243  1  0.00399001  0.24966698  0.36620629  1
  O  O244  1  0.00062378  0.25288497  0.86952234  1
  O  O245  1  0.00927043  0.75078527  0.36957847  1
  O  O246  1  0.00715426  0.75804088  0.88149859  1
  O  O247  1  0.50686924  0.25726495  0.37100427  1
  O  O248  1  0.51108078  0.25150313  0.88168939  1
  O  O249  1  0.50581408  0.75638997  0.36639993  1
  O  O250  1  0.50550895  0.74626790  0.86018598  1
  O  O251  1  0.24153969  0.11904062  0.50014094  1
  O  O252  1  0.24793416  0.12604650  0.99519881  1
  O  O253  1  0.24046491  0.63411184  0.50370002  1
  O  O254  1  0.24316048  0.63247968  0.99418695  1
  O  O255  1  0.74970369  0.14225869  0.50438004  1
  O  O256  1  0.75241890  0.13823769  1.00544196  1
  O  O257  1  0.74596892  0.63208977  0.49385648  1
  O  O258  1  0.73895182  0.63159237  0.99099020  1
  O  O259  1  0.25761923  0.36735100  0.00315275  1
  O  O260  1  0.26527300  0.37924902  0.50315781  1
  O  O261  1  0.26000391  0.86968890  -0.00772342  1
  O  O262  1  0.24911494  0.86757107  0.50606598  1
  O  O263  1  0.75145751  0.36705478  0.01158666  1
  O  O264  1  0.74616180  0.36178807  0.51728911  1
  O  O265  1  0.70292986  0.85629060  0.01074886  1
  O  O266  1  0.75745941  0.87293853  0.50917785  1
  O  O267  1  0.11365235  0.48480814  0.25478432  1
  O  O268  1  0.12415902  0.49963883  0.74060641  1
  O  O269  1  0.13003797  0.99285997  0.24952807  1
  O  O270  1  0.13526390  1.00222104  0.74153910  1
  O  O271  1  0.63163454  0.49681633  0.24191102  1
  O  O272  1  0.64462321  0.52888658  0.72703406  1
  O  O273  1  0.63563076  0.99731461  0.24690277  1
  O  O274  1  0.63182022  0.99934480  0.73925140  1
  O  O275  1  0.36937904  0.00733052  0.25079372  1
  O  O276  1  0.36111143  0.00980324  0.74445109  1
  O  O277  1  0.37806386  0.49977086  0.26152926  1
  O  O278  1  0.37267145  0.50932135  0.75809763  1
  O  O279  1  0.86101142  0.00398484  0.25002262  1
  O  O280  1  0.86525875  -0.00341978  0.75781895  1
  O  O281  1  0.86870572  0.50173865  0.25862059  1
  O  O282  1  0.87740703  0.51578030  0.75074276  1
  O  O283  1  0.12330542  0.36471252  0.36875518  1
  O  O284  1  0.11691115  0.36349887  0.87536849  1
  O  O285  1  0.12065813  0.86721015  0.36606861  1
  O  O286  1  0.11680678  0.86525985  0.87158491  1
  O  O287  1  0.61364451  0.37131409  0.37587247  1
  O  O288  1  0.63514596  0.35532120  0.87340469  1
  O  O289  1  0.61529765  0.87211125  0.36713829  1
  O  O290  1  0.61860595  0.85987893  0.86663540  1
  O  O291  1  0.38647462  0.12760355  0.13669562  1
  O  O292  1  0.38246210  0.13253913  0.63221531  1
  O  O293  1  0.38241624  0.63616344  0.12415890  1
  O  O294  1  0.38295609  0.61764511  0.63136831  1
  O  O295  1  0.88613730  0.12787561  0.13467287  1
  O  O296  1  0.87394725  0.13604127  0.62429831  1
  O  O297  1  0.87935715  0.63405316  0.12846503  1
  O  O298  1  0.87692554  0.63403361  0.63597108  1
  O  O299  1  0.25147328  0.25740518  0.11621826  1
  O  O300  1  0.26469932  0.24885196  0.62727074  1
  O  O301  1  0.25987686  0.75345840  0.10745609  1
  O  O302  1  0.24208797  0.75908692  0.61344032  1
  O  O303  1  0.75018242  0.25521127  0.11880311  1
  O  O304  1  0.75926366  0.25537685  0.62025312  1
  O  O305  1  0.76479459  0.74582558  0.12609622  1
  O  O306  1  0.75595024  0.75719855  0.62003218  1
  O  O307  1  0.24278985  0.25351913  0.37180455  1
  O  O308  1  0.24443412  0.23798498  0.88039235  1
  O  O309  1  0.23660948  0.75520398  0.38230454  1
  O  O310  1  0.24335809  0.74479850  0.88287930  1
  O  O311  1  0.74268250  0.25768267  0.38984387  1
  O  O312  1  0.75647686  0.24750540  0.88995069  1
  O  O313  1  0.74461492  0.74498971  0.37865328  1
  O  O314  1  0.73912822  0.74109642  0.87305607  1
  O  O315  1  0.00177289  0.11710887  0.00991745  1
  O  O316  1  0.00522198  0.11417223  0.50119683  1
  O  O317  1  0.00792549  0.61448933  -0.00086628  1
  O  O318  1  0.00822785  0.61450775  0.50369992  1
  O  O319  1  0.49325124  0.11752299  0.01201100  1
  O  O320  1  0.49620033  0.11711582  0.51168777  1
  O  O321  1  0.50114370  0.61750613  0.00996129  1
  O  O322  1  0.50423558  0.62409182  0.50189835  1
  O  O323  1  0.49393560  0.38163549  0.49292721  1
  O  O324  1  0.48706049  0.38182641  1.00739814  1
  O  O325  1  0.49878443  0.88018938  0.49215856  1
  O  O326  1  0.49645389  0.88603629  0.99405677  1
  O  O327  1  1.00581628  0.38904844  0.49840223  1
  O  O328  1  0.99929883  0.37767934  0.99108479  1
  O  O329  1  0.99397572  0.88663405  0.49951259  1
  O  O330  1  1.00565066  0.88374985  0.98843872  1
  O  O331  1  0.49613131  0.49283693  0.37772480  1
  O  O332  1  0.48830266  0.51136831  0.89329518  1
  O  O333  1  0.50118029  0.99321559  0.38353313  1
  O  O334  1  0.50896071  1.00406855  0.88620842  1
  O  O335  1  0.98983129  0.49808218  0.38356750  1
  O  O336  1  0.99812703  0.48812057  0.88325253  1
  O  O337  1  1.00333129  0.99900498  0.39154433  1
  O  O338  1  0.99232114  0.99300580  0.88233608  1
  O  O339  1  -0.00050795  0.00395093  0.11996604  1
  O  O340  1  0.01380915  -0.00430852  0.61640451  1
  O  O341  1  -0.00292591  0.49653974  0.11157066  1
  O  O342  1  0.00952579  0.50200832  0.62006988  1
  O  O343  1  0.50884673  0.00825902  0.11886846  1
  O  O344  1  0.50607162  0.00584000  0.62062770  1
  O  O345  1  0.50218446  0.50651224  0.11713689  1
  O  O346  1  0.50876780  0.51379082  0.61371101  1
  O  O347  1  0.24091202  0.37151034  0.23907643  1
  O  O348  1  0.24596664  0.37694007  0.74646491  1
  O  O349  1  0.23968600  0.88127096  0.25002733  1
  O  O350  1  0.24811183  0.88218365  0.74495134  1
  O  O351  1  0.74853211  0.37799489  0.23894059  1
  O  O352  1  0.74329623  0.37135185  0.73113942  1
  O  O353  1  0.74152387  0.88894491  0.25537046  1
  O  O354  1  0.75381360  0.88226176  0.73715884  1
  O  O355  1  0.26103557  0.11995015  0.24667710  1
  O  O356  1  0.25739620  0.11907984  0.75806945  1
  O  O357  1  0.24152216  0.62548911  0.23862083  1
  O  O358  1  0.25649804  0.62228356  0.75533938  1
  O  O359  1  0.75838478  0.11272488  0.25020934  1
  O  O360  1  0.74869058  0.11252855  0.74894675  1
  O  O361  1  0.74806205  0.61668455  0.25900142  1
  O  O362  1  0.76459866  0.63169433  0.75709682  1
  O  O363  1  0.38424983  0.12360534  0.36227122  1
  O  O364  1  0.36650281  0.12777186  0.86679547  1
  O  O365  1  0.37783206  0.61020055  0.36734642  1
  O  O366  1  0.36903639  0.61572640  0.86970540  1
  O  O367  1  0.87985430  0.12797525  0.36588444  1
  O  O368  1  0.87035776  0.10762014  0.88109952  1
  O  O369  1  0.86675230  0.61636761  0.37339025  1
  O  O370  1  0.86755850  0.62633251  0.86451877  1
  O  O371  1  0.13252480  0.36759137  0.13577533  1
  O  O372  1  0.12642492  0.38200232  0.62509284  1
  O  O373  1  0.11776218  0.87209805  0.13874332  1
  O  O374  1  0.13411467  0.88426532  0.62742246  1
  O  O375  1  0.63206944  0.38186562  0.12550597  1
  O  O376  1  0.62976466  0.38644243  0.62756252  1
  O  O377  1  0.61333237  0.88936635  0.14194210  1
  O  O378  1  0.63464463  0.88334113  0.62114855  1
  O  O379  1  0.11886583  0.25326059  0.25903760  1
  O  O380  1  0.11493701  0.24723568  0.75566334  1
  O  O381  1  0.11702181  0.75785805  0.25698983  1
  O  O382  1  0.12905257  0.74737215  0.76317402  1
  O  O383  1  0.61690338  0.25095110  0.25913542  1
  O  O384  1  0.62147326  0.25133408  0.76204969  1
  O  O385  1  0.62108798  0.75950599  0.25174777  1
  O  O386  1  0.61221608  0.74009214  0.75400078  1
  O  O387  1  0.38710823  0.24488841  0.25010063  1
  O  O388  1  0.37676165  0.23992665  0.74279106  1
  O  O389  1  0.37974968  0.74986437  0.23997507  1
  O  O390  1  0.38004050  0.73443484  0.75426548  1
  O  O391  1  0.88101705  0.24150152  0.24725930  1
  O  O392  1  0.87958448  0.25018101  0.73657757  1
  O  O393  1  0.88139795  0.74873991  0.24534669  1
  O  O394  1  0.87307075  0.74291177  0.74031523  1
  O  O395  1  0.38249581  0.49535749  0.48895794  1
  O  O396  1  0.37955205  0.49271261  0.99470379  1
  O  O397  1  0.38769300  0.99628630  0.49980742  1
  O  O398  1  0.38622817  0.99069261  1.00652841  1
  O  O399  1  0.88410323  0.50566424  0.49289678  1
  O  O400  1  0.88402335  0.49741469  0.99523970  1
  O  O401  1  0.88872935  0.99487747  0.50913314  1
  O  O402  1  0.88443711  0.99870979  0.99607670  1
  O  O403  1  0.11370563  0.00494615  0.00210839  1
  O  O404  1  0.11854092  0.01035937  0.50401428  1
  O  O405  1  0.11719310  0.50958226  -0.00652376  1
  O  O406  1  0.12043908  0.50670563  0.50382908  1
  O  O407  1  0.61747942  0.00066538  0.00940757  1
  O  O408  1  0.61287373  -0.00290862  0.51219068  1
  O  O409  1  0.61643381  0.50627225  0.00224432  1
  O  O410  1  0.61950162  0.50815298  0.50277135  1
  O  O411  1  0.36692217  0.37111818  0.11698410  1
  O  O412  1  0.37950772  0.36884068  0.61861502  1
  O  O413  1  0.38397648  0.86422565  0.11336710  1
  O  O414  1  0.35877553  0.87855775  0.62270658  1
  O  O415  1  0.86638053  0.36587721  0.12570032  1
  O  O416  1  0.86460486  0.37308882  0.62856772  1
  O  O417  1  0.87721402  0.85818749  0.12774541  1
  O  O418  1  0.86984662  0.86909039  0.61821081  1
  O  O419  1  0.12514196  0.13320287  0.38950620  1
  O  O420  1  0.13159667  0.12808867  0.88262166  1
  O  O421  1  0.12207212  0.63253430  0.38790280  1
  O  O422  1  0.12801834  0.63120849  0.88292114  1
  O  O423  1  0.61944459  0.13665547  0.37547443  1
  O  O424  1  0.63163329  0.14287355  0.87481961  1
  O  O425  1  0.63052957  0.62955493  0.37899860  1
  O  O426  1  0.62911711  0.62378979  0.87532478  1
