# generated using pymatgen
data_V85Zn86O256
_symmetry_space_group_name_H-M   'P 1'
_cell_length_a   16.95195863
_cell_length_b   16.95847288
_cell_length_c   16.95195495
_cell_angle_alpha   89.97419085
_cell_angle_beta   89.91485308
_cell_angle_gamma   90.10296326
_symmetry_Int_Tables_number   1
_chemical_formula_structural   V85Zn86O256
_chemical_formula_sum   'V85 Zn86 O256'
_cell_volume   4873.32291223
_cell_formula_units_Z   1
loop_
 _symmetry_equiv_pos_site_id
 _symmetry_equiv_pos_as_xyz
  1  'x, y, z'
loop_
 _atom_site_type_symbol
 _atom_site_label
 _atom_site_symmetry_multiplicity
 _atom_site_fract_x
 _atom_site_fract_y
 _atom_site_fract_z
 _atom_site_occupancy
  V  V0  1  0.00214967  0.12783114  0.12544797  1
  V  V1  1  0.37459050  0.00052813  0.87497305  1
  V  V2  1  0.86801732  0.62468555  0.25577662  1
  V  V3  1  0.24504658  0.63455707  0.38634059  1
  V  V4  1  0.00364601  0.74502039  0.74952862  1
  V  V5  1  0.00582201  0.00389769  -0.00184063  1
  V  V6  1  0.87542131  0.87381274  -0.00068304  1
  V  V7  1  0.74677730  0.62324089  0.88331516  1
  V  V8  1  -0.00487912  0.49078166  0.50177356  1
  V  V9  1  0.12538028  0.00484768  0.12510957  1
  V  V10  1  0.87446234  0.25117095  0.12659005  1
  V  V11  1  0.75468523  0.37669590  0.60586978  1
  V  V12  1  0.68769831  0.04683888  0.69166470  1
  V  V13  1  0.00463320  0.50448935  -0.00069916  1
  V  V14  1  0.74047407  0.37452185  0.13065436  1
  V  V15  1  0.25368330  0.00011295  0.74202038  1
  V  V16  1  0.62154229  0.49845221  0.62795146  1
  V  V17  1  0.12527048  0.87478079  0.25228695  1
  V  V18  1  0.62566082  0.11892394  0.01165478  1
  V  V19  1  0.13035968  0.87552398  0.74795419  1
  V  V20  1  0.24474007  0.23342349  0.50339597  1
  V  V21  1  0.24852720  0.50185275  0.26155724  1
  V  V22  1  -0.00128404  0.36844079  0.87207116  1
  V  V23  1  0.74880784  0.24942114  -0.00189689  1
  V  V24  1  0.37260836  0.37524602  -0.00059964  1
  V  V25  1  0.24470212  0.62187635  0.87808510  1
  V  V26  1  0.61356240  0.24980767  0.88061243  1
  V  V27  1  0.38099143  0.24802198  0.62011016  1
  V  V28  1  0.87165947  0.49133928  0.37602596  1
  V  V29  1  0.86225396  0.12390310  0.24960611  1
  V  V30  1  0.50446370  -0.00129837  0.01104324  1
  V  V31  1  0.50453949  0.37994380  0.35913372  1
  V  V32  1  0.37613038  0.74715552  0.12661262  1
  V  V33  1  0.73750224  0.50162930  0.25497703  1
  V  V34  1  0.00146998  0.62488103  0.12369560  1
  V  V35  1  0.37825010  0.12823790  0.75203660  1
  V  V36  1  0.05518960  0.67253965  0.56438571  1
  V  V37  1  -0.00494744  0.87796633  0.37342065  1
  V  V38  1  0.37304789  0.87407210  0.00039744  1
  V  V39  1  0.74855739  0.13748226  0.39934905  1
  V  V40  1  0.87617985  0.49977287  0.87619087  1
  V  V41  1  0.00221717  0.87461810  0.87275128  1
  V  V42  1  0.39055024  0.86468764  0.49260960  1
  V  V43  1  0.26054989  0.00023105  0.25010166  1
  V  V44  1  0.87075791  -0.00135143  0.86563767  1
  V  V45  1  0.12349968  0.24563106  0.87985401  1
  V  V46  1  0.12191538  0.36972758  0.74888125  1
  V  V47  1  0.00672537  0.01080680  0.49837873  1
  V  V48  1  0.62338216  0.74441050  0.87997502  1
  V  V49  1  0.37369164  0.62253212  0.25422937  1
  V  V50  1  0.25988891  0.86046191  0.61422704  1
  V  V51  1  0.87509227  0.37525041  0.00224722  1
  V  V52  1  0.37393918  0.37366983  0.49019242  1
  V  V53  1  0.24853382  0.37364803  0.12540170  1
  V  V54  1  0.11927751  0.37275719  0.25554894  1
  V  V55  1  0.87510613  0.25357876  0.61978451  1
  V  V56  1  0.87264598  0.74395569  0.62585324  1
  V  V57  1  -0.00158593  0.74987911  0.25004759  1
  V  V58  1  0.74886872  0.87148828  0.63068765  1
  V  V59  1  0.48600209  0.62466771  0.62825716  1
  V  V60  1  0.48677940  0.74396663  0.74711590  1
  V  V61  1  0.37478591  0.50426896  0.87007647  1
  V  V62  1  0.61291733  0.24474044  0.37469985  1
  V  V63  1  0.75030823  0.49509365  0.75266495  1
  V  V64  1  0.11870521  0.50055937  0.62125775  1
  V  V65  1  0.24322406  0.74509017  0.00232056  1
  V  V66  1  0.12486295  0.74594934  0.87781621  1
  V  V67  1  0.87258486  0.87739575  0.50294515  1
  V  V68  1  0.12533571  0.50525253  0.12454725  1
  V  V69  1  0.87873660  0.62404220  0.74985891  1
  V  V70  1  0.25276624  0.50388812  0.74635987  1
  V  V71  1  0.62510454  0.51105819  0.12178348  1
  V  V72  1  0.50064139  0.87311396  0.87372325  1
  V  V73  1  0.74356151  0.89439598  0.12977318  1
  V  V74  1  0.86492908  0.00176212  0.37261740  1
  V  V75  1  0.63350140  0.62302559  0.49823176  1
  V  V76  1  0.25108242  0.37438203  0.62266190  1
  V  V77  1  0.50282055  0.50741184  -0.00231848  1
  V  V78  1  0.62404748  0.87003217  0.74658611  1
  V  V79  1  0.49411826  0.49748610  0.49715366  1
  V  V80  1  0.24733834  0.12397802  0.88155984  1
  V  V81  1  0.51473711  0.01301580  0.49928433  1
  V  V82  1  0.00787531  0.13287612  0.63190510  1
  V  V83  1  0.87120798  0.75056323  0.12664680  1
  V  V84  1  0.25028894  0.12133377  0.36930996  1
  Zn  Zn85  1  0.87901400  0.13222155  0.75295431  1
  Zn  Zn86  1  0.24783217  0.87483878  0.12500410  1
  Zn  Zn87  1  0.63983937  0.74093115  0.36606454  1
  Zn  Zn88  1  0.38984751  -0.00197060  0.37372377  1
  Zn  Zn89  1  0.49467432  0.12867644  0.15149371  1
  Zn  Zn90  1  0.50207469  0.25211519  0.74641285  1
  Zn  Zn91  1  0.74480166  0.74876453  0.00188192  1
  Zn  Zn92  1  0.51245499  0.12092579  0.62402932  1
  Zn  Zn93  1  0.12057187  0.74715393  0.38629080  1
  Zn  Zn94  1  0.74908687  0.11873484  0.87514297  1
  Zn  Zn95  1  0.62285829  0.37389070  0.75315844  1
  Zn  Zn96  1  0.50302246  0.62867370  0.12111046  1
  Zn  Zn97  1  0.61760454  0.88057364  0.25751836  1
  Zn  Zn98  1  -0.00300586  0.36794062  0.38099178  1
  Zn  Zn99  1  0.13397575  0.00803715  0.61693797  1
  Zn  Zn100  1  -0.00017436  0.24746760  0.25512402  1
  Zn  Zn101  1  0.11920804  0.24082600  0.38280425  1
  Zn  Zn102  1  0.49885215  0.37674014  0.87352251  1
  Zn  Zn103  1  0.74991639  0.74692259  0.49495848  1
  Zn  Zn104  1  0.50005126  0.75840326  0.26314291  1
  Zn  Zn105  1  0.38262978  0.25116093  0.15147002  1
  Zn  Zn106  1  0.24683209  0.24386089  0.00517241  1
  Zn  Zn107  1  0.19002199  0.18843616  0.19167422  1
  Zn  Zn108  1  0.18861326  0.18835270  0.69136590  1
  Zn  Zn109  1  0.18786834  0.68740598  0.19000548  1
  Zn  Zn110  1  0.19551418  0.68745410  0.69196851  1
  Zn  Zn111  1  0.67814089  0.18753180  0.19495146  1
  Zn  Zn112  1  0.69550631  0.20895405  0.69121938  1
  Zn  Zn113  1  0.68725461  0.69090312  0.18890835  1
  Zn  Zn114  1  0.68456648  0.68307442  0.69061275  1
  Zn  Zn115  1  0.30315075  0.31630140  0.31926101  1
  Zn  Zn116  1  0.31177588  0.31286151  0.81347309  1
  Zn  Zn117  1  0.31246820  0.81081626  0.31583561  1
  Zn  Zn118  1  0.31058702  0.81266526  0.81328480  1
  Zn  Zn119  1  0.80860138  0.31231241  0.31024818  1
  Zn  Zn120  1  0.81266207  0.31050087  0.81141715  1
  Zn  Zn121  1  0.77983106  0.82572896  0.32682650  1
  Zn  Zn122  1  0.81127215  0.81180386  0.81183491  1
  Zn  Zn123  1  0.18368015  0.43862279  0.44034089  1
  Zn  Zn124  1  0.18525445  0.43685987  0.93825252  1
  Zn  Zn125  1  0.18982162  0.93562027  0.43500942  1
  Zn  Zn126  1  0.18809780  0.93723147  0.93654919  1
  Zn  Zn127  1  0.67919568  0.44140042  0.43235491  1
  Zn  Zn128  1  0.68532698  0.43569949  0.94115458  1
  Zn  Zn129  1  0.68177214  0.93916063  0.43824294  1
  Zn  Zn130  1  0.68843689  0.93393244  0.93905177  1
  Zn  Zn131  1  0.31424076  0.06203846  0.06586378  1
  Zn  Zn132  1  0.32877359  0.05850289  0.55814130  1
  Zn  Zn133  1  0.31063575  0.56166042  0.06224458  1
  Zn  Zn134  1  0.31156574  0.56076863  0.55927545  1
  Zn  Zn135  1  0.81977642  0.06501250  0.05575309  1
  Zn  Zn136  1  0.82461318  0.06519244  0.56335411  1
  Zn  Zn137  1  0.81348536  0.56202781  0.06559206  1
  Zn  Zn138  1  0.81706353  0.55759034  0.56466665  1
  Zn  Zn139  1  0.43249407  0.44497259  0.18298795  1
  Zn  Zn140  1  0.43736096  0.43305842  0.68896290  1
  Zn  Zn141  1  0.44228644  0.93244256  0.18839940  1
  Zn  Zn142  1  0.44005751  0.93671129  0.68041464  1
  Zn  Zn143  1  0.93442618  0.43803897  0.18998772  1
  Zn  Zn144  1  0.93747786  0.43581655  0.68661201  1
  Zn  Zn145  1  0.93314031  0.93959900  0.18889778  1
  Zn  Zn146  1  0.94203261  0.93838874  0.68468459  1
  Zn  Zn147  1  0.06403223  0.06502372  0.31239771  1
  Zn  Zn148  1  0.06512195  0.06087276  0.80874067  1
  Zn  Zn149  1  0.06082145  0.56266735  0.31613513  1
  Zn  Zn150  1  0.06430757  0.56000377  0.81035207  1
  Zn  Zn151  1  0.57443605  0.04788396  0.30948040  1
  Zn  Zn152  1  0.55629717  0.06873465  0.82644198  1
  Zn  Zn153  1  0.54932464  0.58433647  0.32469928  1
  Zn  Zn154  1  0.56164457  0.56385067  0.81098650  1
  Zn  Zn155  1  0.43300323  0.18192053  0.32257646  1
  Zn  Zn156  1  0.44070814  0.19255900  1.00570740  1
  Zn  Zn157  1  0.43947516  0.68586710  0.43664920  1
  Zn  Zn158  1  0.43201638  0.68594248  0.93483777  1
  Zn  Zn159  1  0.93562645  0.18861050  0.44009495  1
  Zn  Zn160  1  0.93670508  0.18500257  0.93772392  1
  Zn  Zn161  1  0.91976191  0.69283614  0.42823481  1
  Zn  Zn162  1  0.93709984  0.68645545  0.93762602  1
  Zn  Zn163  1  0.06366031  0.31485155  0.06234996  1
  Zn  Zn164  1  0.06165274  0.31025647  0.56455123  1
  Zn  Zn165  1  0.06177867  0.81573640  0.06449919  1
  Zn  Zn166  1  0.06602465  0.83839524  0.56190682  1
  Zn  Zn167  1  0.56158929  0.32019115  0.06456406  1
  Zn  Zn168  1  0.56498528  0.30919121  0.55459661  1
  Zn  Zn169  1  0.56314345  0.81300100  0.06615721  1
  Zn  Zn170  1  0.56139958  0.80677597  0.56274661  1
  O  O171  1  0.11830588  0.11301003  0.13004344  1
  O  O172  1  0.11331883  0.12608365  0.62900583  1
  O  O173  1  0.11966041  0.61255332  0.13037860  1
  O  O174  1  0.12180242  0.62082379  0.62618611  1
  O  O175  1  0.61995811  0.13074575  0.11380111  1
  O  O176  1  0.63467748  0.11750040  0.64110305  1
  O  O177  1  0.62540549  0.61504913  0.12175840  1
  O  O178  1  0.61860017  0.61066303  0.62305164  1
  O  O179  1  0.38178864  0.37329870  0.38689026  1
  O  O180  1  0.37044448  0.38998762  0.87956518  1
  O  O181  1  0.36922288  0.87766305  0.38999802  1
  O  O182  1  0.37846201  0.87711600  0.88507975  1
  O  O183  1  0.87943146  0.38782792  0.36575586  1
  O  O184  1  0.88222715  0.37946074  0.87956990  1
  O  O185  1  0.87361943  0.88576201  0.38083977  1
  O  O186  1  0.88067730  0.87880753  0.88093340  1
  O  O187  1  0.24753750  0.00376885  0.36361374  1
  O  O188  1  0.25362060  0.00394700  0.86420732  1
  O  O189  1  0.24135996  0.50813973  0.36523806  1
  O  O190  1  0.25105119  0.50521588  0.86822322  1
  O  O191  1  0.76225510  0.01563839  0.38747340  1
  O  O192  1  0.76529490  -0.00091996  0.88328607  1
  O  O193  1  0.75649033  0.49423540  0.36438353  1
  O  O194  1  0.75378658  0.50463197  0.87145403  1
  O  O195  1  0.24065308  0.49275548  0.13121761  1
  O  O196  1  0.24183997  0.49693711  0.63041914  1
  O  O197  1  0.24160380  0.99877038  0.13070961  1
  O  O198  1  0.25471190  0.99885718  0.63356205  1
  O  O199  1  0.74263616  0.49377029  0.12803447  1
  O  O200  1  0.74576519  0.49212783  0.63411250  1
  O  O201  1  0.75640383  0.99206159  0.11573431  1
  O  O202  1  0.75261957  0.99424826  0.62971020  1
  O  O203  1  0.01064138  0.37490982  0.24845907  1
  O  O204  1  0.00879178  0.38187772  0.76085988  1
  O  O205  1  0.00402314  0.87219888  0.25505361  1
  O  O206  1  0.00902548  0.86720658  0.75259389  1
  O  O207  1  0.49059743  0.38513724  0.26180993  1
  O  O208  1  0.50330329  0.36985249  0.75587550  1
  O  O209  1  0.50197963  0.87095358  0.25457992  1
  O  O210  1  0.50612133  0.86732205  0.75295688  1
  O  O211  1  0.50932366  0.12640707  0.26188088  1
  O  O212  1  0.48783496  0.12773203  0.75052805  1
  O  O213  1  0.47894007  0.61157184  0.23780849  1
  O  O214  1  0.50162373  0.63128609  0.74063724  1
  O  O215  1  0.99295114  0.12439856  0.23731974  1
  O  O216  1  0.99919405  0.11982421  0.73531859  1
  O  O217  1  0.99305919  0.62905016  0.24269628  1
  O  O218  1  0.99251559  0.63251938  0.75706591  1
  O  O219  1  0.36248872  0.27151240  -0.01686533  1
  O  O220  1  0.35939841  0.25846643  0.50941006  1
  O  O221  1  0.36391487  0.75489726  0.00344634  1
  O  O222  1  0.38315266  0.76378370  0.49756273  1
  O  O223  1  0.86759444  0.25387095  0.00575706  1
  O  O224  1  0.87955006  0.24986227  0.51872213  1
  O  O225  1  0.87660921  0.75950074  0.00529898  1
  O  O226  1  0.87539995  0.75772542  0.51174166  1
  O  O227  1  0.14239684  0.25603812  0.50351879  1
  O  O228  1  0.12842315  0.25799336  0.98451083  1
  O  O229  1  0.10785140  0.74087743  0.50892840  1
  O  O230  1  0.13657815  0.75577331  0.99747071  1
  O  O231  1  0.63162810  0.26489919  0.47384741  1
  O  O232  1  0.63302779  0.24493608  0.99691774  1
  O  O233  1  0.62581506  0.73102519  0.50158638  1
  O  O234  1  0.62518894  0.75599669  0.98439856  1
  O  O235  1  0.49053894  0.24489048  0.10350966  1
  O  O236  1  0.49483471  0.24491052  0.62326286  1
  O  O237  1  0.48494136  0.74696354  0.12004240  1
  O  O238  1  0.50524582  0.73549661  0.63528072  1
  O  O239  1  0.99578561  0.24211203  0.12336697  1
  O  O240  1  0.99590840  0.24007370  0.62691234  1
  O  O241  1  0.99118776  0.74588423  0.12732543  1
  O  O242  1  0.99941462  0.74378566  0.62433113  1
  O  O243  1  0.00285505  0.25094129  0.37398071  1
  O  O244  1  0.00464643  0.26097811  0.88016837  1
  O  O245  1  -0.00165053  0.75795653  0.36739286  1
  O  O246  1  0.00645091  0.75535853  0.87198345  1
  O  O247  1  0.50632235  0.26496325  0.37359495  1
  O  O248  1  0.51121594  0.24938079  0.88357177  1
  O  O249  1  0.52161481  0.70141241  0.36219366  1
  O  O250  1  0.50508110  0.75250882  0.87013651  1
  O  O251  1  0.25169446  0.13149178  0.50092851  1
  O  O252  1  0.24970302  0.12207959  0.98476611  1
  O  O253  1  0.24982616  0.61962469  0.48481908  1
  O  O254  1  0.25052258  0.63291014  0.99170451  1
  O  O255  1  0.75454024  0.12884748  0.49742243  1
  O  O256  1  0.74437886  0.13348239  1.00076277  1
  O  O257  1  0.73451327  0.62191340  0.51848634  1
  O  O258  1  0.75711822  0.62594456  0.98662161  1
  O  O259  1  0.25362509  0.38028548  0.01134497  1
  O  O260  1  0.25763067  0.37573278  0.50633964  1
  O  O261  1  0.25751532  0.86707262  -0.00057244  1
  O  O262  1  0.25479089  0.87687220  0.51162643  1
  O  O263  1  0.75659729  0.36918473  0.00825925  1
  O  O264  1  0.75165739  0.39004645  0.50879434  1
  O  O265  1  0.76227138  0.87201484  0.00809161  1
  O  O266  1  0.75521143  0.87345152  0.51801338  1
  O  O267  1  0.12875221  0.49397474  0.24322464  1
  O  O268  1  0.12936470  0.49230325  0.73945455  1
  O  O269  1  0.12688550  0.98916979  0.24269251  1
  O  O270  1  0.13758439  0.99297294  0.74730437  1
  O  O271  1  0.63497464  0.51039235  0.24370899  1
  O  O272  1  0.63261651  0.49813113  0.74437353  1
  O  O273  1  0.64330055  0.98946036  0.24831041  1
  O  O274  1  0.62397145  0.99367615  0.75416001  1
  O  O275  1  0.36276188  -0.00663098  0.24973633  1
  O  O276  1  0.37038800  0.00524244  0.75376954  1
  O  O277  1  0.35690462  0.50752338  0.24359023  1
  O  O278  1  0.36389161  0.49448473  0.75682599  1
  O  O279  1  0.88070024  0.01050747  0.26260601  1
  O  O280  1  0.88310195  -0.00213023  0.76352148  1
  O  O281  1  0.86710137  0.50767185  0.25381767  1
  O  O282  1  0.86940246  0.50342015  0.75698611  1
  O  O283  1  0.12195217  0.37469127  0.36650361  1
  O  O284  1  0.11766749  0.37109491  0.86789657  1
  O  O285  1  0.11665233  0.87012208  0.36763091  1
  O  O286  1  0.12234995  0.86744745  0.86788406  1
  O  O287  1  0.60797153  0.37530006  0.37048924  1
  O  O288  1  0.62310877  0.36426039  0.87784063  1
  O  O289  1  0.66725970  0.85896726  0.36446158  1
  O  O290  1  0.62206335  0.86800855  0.86426764  1
  O  O291  1  0.38421996  0.14029163  0.10127641  1
  O  O292  1  0.37334939  0.13707068  0.63311045  1
  O  O293  1  0.36900896  0.63385470  0.13131834  1
  O  O294  1  0.38668461  0.61856264  0.62330722  1
  O  O295  1  0.88116936  0.13058175  0.13108410  1
  O  O296  1  0.88631077  0.13330911  0.63104546  1
  O  O297  1  0.88207048  0.63168520  0.12973169  1
  O  O298  1  0.87176675  0.63635818  0.63221873  1
  O  O299  1  0.24603999  0.26410086  0.12302383  1
  O  O300  1  0.25485289  0.25340403  0.61839029  1
  O  O301  1  0.25690607  0.75132968  0.11774556  1
  O  O302  1  0.25072316  0.76228550  0.62713042  1
  O  O303  1  0.75058486  0.25785517  0.11739724  1
  O  O304  1  0.75462043  0.26973239  0.61898167  1
  O  O305  1  0.76410908  0.74968693  0.11958538  1
  O  O306  1  0.75791536  0.75480432  0.62775746  1
  O  O307  1  0.24558975  0.24175284  0.39109484  1
  O  O308  1  0.24074663  0.24021726  0.87287882  1
  O  O309  1  0.24124543  0.73913809  0.37466940  1
  O  O310  1  0.24566054  0.74116976  0.88102973  1
  O  O311  1  0.75994664  0.23778779  0.38135961  1
  O  O312  1  0.74609421  0.25061247  0.88919212  1
  O  O313  1  0.76138331  0.73061457  0.38242872  1
  O  O314  1  0.74300100  0.74047045  0.87465886  1
  O  O315  1  -0.00506143  0.11577828  0.01283696  1
  O  O316  1  -0.00356705  0.11834271  0.51340027  1
  O  O317  1  -0.00459120  0.61162940  0.00462060  1
  O  O318  1  -0.00425516  0.62092102  0.50019158  1
  O  O319  1  0.51383216  0.10869994  -0.01427928  1
  O  O320  1  0.50663055  0.11293580  0.50587962  1
  O  O321  1  0.48988329  0.61179609  0.00129067  1
  O  O322  1  0.50803730  0.61429796  0.51088955  1
  O  O323  1  0.49188178  0.38137803  0.49579330  1
  O  O324  1  0.48878229  0.38893730  0.99523935  1
  O  O325  1  0.49328168  0.87531341  0.50286373  1
  O  O326  1  0.49351644  0.87962042  0.99501979  1
  O  O327  1  1.00238666  0.38691240  0.50150703  1
  O  O328  1  0.99435046  0.38397556  0.99383636  1
  O  O329  1  0.99010168  0.88442418  0.49268179  1
  O  O330  1  0.99301149  0.88062503  0.99336922  1
  O  O331  1  0.50130796  0.49134431  0.38556801  1
  O  O332  1  0.49025536  0.50229447  0.87859029  1
  O  O333  1  0.50468615  1.00217204  0.39162121  1
  O  O334  1  0.49112285  0.98914339  0.87974427  1
  O  O335  1  0.99361378  0.49767359  0.38508713  1
  O  O336  1  0.99832895  0.49141470  0.88250711  1
  O  O337  1  0.99152129  0.99891899  0.38156402  1
  O  O338  1  0.99880709  0.99412874  0.88141103  1
  O  O339  1  0.00531736  0.00567630  0.11796114  1
  O  O340  1  0.00310332  0.01035178  0.61634186  1
  O  O341  1  0.00553413  0.50304293  0.11804838  1
  O  O342  1  0.00543545  0.50156432  0.61847459  1
  O  O343  1  0.49176430  0.00515246  0.11236452  1
  O  O344  1  0.49573064  0.00549192  0.61280453  1
  O  O345  1  0.50899731  0.49998518  0.11531554  1
  O  O346  1  0.50673024  0.50248489  0.62236242  1
  O  O347  1  0.23914983  0.38459941  0.24625564  1
  O  O348  1  0.24211684  0.38460458  0.74399606  1
  O  O349  1  0.24062776  0.88032253  0.24880501  1
  O  O350  1  0.25184048  0.88203344  0.74058295  1
  O  O351  1  0.75626509  0.38705418  0.23803855  1
  O  O352  1  0.74773955  0.38813050  0.75079217  1
  O  O353  1  0.77038627  0.87671143  0.22551056  1
  O  O354  1  0.74231954  0.87202915  0.74061874  1
  O  O355  1  0.24525195  0.11144962  0.25529538  1
  O  O356  1  0.25839129  0.11746532  0.75474646  1
  O  O357  1  0.25454674  0.61854349  0.25481770  1
  O  O358  1  0.24673731  0.61107723  0.75797966  1
  O  O359  1  0.76145170  0.12829563  0.25139168  1
  O  O360  1  0.74612143  0.11238103  0.74853721  1
  O  O361  1  0.76136182  0.61488673  0.23871493  1
  O  O362  1  0.75619187  0.61318470  0.75797295  1
  O  O363  1  0.35617561  0.11526138  0.38109499  1
  O  O364  1  0.36383953  0.11736403  0.86500187  1
  O  O365  1  0.35813115  0.62921891  0.36523122  1
  O  O366  1  0.36104967  0.61247389  0.87751233  1
  O  O367  1  0.86728288  0.12121093  0.36969332  1
  O  O368  1  0.87204246  0.11594380  0.87131327  1
  O  O369  1  0.88150894  0.61078085  0.36022291  1
  O  O370  1  0.86842530  0.61861598  0.86971049  1
  O  O371  1  0.12949548  0.38467171  0.13195886  1
  O  O372  1  0.12856833  0.38180762  0.63230219  1
  O  O373  1  0.12443212  0.88739179  0.13195715  1
  O  O374  1  0.14233720  0.88220964  0.63127468  1
  O  O375  1  0.63553025  0.38719018  0.12111263  1
  O  O376  1  0.63638516  0.38344494  0.62522821  1
  O  O377  1  0.64266600  0.87259709  0.12171696  1
  O  O378  1  0.63224384  0.86574123  0.63860354  1
  O  O379  1  0.12309284  0.26089672  0.25218664  1
  O  O380  1  0.12943931  0.26426351  0.75883467  1
  O  O381  1  0.11694261  0.76356501  0.24328619  1
  O  O382  1  0.12194436  0.75423521  0.75568445  1
  O  O383  1  0.64337573  0.25847487  0.27656254  1
  O  O384  1  0.62348428  0.25266241  0.76532210  1
  O  O385  1  0.62113611  0.75599955  0.24814688  1
  O  O386  1  0.61812897  0.75501702  0.76019831  1
  O  O387  1  0.36436944  0.24671313  0.26011428  1
  O  O388  1  0.37464957  0.24342924  0.74293157  1
  O  O389  1  0.37455512  0.74239190  0.24221050  1
  O  O390  1  0.38772497  0.75140122  0.75686057  1
  O  O391  1  0.87772686  0.24272340  0.24202669  1
  O  O392  1  0.86293206  0.24625874  0.73465022  1
  O  O393  1  0.88136480  0.74073008  0.24038093  1
  O  O394  1  0.88371148  0.74721025  0.74327956  1
  O  O395  1  0.38626991  0.48866239  0.50811583  1
  O  O396  1  0.37702281  0.49303359  0.99250760  1
  O  O397  1  0.38835340  0.98619897  0.49697236  1
  O  O398  1  0.37890334  0.98958127  0.99424341  1
  O  O399  1  0.88316359  0.50516349  0.48961675  1
  O  O400  1  0.88173885  0.49430425  0.99491169  1
  O  O401  1  0.88571759  0.99546488  0.49414776  1
  O  O402  1  0.88892708  0.99203134  0.99229821  1
  O  O403  1  0.11349963  -0.00632718  0.00694284  1
  O  O404  1  0.11061898  -0.00930462  0.50054888  1
  O  O405  1  0.11487236  0.49452042  0.01011491  1
  O  O406  1  0.11650986  0.49999745  0.51391924  1
  O  O407  1  0.61691474  0.00558130  -0.00516638  1
  O  O408  1  0.61462588  -0.00657985  0.50784217  1
  O  O409  1  0.61458471  0.49863306  0.00657247  1
  O  O410  1  0.61456027  0.50292475  0.51087462  1
  O  O411  1  0.36471942  0.37491320  0.11719045  1
  O  O412  1  0.37024681  0.36369704  0.62002458  1
  O  O413  1  0.37142739  0.86779569  0.11286665  1
  O  O414  1  0.36537619  0.87491315  0.61387480  1
  O  O415  1  0.86772335  0.36975057  0.12015020  1
  O  O416  1  0.86143857  0.37303644  0.62795674  1
  O  O417  1  0.87647599  0.86898692  0.11377931  1
  O  O418  1  0.87000789  0.86463626  0.62620685  1
  O  O419  1  0.13901627  0.12469245  0.37471114  1
  O  O420  1  0.13172164  0.13519533  0.86604430  1
  O  O421  1  0.13804945  0.63008926  0.36825922  1
  O  O422  1  0.13565889  0.62906646  0.87246431  1
  O  O423  1  0.64174222  0.13630923  0.37865635  1
  O  O424  1  0.63167285  0.13430858  0.88484127  1
  O  O425  1  0.63709153  0.60523423  0.39853722  1
  O  O426  1  0.63464088  0.63207619  0.86963650  1
