# generated using pymatgen
data_V85Zn86O256
_symmetry_space_group_name_H-M   'P 1'
_cell_length_a   16.92573727
_cell_length_b   16.92182926
_cell_length_c   16.92841729
_cell_angle_alpha   89.94014200
_cell_angle_beta   89.94702378
_cell_angle_gamma   89.98483145
_symmetry_Int_Tables_number   1
_chemical_formula_structural   V85Zn86O256
_chemical_formula_sum   'V85 Zn86 O256'
_cell_volume   4848.53820774
_cell_formula_units_Z   1
loop_
 _symmetry_equiv_pos_site_id
 _symmetry_equiv_pos_as_xyz
  1  'x, y, z'
loop_
 _atom_site_type_symbol
 _atom_site_label
 _atom_site_symmetry_multiplicity
 _atom_site_fract_x
 _atom_site_fract_y
 _atom_site_fract_z
 _atom_site_occupancy
  V  V0  1  0.37096947  0.62280104  0.25156667  1
  V  V1  1  0.75469815  0.74766358  0.00088394  1
  V  V2  1  0.36725826  0.12461049  0.24800474  1
  V  V3  1  0.87667294  0.50001409  0.87581087  1
  V  V4  1  0.62038487  0.87713126  0.74903814  1
  V  V5  1  0.62505436  0.61808642  -0.00046336  1
  V  V6  1  0.48652316  0.37645691  0.87563104  1
  V  V7  1  0.37748278  -0.00248870  0.36925989  1
  V  V8  1  0.62432206  0.74961679  0.87426191  1
  V  V9  1  0.37742318  0.25647824  0.12250297  1
  V  V10  1  0.25453451  0.25813658  -0.00132078  1
  V  V11  1  0.00474000  0.37964674  0.87206280  1
  V  V12  1  0.50693189  0.00335890  0.49906979  1
  V  V13  1  0.75289649  0.36836177  0.12785333  1
  V  V14  1  0.25329195  0.75585717  -0.00452181  1
  V  V15  1  0.74659613  0.24682816  0.50009058  1
  V  V16  1  0.37613258  -0.00328068  0.87957985  1
  V  V17  1  0.87749999  0.87599277  0.49899678  1
  V  V18  1  0.74950012  0.49906930  0.74882978  1
  V  V19  1  0.61866430  0.37390625  0.25353513  1
  V  V20  1  0.62436424  0.25269539  0.87471692  1
  V  V21  1  0.48687344  0.49452110  -0.00092598  1
  V  V22  1  0.01523945  0.62807442  0.62832713  1
  V  V23  1  0.49923011  0.88055619  0.89063785  1
  V  V24  1  0.87203249  0.13105501  0.24528645  1
  V  V25  1  0.00402191  0.75572517  0.75983109  1
  V  V26  1  0.49783785  0.11735980  0.12169454  1
  V  V27  1  0.75141023  0.37731835  0.61864978  1
  V  V28  1  0.87724215  0.62690813  0.74965964  1
  V  V29  1  -0.00431997  0.12885581  0.12205445  1
  V  V30  1  0.87508199  -0.00083305  0.37195458  1
  V  V31  1  0.88010225  0.87643191  -0.01111846  1
  V  V32  1  0.24637390  0.88458929  0.62888642  1
  V  V33  1  0.26478351  0.62390293  0.86530492  1
  V  V34  1  0.62732332  0.87593823  0.24837592  1
  V  V35  1  0.12766741  0.38179615  0.25857240  1
  V  V36  1  0.75723660  0.50332095  0.25055990  1
  V  V37  1  0.12515327  -0.00393091  0.12192424  1
  V  V38  1  0.37347616  0.25108035  0.62251345  1
  V  V39  1  0.49093786  0.74848183  0.75033179  1
  V  V40  1  0.88437152  0.73599263  0.13517858  1
  V  V41  1  0.19247425  -0.05733551  0.29770339  1
  V  V42  1  0.74979696  0.87559266  0.62573623  1
  V  V43  1  0.00682606  0.12354466  0.62407352  1
  V  V44  1  0.12376253  0.89018925  0.75209233  1
  V  V45  1  0.37812534  0.75565462  0.11927311  1
  V  V46  1  0.23179857  0.73763616  0.49471249  1
  V  V47  1  0.37582212  0.86924522  0.50235509  1
  V  V48  1  0.25157016  0.12187848  0.86249093  1
  V  V49  1  0.75005564  0.62250323  0.87431666  1
  V  V50  1  0.87652839  0.12225128  0.75287299  1
  V  V51  1  0.12886269  0.12987944  0.49276835  1
  V  V52  1  0.01732452  0.74517423  0.25743425  1
  V  V53  1  0.25567194  0.88362216  0.11858181  1
  V  V54  1  0.75188440  0.12386264  0.87413308  1
  V  V55  1  0.87570312  0.37118945  0.00149501  1
  V  V56  1  0.75350872  -0.00114929  0.75368535  1
  V  V57  1  0.74292429  0.12300437  0.37929582  1
  V  V58  1  0.75561589  0.24642778  0.00414123  1
  V  V59  1  0.36873821  0.37693730  0.49387590  1
  V  V60  1  -0.00781678  0.36410518  0.38563043  1
  V  V61  1  0.12704807  0.12654475  -0.00102293  1
  V  V62  1  0.75721330  0.87555479  0.12462385  1
  V  V63  1  0.50747789  0.12715840  0.62189147  1
  V  V64  1  0.49070368  0.62272418  0.62898889  1
  V  V65  1  0.87451600  0.25338462  0.62080579  1
  V  V66  1  0.61601140  0.24945957  0.37825250  1
  V  V67  1  0.00217198  -0.00044416  0.50282345  1
  V  V68  1  0.00622481  0.25154959  0.24742201  1
  V  V69  1  0.87758652  0.74995645  0.62516382  1
  V  V70  1  0.12671630  0.25615434  0.87138665  1
  V  V71  1  0.00198244  0.25616172  0.74853727  1
  V  V72  1  0.62281718  0.50132283  0.62501207  1
  V  V73  1  0.49956028  0.49580091  0.49306787  1
  V  V74  1  -0.00356362  -0.00269559  -0.01331383  1
  V  V75  1  -0.00161158  0.51111595  0.50120845  1
  V  V76  1  0.12488130  0.62807652  0.00039869  1
  V  V77  1  0.37248501  0.49805606  0.36975574  1
  V  V78  1  0.75242096  0.74649243  0.50003598  1
  V  V79  1  0.62054003  0.11692579  -0.00213928  1
  V  V80  1  0.00171705  0.50480889  0.00895690  1
  V  V81  1  0.25609185  0.48958471  0.75113473  1
  V  V82  1  0.24841205  0.38376966  0.12706973  1
  V  V83  1  0.62662311  0.74663011  0.37580848  1
  V  V84  1  0.50095244  0.74718144  0.24991625  1
  Zn  Zn85  1  0.76196364  0.63027690  0.36522440  1
  Zn  Zn86  1  0.24205447  0.37142243  0.62718233  1
  Zn  Zn87  1  0.49825703  0.24900150  0.74985266  1
  Zn  Zn88  1  0.12692137  0.75642372  0.87506724  1
  Zn  Zn89  1  0.36846888  0.74625479  0.62641226  1
  Zn  Zn90  1  0.62226705  -0.00461403  0.11850350  1
  Zn  Zn91  1  0.37424898  0.11836641  0.74362557  1
  Zn  Zn92  1  0.20345002  0.57106445  0.31151733  1
  Zn  Zn93  1  0.49972392  0.62180662  0.12289830  1
  Zn  Zn94  1  0.11750751  0.47994059  0.64256207  1
  Zn  Zn95  1  0.24369323  0.13362217  0.36468292  1
  Zn  Zn96  1  0.62796900  0.00474266  0.61944547  1
  Zn  Zn97  1  0.12554513  0.50699484  0.13008535  1
  Zn  Zn98  1  0.24250571  0.26140775  0.49116569  1
  Zn  Zn99  1  0.62199935  0.37549028  0.75125460  1
  Zn  Zn100  1  0.74899285  0.00228828  0.24717786  1
  Zn  Zn101  1  0.86879221  0.49480747  0.38676910  1
  Zn  Zn102  1  0.01231531  0.87317933  0.36888441  1
  Zn  Zn103  1  0.62512410  0.62327769  0.49796445  1
  Zn  Zn104  1  0.49778579  0.25093405  0.25217798  1
  Zn  Zn105  1  0.50106627  0.87315897  0.37686261  1
  Zn  Zn106  1  0.62420132  0.49618693  0.12482969  1
  Zn  Zn107  1  0.18714384  0.19174011  0.18491732  1
  Zn  Zn108  1  0.18529179  0.19584662  0.68170504  1
  Zn  Zn109  1  0.18722031  0.69521361  0.17864845  1
  Zn  Zn110  1  0.19096255  0.69522636  0.68773957  1
  Zn  Zn111  1  0.68392727  0.18685308  0.18780335  1
  Zn  Zn112  1  0.68489590  0.18766428  0.68811179  1
  Zn  Zn113  1  0.68934037  0.68696590  0.18355385  1
  Zn  Zn114  1  0.68381450  0.68676776  0.68675458  1
  Zn  Zn115  1  0.31243514  0.31477293  0.31377795  1
  Zn  Zn116  1  0.31609695  0.30714665  0.81066864  1
  Zn  Zn117  1  0.31527172  0.80344430  0.31782627  1
  Zn  Zn118  1  0.31208912  0.82063264  0.81288038  1
  Zn  Zn119  1  0.81210587  0.30949719  0.31149511  1
  Zn  Zn120  1  0.81287586  0.31314159  0.81046402  1
  Zn  Zn121  1  0.81624408  0.81323064  0.31123840  1
  Zn  Zn122  1  0.81215663  0.81112584  0.81214928  1
  Zn  Zn123  1  0.17074466  0.46446284  0.43315788  1
  Zn  Zn124  1  0.19023124  0.44288018  0.93457322  1
  Zn  Zn125  1  0.18969376  0.94273619  0.46317524  1
  Zn  Zn126  1  0.18930593  0.93990903  0.93460883  1
  Zn  Zn127  1  0.68570085  0.43386544  0.43648518  1
  Zn  Zn128  1  0.68597227  0.43460310  0.93806234  1
  Zn  Zn129  1  0.68830774  0.93413637  0.43539096  1
  Zn  Zn130  1  0.69135136  0.93613515  0.93499052  1
  Zn  Zn131  1  0.31372442  0.06605773  0.05630847  1
  Zn  Zn132  1  0.31825526  0.06241209  0.55964366  1
  Zn  Zn133  1  0.31190019  0.57041396  0.06233787  1
  Zn  Zn134  1  0.30852499  0.55839035  0.56676803  1
  Zn  Zn135  1  0.81310147  0.05887150  0.06218625  1
  Zn  Zn136  1  0.81400746  0.06494340  0.56373501  1
  Zn  Zn137  1  0.81150220  0.55739596  0.06500441  1
  Zn  Zn138  1  0.81966824  0.56463033  0.55926674  1
  Zn  Zn139  1  0.43774654  0.43713690  0.18473012  1
  Zn  Zn140  1  0.43046382  0.43766179  0.69003380  1
  Zn  Zn141  1  0.43898591  0.93683329  0.18741281  1
  Zn  Zn142  1  0.43371334  0.94139656  0.68976013  1
  Zn  Zn143  1  0.93571326  0.43264739  0.18731291  1
  Zn  Zn144  1  0.93550769  0.43832835  0.68618085  1
  Zn  Zn145  1  0.94204727  0.93420704  0.18728609  1
  Zn  Zn146  1  0.93911776  0.93853116  0.68921147  1
  Zn  Zn147  1  0.05452763  0.06660078  0.31479600  1
  Zn  Zn148  1  0.06399325  0.06715807  0.81141962  1
  Zn  Zn149  1  0.04323584  0.56307236  0.31691709  1
  Zn  Zn150  1  0.07125327  0.56720593  0.81608658  1
  Zn  Zn151  1  0.55885317  0.06377233  0.30895654  1
  Zn  Zn152  1  0.55910658  0.06176231  0.80962044  1
  Zn  Zn153  1  0.56519764  0.56205246  0.31196163  1
  Zn  Zn154  1  0.55760938  0.56003046  0.81317823  1
  Zn  Zn155  1  0.42969841  0.18536176  0.43757564  1
  Zn  Zn156  1  0.43581723  0.18558594  0.93707072  1
  Zn  Zn157  1  0.43688811  0.68173597  0.43830216  1
  Zn  Zn158  1  0.43983434  0.68881965  0.93865878  1
  Zn  Zn159  1  0.93386443  0.18815900  0.43679818  1
  Zn  Zn160  1  0.93840742  0.18720793  0.93523302  1
  Zn  Zn161  1  0.94066551  0.68523097  0.43027884  1
  Zn  Zn162  1  0.93815731  0.68813669  0.94050226  1
  Zn  Zn163  1  0.06579330  0.31557677  0.06300565  1
  Zn  Zn164  1  0.06693708  0.31287975  0.56362252  1
  Zn  Zn165  1  0.06204613  0.81337747  0.06539298  1
  Zn  Zn166  1  0.06481024  0.81430619  0.56590164  1
  Zn  Zn167  1  0.56455088  0.30980548  0.06145193  1
  Zn  Zn168  1  0.56090910  0.31525302  0.56037165  1
  Zn  Zn169  1  0.56813983  0.80765282  0.06407078  1
  Zn  Zn170  1  0.56085683  0.81262594  0.56362815  1
  O  O171  1  0.12189992  0.11747145  0.11554163  1
  O  O172  1  0.11164684  0.12968026  0.61679655  1
  O  O173  1  0.13569310  0.62299668  0.10686334  1
  O  O174  1  0.11566455  0.62617659  0.63147360  1
  O  O175  1  0.61660055  0.12368150  0.11649409  1
  O  O176  1  0.61297898  0.12474162  0.62407469  1
  O  O177  1  0.62296772  0.62460819  0.11062644  1
  O  O178  1  0.61981378  0.61238057  0.62329860  1
  O  O179  1  0.38238135  0.38286713  0.38169155  1
  O  O180  1  0.38813786  0.36758749  0.87956966  1
  O  O181  1  0.37816540  0.88080452  0.38100956  1
  O  O182  1  0.38300233  0.88718018  0.87584789  1
  O  O183  1  0.88815436  0.37493900  0.36831229  1
  O  O184  1  0.88093558  0.38015048  0.88166977  1
  O  O185  1  0.87080169  0.88836910  0.38073777  1
  O  O186  1  0.87028411  0.87084775  0.88934344  1
  O  O187  1  0.25242678  -0.00352598  0.36706736  1
  O  O188  1  0.26119963  0.01029193  0.87888140  1
  O  O189  1  0.26909244  0.49258494  0.37280073  1
  O  O190  1  0.25113300  0.51495418  0.86808464  1
  O  O191  1  0.75518866  0.00666316  0.37286926  1
  O  O192  1  0.74726100  0.00694073  0.86145681  1
  O  O193  1  0.74950818  0.49585632  0.36177098  1
  O  O194  1  0.75538175  0.50312580  0.87027786  1
  O  O195  1  0.25248835  0.48634610  0.11563439  1
  O  O196  1  0.24505053  0.49580173  0.63896166  1
  O  O197  1  0.24579983  0.99169246  0.11629270  1
  O  O198  1  0.25437810  0.98400195  0.61665921  1
  O  O199  1  0.74649142  0.48971055  0.13417581  1
  O  O200  1  0.74471294  0.49443790  0.62598573  1
  O  O201  1  0.74611522  0.98972668  0.12722883  1
  O  O202  1  0.74887447  0.99517278  0.63365353  1
  O  O203  1  0.00528535  0.36749053  0.25339216  1
  O  O204  1  -0.00773377  0.37173182  0.76449865  1
  O  O205  1  -0.00674886  0.85758445  0.25304882  1
  O  O206  1  0.01406759  0.87008839  0.74233115  1
  O  O207  1  0.51486845  0.37144867  0.24243394  1
  O  O208  1  0.49988414  0.37436833  0.76388533  1
  O  O209  1  0.50888101  0.86303375  0.24972691  1
  O  O210  1  0.50922378  0.86951128  0.75347216  1
  O  O211  1  0.48931359  0.12796763  0.24002822  1
  O  O212  1  0.49844142  0.12837030  0.73798281  1
  O  O213  1  0.49872267  0.63567325  0.24597759  1
  O  O214  1  0.50777387  0.63589419  0.74304224  1
  O  O215  1  0.99426331  0.13182609  0.24212117  1
  O  O216  1  0.99407860  0.13124986  0.74263648  1
  O  O217  1  0.99938621  0.64325655  0.25135162  1
  O  O218  1  0.99705355  0.63453990  0.74670012  1
  O  O219  1  0.36450702  0.24488051  0.00852538  1
  O  O220  1  0.37782544  0.26085735  0.50695498  1
  O  O221  1  0.37075534  0.74768671  0.01166113  1
  O  O222  1  0.38314606  0.76291315  0.50186031  1
  O  O223  1  0.86296360  0.25325418  -0.00642231  1
  O  O224  1  0.86059416  0.24385713  0.50893989  1
  O  O225  1  0.87368478  0.75716948  0.00934694  1
  O  O226  1  0.86994415  0.75625476  0.50389718  1
  O  O227  1  0.12354513  0.23343083  0.49906422  1
  O  O228  1  0.12841396  0.24336424  0.99073825  1
  O  O229  1  0.13182750  0.74992468  0.50050121  1
  O  O230  1  0.13328505  0.74784795  0.99885239  1
  O  O231  1  0.63646792  0.25571612  0.49320749  1
  O  O232  1  0.63496704  0.24212277  0.99035488  1
  O  O233  1  0.63251062  0.75123543  0.49179140  1
  O  O234  1  0.63331852  0.74023503  0.99330258  1
  O  O235  1  0.49186174  0.24208275  0.12343090  1
  O  O236  1  0.49463955  0.24384642  0.62360912  1
  O  O237  1  0.49412877  0.74915150  0.13111101  1
  O  O238  1  0.50218261  0.74054362  0.63381647  1
  O  O239  1  1.00464005  0.23679927  0.12819556  1
  O  O240  1  0.99006618  0.24332117  0.62776472  1
  O  O241  1  0.98966574  0.75336720  0.13467237  1
  O  O242  1  0.99570348  0.74503858  0.63267418  1
  O  O243  1  -0.00432054  0.25662002  0.36474290  1
  O  O244  1  0.00773090  0.25879762  0.87199950  1
  O  O245  1  0.00173819  0.75558972  0.36413551  1
  O  O246  1  0.00007516  0.74969534  0.86282141  1
  O  O247  1  0.51316711  0.23964143  0.37616871  1
  O  O248  1  0.50643442  0.26065340  0.87749819  1
  O  O249  1  0.50903660  0.74954590  0.36770430  1
  O  O250  1  0.50559007  0.75730818  0.86905048  1
  O  O251  1  0.23298719  0.11633860  0.50018278  1
  O  O252  1  0.24060722  0.13622801  0.99350035  1
  O  O253  1  0.25396368  0.63969289  0.50851879  1
  O  O254  1  0.24761767  0.63764654  0.99170291  1
  O  O255  1  0.75035402  0.13141240  0.49111569  1
  O  O256  1  0.74674489  0.13016376  0.99475957  1
  O  O257  1  0.74708562  0.63883752  0.50543003  1
  O  O258  1  0.74471097  0.62573986  0.99387764  1
  O  O259  1  0.24134318  0.36356055  0.00565275  1
  O  O260  1  0.26133465  0.38256187  0.50053172  1
  O  O261  1  0.24794568  0.86565498  0.00473344  1
  O  O262  1  0.25722931  0.86656056  0.51093990  1
  O  O263  1  0.75351720  0.36618433  0.00690111  1
  O  O264  1  0.74853919  0.36856476  0.51246203  1
  O  O265  1  0.75624436  0.86890294  0.00636599  1
  O  O266  1  0.75504766  0.86550723  0.50502327  1
  O  O267  1  0.12261347  0.49387032  0.24575242  1
  O  O268  1  0.14499639  0.50895858  0.75330916  1
  O  O269  1  0.12860311  1.00525263  0.24334577  1
  O  O270  1  0.11934620  0.98965780  0.74830380  1
  O  O271  1  0.63253689  0.49022686  0.24815094  1
  O  O272  1  0.63164329  0.49928521  0.74259377  1
  O  O273  1  0.62361918  0.98499149  0.24900719  1
  O  O274  1  0.63200245  0.99125497  0.74714128  1
  O  O275  1  0.38051492  0.00544117  0.26105892  1
  O  O276  1  0.37765577  0.00386465  0.76669398  1
  O  O277  1  0.38599700  0.51118843  0.25545249  1
  O  O278  1  0.35764451  0.50564041  0.74778073  1
  O  O279  1  0.87634326  0.00982702  0.25678919  1
  O  O280  1  0.86676461  0.00921091  0.74560794  1
  O  O281  1  0.85895680  0.49404296  0.24825141  1
  O  O282  1  0.86881204  0.50648728  0.75610672  1
  O  O283  1  0.10882687  0.37995796  0.36486841  1
  O  O284  1  0.11702953  0.36763057  0.88036024  1
  O  O285  1  0.13447223  0.89396072  0.36560778  1
  O  O286  1  0.13296463  0.87560797  0.85723044  1
  O  O287  1  0.62920701  0.36235260  0.36586751  1
  O  O288  1  0.61911359  0.36573499  0.87391963  1
  O  O289  1  0.62558174  0.86298914  0.36582968  1
  O  O290  1  0.61964181  0.87159007  0.86724660  1
  O  O291  1  0.37985192  0.13185082  0.12859968  1
  O  O292  1  0.38398539  0.13233865  0.62243057  1
  O  O293  1  0.37912834  0.63583856  0.13205749  1
  O  O294  1  0.38781398  0.62614451  0.62302965  1
  O  O295  1  0.88394309  0.11949499  0.13241830  1
  O  O296  1  0.87943631  0.13531324  0.63395632  1
  O  O297  1  0.87372849  0.63862753  0.11739554  1
  O  O298  1  0.88158166  0.63333288  0.63335763  1
  O  O299  1  0.25603131  0.25781507  0.11623733  1
  O  O300  1  0.25943218  0.24966420  0.61322096  1
  O  O301  1  0.25840391  0.76389935  0.11682173  1
  O  O302  1  0.25226556  0.76092917  0.61504311  1
  O  O303  1  0.74633906  0.25372663  0.11464686  1
  O  O304  1  0.75259736  0.25535134  0.61985166  1
  O  O305  1  0.75900826  0.75555933  0.11868103  1
  O  O306  1  0.75463137  0.75597051  0.62003664  1
  O  O307  1  0.25883648  0.24420258  0.38132876  1
  O  O308  1  0.24416971  0.24579891  0.88037230  1
  O  O309  1  0.25315073  0.75202464  0.39553109  1
  O  O310  1  0.25322456  0.74685928  0.88159148  1
  O  O311  1  0.74474565  0.24251664  0.38271576  1
  O  O312  1  0.74348459  0.24467354  0.88007702  1
  O  O313  1  0.74571861  0.75005226  0.38253689  1
  O  O314  1  0.74466971  0.74228885  0.88018627  1
  O  O315  1  0.00635090  0.12142458  0.00509329  1
  O  O316  1  0.00447034  0.12077945  0.50422829  1
  O  O317  1  0.01001147  0.61617722  -0.00657485  1
  O  O318  1  -0.00084649  0.61647338  0.51047018  1
  O  O319  1  0.51086661  0.13199440  0.00698441  1
  O  O320  1  0.49270138  0.11290792  0.50620578  1
  O  O321  1  0.50758049  0.61193830  -0.00375424  1
  O  O322  1  0.50378223  0.61506527  0.51014284  1
  O  O323  1  0.48872354  0.38961208  0.50797773  1
  O  O324  1  0.50554117  0.38599568  0.99122104  1
  O  O325  1  0.49271141  0.88301034  0.50029164  1
  O  O326  1  0.50950412  0.87135280  0.98924438  1
  O  O327  1  0.99513492  0.36074838  0.48629319  1
  O  O328  1  0.99572289  0.38001455  0.99112312  1
  O  O329  1  0.99678391  0.88335498  0.49675668  1
  O  O330  1  0.99273585  0.88482417  1.00494514  1
  O  O331  1  0.49478372  0.50723644  0.38644363  1
  O  O332  1  0.50273514  0.48625657  0.88441123  1
  O  O333  1  0.49360136  0.99783875  0.38079703  1
  O  O334  1  0.49280704  0.99118881  0.87338949  1
  O  O335  1  0.99103384  0.48534074  0.39205055  1
  O  O336  1  0.99724737  0.49489698  0.88080973  1
  O  O337  1  0.99056570  0.99689825  0.38185986  1
  O  O338  1  1.00200393  1.00785340  0.88773482  1
  O  O339  1  0.00890444  0.00996793  0.12025404  1
  O  O340  1  -0.01228982  0.01277752  0.61478144  1
  O  O341  1  -0.00017920  0.49348547  0.11151669  1
  O  O342  1  -0.00139821  0.51277695  0.62646206  1
  O  O343  1  0.50179969  0.01223381  0.12568213  1
  O  O344  1  0.50030227  0.00758203  0.61636807  1
  O  O345  1  0.50406022  0.49915639  0.11069686  1
  O  O346  1  0.50640526  0.50477557  0.62343455  1
  O  O347  1  0.23784301  0.36937116  0.24098520  1
  O  O348  1  0.25472531  0.38641044  0.75634265  1
  O  O349  1  0.25086871  0.87613593  0.24450006  1
  O  O350  1  0.24011653  0.87240187  0.73748959  1
  O  O351  1  0.74338950  0.37804809  0.24342883  1
  O  O352  1  0.74842187  0.38079367  0.73818528  1
  O  O353  1  0.74436228  0.87580330  0.24200653  1
  O  O354  1  0.74339472  0.88135073  0.74769685  1
  O  O355  1  0.26217447  0.12570310  0.24404154  1
  O  O356  1  0.24635482  0.13097999  0.76030313  1
  O  O357  1  0.26340972  0.63229873  0.24135493  1
  O  O358  1  0.25166797  0.63134107  0.76343000  1
  O  O359  1  0.75695869  0.12397933  0.25532450  1
  O  O360  1  0.75648329  0.11848143  0.75191893  1
  O  O361  1  0.74380571  0.60733938  0.24718237  1
  O  O362  1  0.75510355  0.62027804  0.75477297  1
  O  O363  1  0.37048676  0.11423687  0.36621948  1
  O  O364  1  0.36709105  0.12154126  0.86947010  1
  O  O365  1  0.38000167  0.61799789  0.36162633  1
  O  O366  1  0.36324749  0.62932961  0.87816819  1
  O  O367  1  0.86594038  0.11624178  0.36863405  1
  O  O368  1  0.86979361  0.13105591  0.86045328  1
  O  O369  1  0.87033492  0.61045089  0.38813295  1
  O  O370  1  0.87035443  0.62051336  0.86972792  1
  O  O371  1  0.13193842  0.37783483  0.13454637  1
  O  O372  1  0.12730052  0.36330170  0.63950952  1
  O  O373  1  0.13331104  0.88985518  0.12169728  1
  O  O374  1  0.13731528  0.87629267  0.63349136  1
  O  O375  1  0.63681571  0.37161528  0.13118983  1
  O  O376  1  0.63042611  0.38568143  0.62787316  1
  O  O377  1  0.63738675  0.87228529  0.13090302  1
  O  O378  1  0.63130869  0.87608531  0.63435134  1
  O  O379  1  0.11206676  0.25554367  0.24629709  1
  O  O380  1  0.11686499  0.24199702  0.76478589  1
  O  O381  1  0.11708058  0.75174343  0.24741742  1
  O  O382  1  0.11718961  0.76083336  0.75145553  1
  O  O383  1  0.62439294  0.25602637  0.25958393  1
  O  O384  1  0.62351978  0.25130396  0.76343852  1
  O  O385  1  0.62183505  0.75612368  0.25380267  1
  O  O386  1  0.62060418  0.75924410  0.75582921  1
  O  O387  1  0.37815003  0.24238395  0.24093934  1
  O  O388  1  0.37697439  0.24568496  0.73540153  1
  O  O389  1  0.38462966  0.74496761  0.24367356  1
  O  O390  1  0.38837839  0.75794684  0.74841442  1
  O  O391  1  0.88387245  0.23691542  0.25186710  1
  O  O392  1  0.88111680  0.24342541  0.74334424  1
  O  O393  1  0.87094267  0.74666765  0.23651904  1
  O  O394  1  0.88254266  0.74824916  0.74474687  1
  O  O395  1  0.38103364  0.49675543  0.49310123  1
  O  O396  1  0.38862437  0.50380820  1.00237137  1
  O  O397  1  0.38044743  0.99001898  0.48807978  1
  O  O398  1  0.37916818  1.01164692  0.98055832  1
  O  O399  1  0.89331792  0.49065123  0.51149528  1
  O  O400  1  0.88184256  0.49435991  0.99419576  1
  O  O401  1  0.88167614  0.99826497  0.49254381  1
  O  O402  1  0.88455731  0.99004402  1.00377543  1
  O  O403  1  0.11978783  0.00797265  0.00450664  1
  O  O404  1  0.10919878  0.01152535  0.50308647  1
  O  O405  1  0.11745707  0.50849816  -0.00024935  1
  O  O406  1  0.09620739  0.47818555  0.52073483  1
  O  O407  1  0.63179037  0.01299773  -0.00185055  1
  O  O408  1  0.61163840  -0.00793388  0.49924656  1
  O  O409  1  0.62061610  0.50628273  0.00089303  1
  O  O410  1  0.61795826  0.49924468  0.50642321  1
  O  O411  1  0.36709807  0.36334119  0.13073766  1
  O  O412  1  0.37117039  0.36678862  0.61801418  1
  O  O413  1  0.36798481  0.86878411  0.12904810  1
  O  O414  1  0.36704892  0.87353601  0.61944059  1
  O  O415  1  0.86179792  0.37427359  0.11797446  1
  O  O416  1  0.86707312  0.36134819  0.63101940  1
  O  O417  1  0.86620732  0.86912479  0.11980711  1
  O  O418  1  0.86994404  0.86999883  0.61907033  1
  O  O419  1  0.12529089  0.11886337  0.38814275  1
  O  O420  1  0.13120710  0.13134933  0.88316941  1
  O  O421  1  0.12807006  0.56915105  0.39149016  1
  O  O422  1  0.13738933  0.63366452  0.88648715  1
  O  O423  1  0.63708412  0.12995797  0.36662777  1
  O  O424  1  0.62872355  0.13142021  0.88001990  1
  O  O425  1  0.63171220  0.63684271  0.37541256  1
  O  O426  1  0.62866141  0.62746206  0.88311718  1
