# generated using pymatgen
data_V85Zn86O256
_symmetry_space_group_name_H-M   'P 1'
_cell_length_a   16.91415431
_cell_length_b   16.91119673
_cell_length_c   16.91627251
_cell_angle_alpha   90.01653835
_cell_angle_beta   89.98959701
_cell_angle_gamma   90.02691792
_symmetry_Int_Tables_number   1
_chemical_formula_structural   V85Zn86O256
_chemical_formula_sum   'V85 Zn86 O256'
_cell_volume   4838.70593877
_cell_formula_units_Z   1
loop_
 _symmetry_equiv_pos_site_id
 _symmetry_equiv_pos_as_xyz
  1  'x, y, z'
loop_
 _atom_site_type_symbol
 _atom_site_label
 _atom_site_symmetry_multiplicity
 _atom_site_fract_x
 _atom_site_fract_y
 _atom_site_fract_z
 _atom_site_occupancy
  V  V0  1  0.75256303  0.36964754  0.62523256  1
  V  V1  1  0.24848197  0.37094376  0.13302080  1
  V  V2  1  0.75061605  0.63319417  0.87784684  1
  V  V3  1  -0.01471886  0.12225716  0.13048811  1
  V  V4  1  0.86664824  0.74899855  0.12384228  1
  V  V5  1  0.62483183  0.50209203  0.62655089  1
  V  V6  1  0.49163423  0.12612623  0.11880428  1
  V  V7  1  0.24863609  0.12099664  0.87075432  1
  V  V8  1  0.50250334  0.87759641  0.87663492  1
  V  V9  1  0.50510538  0.62249380  0.12705636  1
  V  V10  1  0.75052248  0.50021226  0.74982827  1
  V  V11  1  0.86633361  0.86893700  -0.00471686  1
  V  V12  1  0.12118279  0.25524300  0.36720322  1
  V  V13  1  0.00220234  0.75304625  0.75799380  1
  V  V14  1  0.37813637  0.88105700  0.00315773  1
  V  V15  1  0.24502309  0.63188004  0.37408902  1
  V  V16  1  0.26215530  0.74898320  0.50468485  1
  V  V17  1  0.75169695  0.00269945  0.24566840  1
  V  V18  1  0.37527387  -0.00030889  0.87365492  1
  V  V19  1  0.37457162  0.37055014  0.00536993  1
  V  V20  1  0.87457374  -0.00696436  0.86571855  1
  V  V21  1  -0.00690435  0.37029775  0.87499197  1
  V  V22  1  0.37856899  0.89192014  0.50063390  1
  V  V23  1  0.62175264  0.25383426  0.37763500  1
  V  V24  1  0.00200868  0.12785474  0.63388755  1
  V  V25  1  0.50317914  0.50139100  0.00372939  1
  V  V26  1  0.62846175  0.12588353  0.00062124  1
  V  V27  1  0.62439198  0.62967858  0.50570138  1
  V  V28  1  0.37454120  0.62460743  0.25016812  1
  V  V29  1  0.62866253  0.63115574  0.00190369  1
  V  V30  1  0.49709156  0.12355068  0.61919978  1
  V  V31  1  0.12321305  0.63334013  0.49988328  1
  V  V32  1  0.49960797  0.37314793  0.87321319  1
  V  V33  1  0.49298312  0.25149291  0.24554984  1
  V  V34  1  0.24977351  0.26060478  0.50603533  1
  V  V35  1  0.80566280  0.30538448  0.44999354  1
  V  V36  1  0.87985300  0.00127050  0.36641938  1
  V  V37  1  0.87553723  0.62199699  0.25249175  1
  V  V38  1  -0.00852901  0.49041832  0.48681303  1
  V  V39  1  0.49704700  0.89225122  0.37813180  1
  V  V40  1  0.12167534  0.12173746  0.00473751  1
  V  V41  1  0.62247653  0.12053714  0.49587857  1
  V  V42  1  0.25077504  -0.00816967  0.25754470  1
  V  V43  1  0.25004456  0.49450684  0.74772548  1
  V  V44  1  0.12492643  0.49642786  0.62180899  1
  V  V45  1  -0.00644639  0.49087137  0.00307601  1
  V  V46  1  0.37453086  0.12279791  0.74956527  1
  V  V47  1  0.87808079  0.87513979  0.49686429  1
  V  V48  1  0.61955819  -0.00043271  0.12009746  1
  V  V49  1  0.37611538  0.75101248  0.12567585  1
  V  V50  1  0.25740109  0.87212640  0.63252115  1
  V  V51  1  0.24991994  0.74822406  -0.00013519  1
  V  V52  1  0.13206440  -0.00134490  0.63089517  1
  V  V53  1  0.11881084  0.24869257  0.87389752  1
  V  V54  1  0.49851655  0.49943544  0.50254551  1
  V  V55  1  0.12347681  0.62046660  -0.00083577  1
  V  V56  1  0.75098803  0.12177630  0.86755287  1
  V  V57  1  0.63165852  0.25104563  0.87796982  1
  V  V58  1  0.74021459  0.37997604  0.10791431  1
  V  V59  1  0.37247978  0.50043592  0.37598424  1
  V  V60  1  0.75174911  0.75281210  0.50138741  1
  V  V61  1  0.49095601  0.74913979  0.74767475  1
  V  V62  1  0.86560359  0.26069215  0.11550308  1
  V  V63  1  0.25272391  0.24657844  0.00602211  1
  V  V64  1  0.00319664  -0.00281470  0.49893477  1
  V  V65  1  -0.00127555  -0.01077883  -0.00361476  1
  V  V66  1  0.49998469  0.75284689  0.25438375  1
  V  V67  1  0.01536973  0.87082702  0.37113236  1
  V  V68  1  0.62364098  0.75494679  0.37844034  1
  V  V69  1  0.23958648  0.87356109  0.12832867  1
  V  V70  1  0.75634057  0.12457799  0.37596941  1
  V  V71  1  0.48416088  0.62859079  0.63043192  1
  V  V72  1  0.63036884  0.00305842  0.63185931  1
  V  V73  1  0.87822856  0.62288238  0.75120561  1
  V  V74  1  0.25211166  0.62492438  0.87015417  1
  V  V75  1  0.25925581  0.12321155  0.37489303  1
  V  V76  1  0.12788428  0.12467729  0.49852771  1
  V  V77  1  0.87612308  0.75156798  0.62585746  1
  V  V78  1  0.74193937  0.50063921  0.24552068  1
  V  V79  1  0.12711488  0.87658078  0.75762094  1
  V  V80  1  0.37524470  0.50379438  0.87155958  1
  V  V81  1  0.01013949  0.75196146  0.25086385  1
  V  V82  1  0.87986790  0.25396627  0.63279217  1
  V  V83  1  0.12158452  0.37080859  0.74647288  1
  V  V84  1  0.75389390  0.62116752  0.37725237  1
  Zn  Zn85  1  0.62254802  0.37742767  0.24530300  1
  Zn  Zn86  1  0.12516574  0.49654464  0.12618735  1
  Zn  Zn87  1  0.87221574  0.12058475  0.74714033  1
  Zn  Zn88  1  0.62401538  0.37314321  0.74870764  1
  Zn  Zn89  1  0.12072386  -0.00424158  0.13065190  1
  Zn  Zn90  1  0.49937117  0.37743594  0.37264820  1
  Zn  Zn91  1  0.24603035  0.49858235  0.24956039  1
  Zn  Zn92  1  0.74555408  0.87265016  0.12317572  1
  Zn  Zn93  1  0.49960567  0.24944372  0.74958402  1
  Zn  Zn94  1  0.37073948  0.37965979  0.50785154  1
  Zn  Zn95  1  0.75787757  0.88849565  0.63093686  1
  Zn  Zn96  1  0.00131777  0.62264524  0.62416440  1
  Zn  Zn97  1  0.09871449  0.38445386  0.25262067  1
  Zn  Zn98  1  0.37200396  0.25887884  0.63196172  1
  Zn  Zn99  1  0.87183176  0.49264342  0.87785078  1
  Zn  Zn100  1  0.37536158  0.12288912  0.24818238  1
  Zn  Zn101  1  0.63005363  0.87577341  0.75132723  1
  Zn  Zn102  1  -0.00073023  0.62326281  0.12454137  1
  Zn  Zn103  1  0.62487235  0.87753445  0.25057582  1
  Zn  Zn104  1  -0.01384535  0.24692697  0.25364243  1
  Zn  Zn105  1  0.62714604  0.75359894  0.87469462  1
  Zn  Zn106  1  0.12228656  0.75332379  0.87796409  1
  Zn  Zn107  1  0.18791108  0.18256990  0.18787934  1
  Zn  Zn108  1  0.18653583  0.18794218  0.68949902  1
  Zn  Zn109  1  0.18726083  0.68396884  0.18489950  1
  Zn  Zn110  1  0.18974974  0.68654964  0.68694260  1
  Zn  Zn111  1  0.68823766  0.19013523  0.18863398  1
  Zn  Zn112  1  0.68613616  0.18947339  0.68925367  1
  Zn  Zn113  1  0.68540493  0.68849321  0.19023018  1
  Zn  Zn114  1  0.68588513  0.69465350  0.69135251  1
  Zn  Zn115  1  0.31442161  0.31015969  0.31912452  1
  Zn  Zn116  1  0.30956316  0.31113098  0.81600600  1
  Zn  Zn117  1  0.31389404  0.81342643  0.31740008  1
  Zn  Zn118  1  0.31277430  0.81192944  0.81348665  1
  Zn  Zn119  1  0.82274976  0.31720497  0.28346251  1
  Zn  Zn120  1  0.81090120  0.30783592  0.81057648  1
  Zn  Zn121  1  0.81490123  0.81346634  0.31094380  1
  Zn  Zn122  1  0.81121344  0.81633891  0.80933340  1
  Zn  Zn123  1  0.18102219  0.44160241  0.43410339  1
  Zn  Zn124  1  0.18537398  0.43418102  0.93893920  1
  Zn  Zn125  1  0.19266073  0.93620242  0.44069200  1
  Zn  Zn126  1  0.19055847  0.93861888  0.94021106  1
  Zn  Zn127  1  0.68235730  0.44381598  0.43333193  1
  Zn  Zn128  1  0.68247679  0.44514418  0.93385810  1
  Zn  Zn129  1  0.68826472  0.94039565  0.44145269  1
  Zn  Zn130  1  0.68931962  0.94110513  0.93774726  1
  Zn  Zn131  1  0.31000890  0.05763983  0.06369639  1
  Zn  Zn132  1  0.30992467  0.06481571  0.56595106  1
  Zn  Zn133  1  0.31379988  0.55873738  0.06168901  1
  Zn  Zn134  1  0.30857868  0.56028211  0.56432241  1
  Zn  Zn135  1  0.80879851  0.05883673  0.05327549  1
  Zn  Zn136  1  0.81348255  0.06758253  0.55655860  1
  Zn  Zn137  1  0.81295621  0.56113482  0.06390159  1
  Zn  Zn138  1  0.81491956  0.56182206  0.56368318  1
  Zn  Zn139  1  0.43568455  0.43691697  0.18743123  1
  Zn  Zn140  1  0.43440342  0.43675013  0.68720395  1
  Zn  Zn141  1  0.43600460  0.94059689  0.19044801  1
  Zn  Zn142  1  0.44095842  0.94169537  0.68810815  1
  Zn  Zn143  1  0.93191830  0.43749008  0.18831323  1
  Zn  Zn144  1  0.94091226  0.43616767  0.68423678  1
  Zn  Zn145  1  0.93714232  0.93322243  0.18513265  1
  Zn  Zn146  1  0.94443367  0.93604817  0.68671941  1
  Zn  Zn147  1  0.06908205  0.06207413  0.31056762  1
  Zn  Zn148  1  0.06145391  0.05841341  0.81446755  1
  Zn  Zn149  1  0.06373557  0.56407645  0.31274767  1
  Zn  Zn150  1  0.06243124  0.55909073  0.81506545  1
  Zn  Zn151  1  0.56609000  0.06795729  0.30505502  1
  Zn  Zn152  1  0.55886491  0.06373550  0.81267991  1
  Zn  Zn153  1  0.56416493  0.56550105  0.31623505  1
  Zn  Zn154  1  0.56285312  0.56605872  0.81220216  1
  Zn  Zn155  1  0.43785166  0.18974400  0.43865792  1
  Zn  Zn156  1  0.44032702  0.18675693  0.93934298  1
  Zn  Zn157  1  0.43667782  0.68863102  0.43994524  1
  Zn  Zn158  1  0.43736733  0.69052352  0.93607119  1
  Zn  Zn159  1  0.94317981  0.18179600  0.43969539  1
  Zn  Zn160  1  0.93526379  0.18247216  0.93962792  1
  Zn  Zn161  1  0.94128825  0.68486637  0.43547843  1
  Zn  Zn162  1  0.93696926  0.68453892  0.93784360  1
  Zn  Zn163  1  0.06158328  0.30846906  0.06678746  1
  Zn  Zn164  1  0.06238415  0.31351076  0.56057105  1
  Zn  Zn165  1  0.05773609  0.80640454  0.06301933  1
  Zn  Zn166  1  0.06491964  0.81087687  0.56642609  1
  Zn  Zn167  1  0.56347303  0.30901560  0.06046011  1
  Zn  Zn168  1  0.56239810  0.31038468  0.56223775  1
  Zn  Zn169  1  0.56224216  0.81233543  0.06196079  1
  Zn  Zn170  1  0.55770137  0.81683189  0.56573904  1
  O  O171  1  0.11747865  0.12392789  0.11381606  1
  O  O172  1  0.12246475  0.11830849  0.61994088  1
  O  O173  1  0.12371004  0.62151075  0.11073332  1
  O  O174  1  0.12531309  0.61699152  0.61761513  1
  O  O175  1  0.62160548  0.12053825  0.11758481  1
  O  O176  1  0.62037457  0.12115742  0.61745772  1
  O  O177  1  0.61307842  0.62937442  0.11976139  1
  O  O178  1  0.62152686  0.62036237  0.62105508  1
  O  O179  1  0.37564140  0.38931942  0.38102153  1
  O  O180  1  0.38019840  0.38086366  0.88450788  1
  O  O181  1  0.38268344  0.87336338  0.39019919  1
  O  O182  1  0.37889482  0.88203147  0.88142270  1
  O  O183  1  0.86101053  0.35712543  0.38668330  1
  O  O184  1  0.88888048  0.37087737  0.86850523  1
  O  O185  1  0.88357994  0.88220813  0.38036155  1
  O  O186  1  0.87460234  0.88001888  0.88202910  1
  O  O187  1  0.24694547  0.00524999  0.36541321  1
  O  O188  1  0.26240261  0.00857211  0.88114330  1
  O  O189  1  0.25691825  0.51081984  0.37577891  1
  O  O190  1  0.25599852  0.50436647  0.87252709  1
  O  O191  1  0.75896027  0.00619743  0.36968152  1
  O  O192  1  0.76210948  0.00732898  0.87789937  1
  O  O193  1  0.74666328  0.51470559  0.36821405  1
  O  O194  1  0.75211682  0.50596855  0.86275107  1
  O  O195  1  0.24920371  0.48713383  0.12494162  1
  O  O196  1  0.23874834  0.50334825  0.63614309  1
  O  O197  1  0.24598789  0.98911382  0.13229281  1
  O  O198  1  0.23897303  0.99138242  0.62160169  1
  O  O199  1  0.75200015  0.48870217  0.13001006  1
  O  O200  1  0.74778531  0.49218750  0.63231556  1
  O  O201  1  0.74426040  1.00019547  0.13180665  1
  O  O202  1  0.73559778  1.00680404  0.61894678  1
  O  O203  1  -0.01204640  0.36183077  0.24700526  1
  O  O204  1  0.01310709  0.37953483  0.75950981  1
  O  O205  1  -0.00264160  0.86155238  0.25589673  1
  O  O206  1  0.01354210  0.86442567  0.74485531  1
  O  O207  1  0.50273113  0.36827881  0.24962872  1
  O  O208  1  0.50066679  0.37645918  0.76381042  1
  O  O209  1  0.49830346  0.86968799  0.26061912  1
  O  O210  1  0.50267903  0.86814997  0.75710226  1
  O  O211  1  0.49692542  0.13254737  0.23956245  1
  O  O212  1  0.48984514  0.12801670  0.74389691  1
  O  O213  1  0.49615213  0.62990461  0.24399854  1
  O  O214  1  0.50152694  0.63771622  0.74461023  1
  O  O215  1  1.00584492  0.12429963  0.23287509  1
  O  O216  1  1.00225479  0.12214822  0.73659049  1
  O  O217  1  0.99198016  0.63380022  0.25025497  1
  O  O218  1  0.99330140  0.62875401  0.74937961  1
  O  O219  1  0.36485910  0.25818552  -0.00803616  1
  O  O220  1  0.35824071  0.25278177  0.49753351  1
  O  O221  1  0.36833544  0.75856304  0.00469158  1
  O  O222  1  0.36577788  0.75615208  0.50219159  1
  O  O223  1  0.87061091  0.23725310  0.01721966  1
  O  O224  1  0.87012928  0.24688387  0.50615563  1
  O  O225  1  0.88414570  0.75704809  0.00971447  1
  O  O226  1  0.87433614  0.75374176  0.50752194  1
  O  O227  1  0.13261556  0.24358222  0.49235406  1
  O  O228  1  0.13007608  0.24011558  0.99457174  1
  O  O229  1  0.13525718  0.73878558  0.50759695  1
  O  O230  1  0.12970604  0.74078475  0.99779388  1
  O  O231  1  0.62128548  0.24157193  0.48611042  1
  O  O232  1  0.62238410  0.24217794  0.98665240  1
  O  O233  1  0.63011456  0.74861547  0.49929987  1
  O  O234  1  0.61971604  0.73569969  0.99576269  1
  O  O235  1  0.50664198  0.23998089  0.13320861  1
  O  O236  1  0.49842742  0.23893942  0.62817993  1
  O  O237  1  0.49451146  0.74394731  0.13267015  1
  O  O238  1  0.50329167  0.74365497  0.63774411  1
  O  O239  1  0.98850870  0.23576848  0.12066755  1
  O  O240  1  0.99260105  0.24006552  0.61603045  1
  O  O241  1  0.98995631  0.74739862  0.13686528  1
  O  O242  1  0.99032685  0.74657092  0.63306934  1
  O  O243  1  0.01758643  0.23917520  0.37413154  1
  O  O244  1  0.01043833  0.25295943  0.88330789  1
  O  O245  1  -0.00392407  0.75721276  0.36095402  1
  O  O246  1  0.00219804  0.74495563  0.86224319  1
  O  O247  1  0.50646651  0.25328841  0.36827639  1
  O  O248  1  0.50578863  0.25958975  0.87460504  1
  O  O249  1  0.50636588  0.75470670  0.37270790  1
  O  O250  1  0.50003558  0.75848233  0.86594933  1
  O  O251  1  0.24135635  0.12969002  0.49479917  1
  O  O252  1  0.24286477  0.12807928  0.99414440  1
  O  O253  1  0.24605980  0.63229574  0.49552492  1
  O  O254  1  0.24430154  0.62675593  0.99203093  1
  O  O255  1  0.74169873  0.12409300  0.48425535  1
  O  O256  1  0.73638267  0.12123982  0.98816537  1
  O  O257  1  0.74693755  0.63062924  0.49456365  1
  O  O258  1  0.74055409  0.61479082  0.99118137  1
  O  O259  1  0.25529366  0.36604140  0.00684462  1
  O  O260  1  0.24442109  0.36249315  0.49577749  1
  O  O261  1  0.25637891  0.86850179  0.00863242  1
  O  O262  1  0.26081491  0.86881878  0.50719725  1
  O  O263  1  0.74566988  0.38527471  0.00877277  1
  O  O264  1  0.74932495  0.37520327  0.50403007  1
  O  O265  1  0.76211331  0.87522749  0.00168205  1
  O  O266  1  0.75986259  0.87018708  0.50406768  1
  O  O267  1  0.12815454  0.49739137  0.24627622  1
  O  O268  1  0.13045175  0.49318250  0.74410540  1
  O  O269  1  0.14317689  1.00277860  0.24586571  1
  O  O270  1  0.12136885  0.99120785  0.74206264  1
  O  O271  1  0.63702328  0.50367021  0.25231423  1
  O  O272  1  0.63381190  0.49977950  0.74449414  1
  O  O273  1  0.63387851  0.99962821  0.23840959  1
  O  O274  1  0.62189240  1.00279498  0.73499971  1
  O  O275  1  0.35695993  0.00425749  0.24505947  1
  O  O276  1  0.37491979  0.01255831  0.75766694  1
  O  O277  1  0.37265854  0.50702301  0.25891549  1
  O  O278  1  0.36571555  0.49569195  0.76333334  1
  O  O279  1  0.87080265  -0.00385228  0.25984657  1
  O  O280  1  0.88363356  -0.00091402  0.76129507  1
  O  O281  1  0.86298121  0.51539663  0.24437147  1
  O  O282  1  0.86905215  0.50706560  0.74941182  1
  O  O283  1  0.13129868  0.35906087  0.36907679  1
  O  O284  1  0.11676384  0.36530110  0.87139303  1
  O  O285  1  0.11458812  0.87714935  0.38016485  1
  O  O286  1  0.13472910  0.87434715  0.86208390  1
  O  O287  1  0.62263284  0.36785786  0.37158560  1
  O  O288  1  0.61695811  0.36901486  0.87542120  1
  O  O289  1  0.61675127  0.86997277  0.37921093  1
  O  O290  1  0.61311404  0.87788386  0.87802423  1
  O  O291  1  0.38813968  0.12177028  0.11878823  1
  O  O292  1  0.37947393  0.12724448  0.63262870  1
  O  O293  1  0.38346378  0.63023823  0.12858244  1
  O  O294  1  0.38495297  0.62167344  0.62519733  1
  O  O295  1  0.88443465  0.11814592  0.12002854  1
  O  O296  1  0.88474789  0.12976904  0.62389951  1
  O  O297  1  0.87667102  0.63226133  0.13133644  1
  O  O298  1  0.87620293  0.63190301  0.63712578  1
  O  O299  1  0.24639586  0.25190825  0.11332275  1
  O  O300  1  0.24811384  0.24297745  0.60868115  1
  O  O301  1  0.25677921  0.75513879  0.12186589  1
  O  O302  1  0.24938548  0.76027721  0.61890714  1
  O  O303  1  0.75435011  0.26462545  0.12475180  1
  O  O304  1  0.75542886  0.26254002  0.62715769  1
  O  O305  1  0.76169104  0.75173330  0.13071258  1
  O  O306  1  0.76435426  0.74778863  0.61963784  1
  O  O307  1  0.24118299  0.24187521  0.38330075  1
  O  O308  1  0.23927610  0.24283318  0.88657193  1
  O  O309  1  0.25482890  0.73982246  0.38501980  1
  O  O310  1  0.24910303  0.74050884  0.88025978  1
  O  O311  1  0.74854483  0.24735492  0.37813278  1
  O  O312  1  0.74208623  0.24127533  0.87348019  1
  O  O313  1  0.74357847  0.74543344  0.38103524  1
  O  O314  1  0.75065016  0.73629320  0.87229431  1
  O  O315  1  0.00558832  0.11385339  0.00868927  1
  O  O316  1  0.01417565  0.11794390  0.50709377  1
  O  O317  1  0.00767588  0.61251705  -0.00192823  1
  O  O318  1  0.01033448  0.62109212  0.50204551  1
  O  O319  1  0.51295120  0.12818051  0.00691944  1
  O  O320  1  0.50739937  0.12927400  0.50674187  1
  O  O321  1  0.50283514  0.62004049  0.00740014  1
  O  O322  1  0.50320170  0.61857874  0.50930665  1
  O  O323  1  0.50174006  0.39101374  0.49972321  1
  O  O324  1  0.49441819  0.38140557  0.99347660  1
  O  O325  1  0.48559079  0.87480598  0.49570140  1
  O  O326  1  0.48918078  0.86734988  0.98991319  1
  O  O327  1  1.00692612  0.39094944  0.49904755  1
  O  O328  1  1.00590089  0.38444940  0.99381762  1
  O  O329  1  0.99777928  0.87731861  0.49328180  1
  O  O330  1  0.99392677  0.88455115  1.00582774  1
  O  O331  1  0.49231104  0.50406839  0.38504227  1
  O  O332  1  0.49293905  0.49548013  0.87970162  1
  O  O333  1  0.50600445  0.99101980  0.36797143  1
  O  O334  1  0.48648342  0.99228904  0.87151692  1
  O  O335  1  1.00148025  0.50416604  0.38738196  1
  O  O336  1  0.99914722  0.48872215  0.88484070  1
  O  O337  1  0.99675946  0.99467021  0.37633746  1
  O  O338  1  0.99025805  1.00506592  0.88681365  1
  O  O339  1  0.00087332  0.00668082  0.11894659  1
  O  O340  1  0.01152770  0.00514810  0.61757817  1
  O  O341  1  0.00003827  0.50010531  0.11332095  1
  O  O342  1  0.01324507  0.50241059  0.62076275  1
  O  O343  1  0.50949852  0.01042033  0.13178852  1
  O  O344  1  0.51001356  0.01553282  0.62700785  1
  O  O345  1  0.49271796  0.51001978  0.11592572  1
  O  O346  1  0.50464121  0.50910383  0.62194119  1
  O  O347  1  0.25894609  0.37065983  0.23706105  1
  O  O348  1  0.23809047  0.38694601  0.76122259  1
  O  O349  1  0.25467048  0.88255418  0.24499996  1
  O  O350  1  0.24538706  0.86996160  0.73970740  1
  O  O351  1  0.74541900  0.38635142  0.23924701  1
  O  O352  1  0.74923458  0.38349882  0.74278947  1
  O  O353  1  0.74829425  0.88930136  0.25075185  1
  O  O354  1  0.74329368  0.87012575  0.74129714  1
  O  O355  1  0.25332372  0.11711006  0.25784472  1
  O  O356  1  0.25317363  0.12786427  0.76464960  1
  O  O357  1  0.25593877  0.62583580  0.25807854  1
  O  O358  1  0.24314921  0.61315430  0.76308870  1
  O  O359  1  0.74416860  0.11370804  0.26222096  1
  O  O360  1  0.75004550  0.12538034  0.76218417  1
  O  O361  1  0.75432233  0.62207746  0.25726350  1
  O  O362  1  0.75721048  0.61909055  0.75494498  1
  O  O363  1  0.36208469  0.12742405  0.37668222  1
  O  O364  1  0.36933849  0.11879832  0.87213165  1
  O  O365  1  0.36926638  0.61766894  0.37183706  1
  O  O366  1  0.36580520  0.61516734  0.88217995  1
  O  O367  1  0.86951993  0.11515775  0.37948793  1
  O  O368  1  0.86759346  0.11641115  0.87272318  1
  O  O369  1  0.86354742  0.63371698  0.36686545  1
  O  O370  1  0.86918167  0.62097116  0.86550206  1
  O  O371  1  0.13408097  0.37266199  0.13012154  1
  O  O372  1  0.12284182  0.38097382  0.63482986  1
  O  O373  1  0.13689172  0.87146978  0.12065460  1
  O  O374  1  0.13441498  0.88107837  0.63250944  1
  O  O375  1  0.63618139  0.37294079  0.12386364  1
  O  O376  1  0.63327214  0.38173146  0.62567279  1
  O  O377  1  0.62524046  0.88341885  0.12610107  1
  O  O378  1  0.62252720  0.89622542  0.61926154  1
  O  O379  1  0.12619236  0.24666587  0.26289568  1
  O  O380  1  0.13035878  0.25756022  0.76112875  1
  O  O381  1  0.10903757  0.74386542  0.24512916  1
  O  O382  1  0.11878469  0.75619422  0.75034557  1
  O  O383  1  0.61706783  0.24883404  0.26214705  1
  O  O384  1  0.62123602  0.25269657  0.76242871  1
  O  O385  1  0.61831839  0.75432542  0.25958022  1
  O  O386  1  0.61275858  0.75411121  0.75559383  1
  O  O387  1  0.38882483  0.24649761  0.25624523  1
  O  O388  1  0.37275136  0.23751183  0.75301252  1
  O  O389  1  0.38090307  0.74419541  0.24704470  1
  O  O390  1  0.39087132  0.75370674  0.75280854  1
  O  O391  1  0.87132594  0.23640878  0.22384710  1
  O  O392  1  0.87501895  0.24389025  0.73629930  1
  O  O393  1  0.87968810  0.74125299  0.24334638  1
  O  O394  1  0.88284493  0.74423761  0.74439739  1
  O  O395  1  0.38119453  0.50272175  0.49384562  1
  O  O396  1  0.38328488  0.49325110  0.99034486  1
  O  O397  1  0.36917560  0.99052244  0.49874027  1
  O  O398  1  0.37200698  0.98728050  0.99425308  1
  O  O399  1  0.89257113  0.50508163  0.50550589  1
  O  O400  1  0.89008329  0.50348684  0.99614492  1
  O  O401  1  0.88354837  0.99550671  0.49015432  1
  O  O402  1  0.88127019  0.98912625  0.99181012  1
  O  O403  1  0.11711806  0.00499551  0.00159211  1
  O  O404  1  0.12367302  0.00652450  0.50668239  1
  O  O405  1  0.11497721  0.50412994  0.00048640  1
  O  O406  1  0.12214088  0.50985411  0.50675378  1
  O  O407  1  0.62735697  0.00684379  0.01248236  1
  O  O408  1  0.62562678  0.01461501  0.50641581  1
  O  O409  1  0.60900955  0.51167671  -0.00515376  1
  O  O410  1  0.61720389  0.50949380  0.50533787  1
  O  O411  1  0.36989690  0.37766432  0.11067357  1
  O  O412  1  0.37423969  0.37209802  0.62139113  1
  O  O413  1  0.36987929  0.87057082  0.11881578  1
  O  O414  1  0.36899704  0.88321490  0.61535903  1
  O  O415  1  0.86223536  0.36668748  0.11992692  1
  O  O416  1  0.86830066  0.36679203  0.62657494  1
  O  O417  1  0.87175397  0.86671749  0.11651607  1
  O  O418  1  0.87850892  0.86888638  0.61669719  1
  O  O419  1  0.13475728  0.13052984  0.38262342  1
  O  O420  1  0.12991553  0.12760871  0.88306384  1
  O  O421  1  0.13588227  0.62311753  0.38468714  1
  O  O422  1  0.13275600  0.62395570  0.88491234  1
  O  O423  1  0.63168389  0.13131632  0.37958403  1
  O  O424  1  0.62899682  0.12908530  0.87974668  1
  O  O425  1  0.63130149  0.63568539  0.38447374  1
  O  O426  1  0.63342927  0.62553029  0.88278640  1
