# generated using pymatgen
data_V85Zn86O256
_symmetry_space_group_name_H-M   'P 1'
_cell_length_a   16.93609572
_cell_length_b   16.93447361
_cell_length_c   16.92425507
_cell_angle_alpha   89.99448071
_cell_angle_beta   89.99766979
_cell_angle_gamma   90.01701120
_symmetry_Int_Tables_number   1
_chemical_formula_structural   V85Zn86O256
_chemical_formula_sum   'V85 Zn86 O256'
_cell_volume   4853.94154472
_cell_formula_units_Z   1
loop_
 _symmetry_equiv_pos_site_id
 _symmetry_equiv_pos_as_xyz
  1  'x, y, z'
loop_
 _atom_site_type_symbol
 _atom_site_label
 _atom_site_symmetry_multiplicity
 _atom_site_fract_x
 _atom_site_fract_y
 _atom_site_fract_z
 _atom_site_occupancy
  V  V0  1  0.25147765  0.37695814  0.12705541  1
  V  V1  1  0.75266142  0.87611094  0.12877756  1
  V  V2  1  0.12078904  0.12701995  0.49655205  1
  V  V3  1  0.61275698  0.88101031  0.75233819  1
  V  V4  1  0.74639135  0.23987650  -0.00171148  1
  V  V5  1  0.50157967  0.12615527  0.11452697  1
  V  V6  1  0.37112366  0.24899047  0.62657189  1
  V  V7  1  0.12769238  0.75071904  0.87448551  1
  V  V8  1  0.13168329  0.37447844  0.25656591  1
  V  V9  1  0.62425249  0.24543585  0.38050159  1
  V  V10  1  0.49545630  0.62691950  0.12543876  1
  V  V11  1  0.12529668  0.00452602  0.12332426  1
  V  V12  1  0.86525481  0.00773267  0.87624584  1
  V  V13  1  -0.00740738  0.00515549  0.49868583  1
  V  V14  1  0.25081511  0.12785068  0.37659005  1
  V  V15  1  0.25106651  0.62359006  0.87473741  1
  V  V16  1  0.11780239  0.86512230  0.24748989  1
  V  V17  1  0.24832539  0.25084406  -0.00182505  1
  V  V18  1  0.50374935  0.37270689  0.87722114  1
  V  V19  1  0.37097765  0.37539035  0.50454232  1
  V  V20  1  0.25020203  0.49529000  0.74526477  1
  V  V21  1  0.41755798  0.80904000  0.07098436  1
  V  V22  1  0.87216286  0.49828847  0.86276373  1
  V  V23  1  0.62226268  0.87688695  0.25917410  1
  V  V24  1  0.88951061  0.12824338  0.74914489  1
  V  V25  1  0.37190343  0.88142619  0.48219946  1
  V  V26  1  0.50209284  0.24528828  0.74828461  1
  V  V27  1  0.24904931  0.00112086  0.25599729  1
  V  V28  1  0.63040678  0.37497380  0.25256871  1
  V  V29  1  0.63062900  0.37723242  0.75418592  1
  V  V30  1  0.49395499  0.75322198  0.25773902  1
  V  V31  1  0.00104742  0.62725380  0.12324025  1
  V  V32  1  0.62601297  0.00472725  0.12089189  1
  V  V33  1  0.74576050  0.24640161  0.50536771  1
  V  V34  1  0.87529392  0.87748092  0.00011078  1
  V  V35  1  0.12063618  -0.00185019  0.62089318  1
  V  V36  1  0.00442691  0.25130815  0.25505282  1
  V  V37  1  0.87412671  0.25359691  0.12503690  1
  V  V38  1  0.00038072  0.37608250  0.37588938  1
  V  V39  1  -0.00318891  0.49713608  -0.00124148  1
  V  V40  1  0.49944092  0.50815597  0.50408672  1
  V  V41  1  0.87288884  0.37835205  0.49849391  1
  V  V42  1  0.00036086  0.00289651  -0.00246143  1
  V  V43  1  0.37506269  0.74670754  0.61176328  1
  V  V44  1  0.37592015  0.49934580  0.87377378  1
  V  V45  1  0.75091827  0.11928392  0.38013513  1
  V  V46  1  0.25566710  -0.00666432  0.74517666  1
  V  V47  1  0.75521132  0.51565367  0.25625391  1
  V  V48  1  0.36469348  0.62094155  0.25011073  1
  V  V49  1  0.24536734  0.25276372  0.49926277  1
  V  V50  1  0.50335822  0.00002241  0.48332559  1
  V  V51  1  0.75220307  0.37861468  0.63147168  1
  V  V52  1  0.62605143  0.62295489  -0.00132817  1
  V  V53  1  0.37745634  0.12469920  0.25176587  1
  V  V54  1  -0.05801309  0.69131473  0.29984275  1
  V  V55  1  0.74567152  0.00919272  0.74753558  1
  V  V56  1  0.13648830  0.63057638  0.49775858  1
  V  V57  1  0.74837390  0.61836355  0.86460685  1
  V  V58  1  0.12526638  0.49720838  0.62656460  1
  V  V59  1  0.12441940  0.62394192  0.00227276  1
  V  V60  1  0.12545607  0.86746990  0.74703137  1
  V  V61  1  0.75434024  0.74248228  0.50527935  1
  V  V62  1  0.49844165  0.74247263  0.74847928  1
  V  V63  1  0.25162972  0.75021414  0.00747360  1
  V  V64  1  0.62686384  0.50066004  0.12773271  1
  V  V65  1  0.88666626  0.24838265  0.62991629  1
  V  V66  1  0.87785332  0.74233809  0.12115294  1
  V  V67  1  -0.00856793  0.88245951  0.37092364  1
  V  V68  1  0.25074362  0.87860196  0.12030327  1
  V  V69  1  0.25211620  0.12304775  0.87401210  1
  V  V70  1  0.37896067  -0.01586594  0.88180853  1
  V  V71  1  0.50112692  0.49891127  0.00034111  1
  V  V72  1  0.00700304  0.37018469  0.85976819  1
  V  V73  1  0.62690768  0.74096313  0.37824994  1
  V  V74  1  0.87396743  0.87682818  0.51043666  1
  V  V75  1  0.75071905  0.74776049  -0.00442599  1
  V  V76  1  0.87547536  0.12066960  0.25766263  1
  V  V77  1  0.62412771  0.50407989  0.62762553  1
  V  V78  1  0.36104517  0.50298062  0.37235254  1
  V  V79  1  0.00048480  0.12780082  0.12530964  1
  V  V80  1  0.12782351  0.50185905  0.13091339  1
  V  V81  1  0.49977357  0.37682690  0.37667340  1
  V  V82  1  0.62829333  0.23472197  0.87898272  1
  V  V83  1  -0.00207574  0.87458106  0.86663934  1
  V  V84  1  -0.00010860  0.63837417  0.63328253  1
  Zn  Zn85  1  0.18622297  0.33077449  0.68715562  1
  Zn  Zn86  1  0.37700092  0.25120743  0.12526083  1
  Zn  Zn87  1  0.75103282  0.37647247  0.12462575  1
  Zn  Zn88  1  0.50116244  0.24879384  0.24864051  1
  Zn  Zn89  1  -0.00073498  0.50352712  0.50116081  1
  Zn  Zn90  1  0.24944004  0.86794503  0.61169556  1
  Zn  Zn91  1  0.37969980  0.62065204  0.73761490  1
  Zn  Zn92  1  0.87228730  0.51055174  0.37448578  1
  Zn  Zn93  1  0.13730047  0.74912067  0.38421799  1
  Zn  Zn94  1  0.75168029  0.00013582  0.25465405  1
  Zn  Zn95  1  0.62606935  0.62513978  0.50255962  1
  Zn  Zn96  1  0.37870719  0.11798236  0.74662729  1
  Zn  Zn97  1  0.37679311  0.37411231  0.00335786  1
  Zn  Zn98  1  0.50741188  0.12570466  0.61137399  1
  Zn  Zn99  1  0.49783453  -0.01232588  -0.00024754  1
  Zn  Zn100  1  0.61790335  0.75526880  0.87576119  1
  Zn  Zn101  1  0.12462607  0.25127374  0.85676513  1
  Zn  Zn102  1  0.87447523  0.64605317  0.74225448  1
  Zn  Zn103  1  0.62194145  0.00767248  0.61706071  1
  Zn  Zn104  1  0.74758971  0.87483625  0.62756648  1
  Zn  Zn105  1  0.87356556  0.37374522  -0.00379396  1
  Zn  Zn106  1  0.12345395  0.12890925  -0.00580680  1
  Zn  Zn107  1  0.18765893  0.19083917  0.18759619  1
  Zn  Zn108  1  0.18613786  0.17038220  0.68457383  1
  Zn  Zn109  1  0.19259707  0.69649059  0.20553810  1
  Zn  Zn110  1  0.19299019  0.68410895  0.68514309  1
  Zn  Zn111  1  0.68752190  0.18733929  0.18985376  1
  Zn  Zn112  1  0.68886294  0.18539003  0.68773484  1
  Zn  Zn113  1  0.68517038  0.69035008  0.18715041  1
  Zn  Zn114  1  0.68365059  0.69216382  0.68561955  1
  Zn  Zn115  1  0.31307181  0.30986924  0.31541111  1
  Zn  Zn116  1  0.31681150  0.31123778  0.81641075  1
  Zn  Zn117  1  0.30781924  0.80752903  0.30854661  1
  Zn  Zn118  1  0.31438776  0.80872815  0.80856138  1
  Zn  Zn119  1  0.81219344  0.31074372  0.31441706  1
  Zn  Zn120  1  0.81463376  0.30935693  0.81563497  1
  Zn  Zn121  1  0.80665402  0.81698953  0.32240327  1
  Zn  Zn122  1  0.80660251  0.81788250  0.80851180  1
  Zn  Zn123  1  0.18567297  0.43933630  0.44264391  1
  Zn  Zn124  1  0.18622271  0.43614492  0.93878505  1
  Zn  Zn125  1  0.18412406  0.93343900  0.43411833  1
  Zn  Zn126  1  0.18978167  0.93844163  0.93678151  1
  Zn  Zn127  1  0.68910309  0.43923459  0.43828723  1
  Zn  Zn128  1  0.69193665  0.43223334  0.94032686  1
  Zn  Zn129  1  0.68667907  0.93342036  0.43912282  1
  Zn  Zn130  1  0.68502776  0.93684243  0.93607325  1
  Zn  Zn131  1  0.31568358  0.06441307  0.06120730  1
  Zn  Zn132  1  0.31677674  0.05923994  0.56039382  1
  Zn  Zn133  1  0.31239869  0.56093312  0.06418268  1
  Zn  Zn134  1  0.31249936  0.56425307  0.56191092  1
  Zn  Zn135  1  0.81288425  0.06532301  0.06721611  1
  Zn  Zn136  1  0.81129489  0.06443951  0.56800207  1
  Zn  Zn137  1  0.81329198  0.56046318  0.06095365  1
  Zn  Zn138  1  0.81440259  0.56260051  0.56865427  1
  Zn  Zn139  1  0.43925849  0.43766345  0.19002494  1
  Zn  Zn140  1  0.43922542  0.43269749  0.68777380  1
  Zn  Zn141  1  0.44213276  0.94668572  0.20035377  1
  Zn  Zn142  1  0.43822738  0.93498079  0.67519224  1
  Zn  Zn143  1  0.93765563  0.43975485  0.18994625  1
  Zn  Zn144  1  0.93953431  0.44265381  0.68560055  1
  Zn  Zn145  1  0.93605639  0.93898754  0.18570802  1
  Zn  Zn146  1  0.93821026  0.94162685  0.68799592  1
  Zn  Zn147  1  0.06501245  0.06176424  0.31489519  1
  Zn  Zn148  1  0.06665620  0.05852428  0.81098643  1
  Zn  Zn149  1  0.06942041  0.55461987  0.31818814  1
  Zn  Zn150  1  0.06350588  0.55969234  0.81120861  1
  Zn  Zn151  1  0.56331552  0.06343668  0.31241930  1
  Zn  Zn152  1  0.55719425  0.06043605  0.81407637  1
  Zn  Zn153  1  0.55995644  0.56298913  0.31344096  1
  Zn  Zn154  1  0.56382335  0.56239418  0.81069773  1
  Zn  Zn155  1  0.43462168  0.18620532  0.43585872  1
  Zn  Zn156  1  0.43311372  0.18518307  0.93604131  1
  Zn  Zn157  1  0.43583406  0.68663334  0.43290951  1
  Zn  Zn158  1  0.44103692  0.68430444  0.92869246  1
  Zn  Zn159  1  0.93583767  0.19211628  0.43959817  1
  Zn  Zn160  1  0.93689125  0.19025948  0.93568548  1
  Zn  Zn161  1  0.94216277  0.69097959  0.46314421  1
  Zn  Zn162  1  0.92187980  0.70541829  0.90228953  1
  Zn  Zn163  1  0.06497438  0.31389236  0.06033368  1
  Zn  Zn164  1  0.06041006  0.31215383  0.55790231  1
  Zn  Zn165  1  0.06248606  0.81392928  0.06090288  1
  Zn  Zn166  1  0.06209024  0.81323148  0.56028544  1
  Zn  Zn167  1  0.56571428  0.31106256  0.06408290  1
  Zn  Zn168  1  0.56154519  0.31480670  0.56487085  1
  Zn  Zn169  1  0.57956281  0.81311663  0.06801009  1
  Zn  Zn170  1  0.55793076  0.82069608  0.56292556  1
  O  O171  1  0.12037846  0.11718736  0.12451537  1
  O  O172  1  0.12964041  0.11026858  0.60676889  1
  O  O173  1  0.12264823  0.61752287  0.12352385  1
  O  O174  1  0.12056239  0.61941725  0.61936051  1
  O  O175  1  0.61619518  0.11560355  0.13313871  1
  O  O176  1  0.62124754  0.12320699  0.62694882  1
  O  O177  1  0.61488815  0.62237817  0.11976105  1
  O  O178  1  0.63075586  0.60763989  0.62679002  1
  O  O179  1  0.38342105  0.37986505  0.38010976  1
  O  O180  1  0.38421476  0.38518111  0.87732466  1
  O  O181  1  0.37115151  0.86520147  0.38299328  1
  O  O182  1  0.36834603  0.88582780  0.87554974  1
  O  O183  1  0.87981901  0.37470782  0.38410133  1
  O  O184  1  0.88572618  0.38111705  0.87501226  1
  O  O185  1  0.88603877  0.87358096  0.38571562  1
  O  O186  1  0.88231890  0.88773073  0.88170280  1
  O  O187  1  0.24118299  0.00623901  0.36084649  1
  O  O188  1  0.25809771  0.00371281  0.86794491  1
  O  O189  1  0.26218860  0.49354458  0.37520186  1
  O  O190  1  0.25800368  0.50248658  0.87134222  1
  O  O191  1  0.74318857  0.01590178  0.37722358  1
  O  O192  1  0.76129057  -0.00197395  0.87179815  1
  O  O193  1  0.75172822  0.50034181  0.36206933  1
  O  O194  1  0.75778243  0.50642817  0.87879305  1
  O  O195  1  0.24144419  0.48536908  0.11808452  1
  O  O196  1  0.24060840  0.50527816  0.63280521  1
  O  O197  1  0.24313432  0.99846254  0.12991509  1
  O  O198  1  0.24309765  0.99561243  0.63039809  1
  O  O199  1  0.74428597  0.49919044  0.13595078  1
  O  O200  1  0.74314693  0.48554061  0.62087733  1
  O  O201  1  0.74412886  0.99579008  0.12858319  1
  O  O202  1  0.74565001  0.99730437  0.63378751  1
  O  O203  1  0.00732901  0.36987306  0.25557625  1
  O  O204  1  -0.00054243  0.37815114  0.76109973  1
  O  O205  1  0.00553785  0.88855608  0.25977444  1
  O  O206  1  0.00911019  0.88201404  0.75915329  1
  O  O207  1  0.51196005  0.37498073  0.25971103  1
  O  O208  1  0.50794751  0.36280615  0.75642657  1
  O  O209  1  0.50911338  0.86439111  0.24359855  1
  O  O210  1  0.50912177  0.87073606  0.74794475  1
  O  O211  1  0.49078836  0.12534278  0.24449052  1
  O  O212  1  0.49710034  0.13774400  0.75157277  1
  O  O213  1  0.49899589  0.63421931  0.24102379  1
  O  O214  1  0.50164335  0.63812157  0.74731920  1
  O  O215  1  0.99605718  0.13334506  0.24961193  1
  O  O216  1  0.98825096  0.11691940  0.74894253  1
  O  O217  1  1.00367865  0.62753773  0.24625849  1
  O  O218  1  1.00408357  0.62370856  0.73730296  1
  O  O219  1  0.36251289  0.25278256  0.00150435  1
  O  O220  1  0.36832705  0.25663501  0.50597212  1
  O  O221  1  0.36949437  0.74465396  0.00093614  1
  O  O222  1  0.38241733  0.75773037  0.50664761  1
  O  O223  1  0.86665919  0.25083983  0.00774739  1
  O  O224  1  0.86765085  0.26079513  0.50867226  1
  O  O225  1  0.86730371  0.75489618  0.00303557  1
  O  O226  1  0.86161404  0.75990792  0.50006267  1
  O  O227  1  0.13326386  0.24060548  0.50518129  1
  O  O228  1  0.13740710  0.24902127  0.99627016  1
  O  O229  1  0.12511834  0.73809375  0.49944994  1
  O  O230  1  0.13540540  0.74481764  0.99785546  1
  O  O231  1  0.63431470  0.25845420  0.49332183  1
  O  O232  1  0.63756084  0.25260132  0.99406962  1
  O  O233  1  0.62994696  0.75051998  0.49495758  1
  O  O234  1  0.63374566  0.74301175  0.99772041  1
  O  O235  1  0.49990633  0.24159944  0.12789739  1
  O  O236  1  0.49322186  0.24909059  0.63257032  1
  O  O237  1  0.49355444  0.74624539  0.12684726  1
  O  O238  1  0.48778056  0.75712209  0.63563078  1
  O  O239  1  0.99464599  0.24618902  0.13071033  1
  O  O240  1  0.98559695  0.25442585  0.62131112  1
  O  O241  1  0.98854872  0.74137010  0.11205020  1
  O  O242  1  1.00373377  0.73791838  0.62571189  1
  O  O243  1  -0.00439867  0.26352386  0.36708075  1
  O  O244  1  0.00381683  0.26624340  0.87981022  1
  O  O245  1  -0.00415575  0.75207763  0.36600521  1
  O  O246  1  0.01652293  0.76883435  0.89169108  1
  O  O247  1  0.50634801  0.26010472  0.37638315  1
  O  O248  1  0.50640147  0.25341401  0.87123861  1
  O  O249  1  0.50929585  0.74817245  0.36612521  1
  O  O250  1  0.49952224  0.75028815  0.85645575  1
  O  O251  1  0.24637672  0.13007840  0.49311336  1
  O  O252  1  0.24915574  0.13203401  0.99190737  1
  O  O253  1  0.23583151  0.62455967  0.50132345  1
  O  O254  1  0.24541186  0.63125718  0.99734878  1
  O  O255  1  0.75780294  0.13882928  0.49535409  1
  O  O256  1  0.75292548  0.14032452  1.00442889  1
  O  O257  1  0.75059309  0.63822972  0.50467489  1
  O  O258  1  0.74438774  0.63105966  0.99559713  1
  O  O259  1  0.25146544  0.36811302  0.00740325  1
  O  O260  1  0.26186562  0.36773615  0.49484537  1
  O  O261  1  0.24784530  0.86998773  0.01213482  1
  O  O262  1  0.26274218  0.87718894  0.49484078  1
  O  O263  1  0.75490264  0.36347217  0.00688927  1
  O  O264  1  0.75622586  0.36719639  0.50642879  1
  O  O265  1  0.75547151  0.86689857  0.00509967  1
  O  O266  1  0.75920604  0.87017752  0.50217671  1
  O  O267  1  0.12225850  0.49023261  0.23884398  1
  O  O268  1  0.13439082  0.50215093  0.73717255  1
  O  O269  1  0.12993492  0.99591141  0.24022676  1
  O  O270  1  0.13212238  0.99001614  0.74003036  1
  O  O271  1  0.63341497  0.49501203  0.24872392  1
  O  O272  1  0.61831498  0.48489678  0.74422051  1
  O  O273  1  0.62588029  0.99198760  0.24231952  1
  O  O274  1  0.62857120  0.99319276  0.75359664  1
  O  O275  1  0.36276137  0.01406672  0.24725872  1
  O  O276  1  0.36963179  -0.00442091  0.75560721  1
  O  O277  1  0.38726360  0.50914119  0.26255577  1
  O  O278  1  0.37289279  0.50152727  0.75497731  1
  O  O279  1  0.87379766  0.01688945  0.24465087  1
  O  O280  1  0.86924650  0.00915619  0.75608515  1
  O  O281  1  0.85923418  0.49838724  0.25125341  1
  O  O282  1  0.87780517  0.50633323  0.76129041  1
  O  O283  1  0.11656564  0.38254754  0.36675707  1
  O  O284  1  0.11100892  0.37724289  0.87499642  1
  O  O285  1  0.11247565  0.86732146  0.36559115  1
  O  O286  1  0.12006868  0.87417975  0.86611210  1
  O  O287  1  0.61950523  0.36813454  0.37187241  1
  O  O288  1  0.62124484  0.36904693  0.86940975  1
  O  O289  1  0.63035969  0.86490711  0.36298581  1
  O  O290  1  0.62860065  0.87276284  0.85860431  1
  O  O291  1  0.38308716  0.12705257  0.13234400  1
  O  O292  1  0.37571662  0.13806060  0.62564786  1
  O  O293  1  0.39111297  0.61640831  0.12793830  1
  O  O294  1  0.37725164  0.63952223  0.62011131  1
  O  O295  1  0.88115249  0.13658631  0.13385328  1
  O  O296  1  0.87273544  0.13400771  0.63881929  1
  O  O297  1  0.87957921  0.63571890  0.12153028  1
  O  O298  1  0.89207149  0.62197628  0.62895868  1
  O  O299  1  0.24961044  0.26052104  0.11758717  1
  O  O300  1  0.25538498  0.25082132  0.61613908  1
  O  O301  1  0.24994510  0.76115383  0.11584278  1
  O  O302  1  0.26996117  0.75140167  0.63147338  1
  O  O303  1  0.75688608  0.25043026  0.11863799  1
  O  O304  1  0.75674550  0.26014012  0.62065662  1
  O  O305  1  0.75636659  0.75294535  0.11552407  1
  O  O306  1  0.74364621  0.75559548  0.61060606  1
  O  O307  1  0.25154607  0.24295215  0.38913668  1
  O  O308  1  0.24984086  0.24201397  0.88045326  1
  O  O309  1  0.22168226  0.73866147  0.31256765  1
  O  O310  1  0.24741380  0.74579072  0.88572259  1
  O  O311  1  0.74296359  0.24517378  0.38518689  1
  O  O312  1  0.74373152  0.25254146  0.88926043  1
  O  O313  1  0.74068423  0.75320162  0.39178396  1
  O  O314  1  0.74496730  0.74279306  0.88706634  1
  O  O315  1  0.00146323  0.12047575  0.00522213  1
  O  O316  1  0.00771597  0.11821978  0.49129627  1
  O  O317  1  0.00832142  0.61119784  0.00381284  1
  O  O318  1  0.01020186  0.62105982  0.51667852  1
  O  O319  1  0.49459992  0.12204525  0.01217880  1
  O  O320  1  0.48933077  0.10680589  0.49409766  1
  O  O321  1  0.50601720  0.62026850  0.00498162  1
  O  O322  1  0.50154624  0.61079359  0.49637694  1
  O  O323  1  0.48930663  0.37915248  0.49379280  1
  O  O324  1  0.50081060  0.38097547  0.99531307  1
  O  O325  1  0.48461753  0.88613611  0.49912871  1
  O  O326  1  0.48892308  0.86580781  1.01788408  1
  O  O327  1  0.99145312  0.37789881  0.49202924  1
  O  O328  1  0.99949650  0.38710930  0.99793207  1
  O  O329  1  0.99364052  0.88124885  0.49293134  1
  O  O330  1  0.99387430  0.88558891  0.99497372  1
  O  O331  1  0.49874202  0.48899541  0.38413537  1
  O  O332  1  0.49448752  0.49531143  0.87876120  1
  O  O333  1  0.50103281  0.99810046  0.38237397  1
  O  O334  1  0.48413494  1.00012370  0.87932526  1
  O  O335  1  0.99242561  0.48881837  0.37624059  1
  O  O336  1  0.99422374  0.49249029  0.88085756  1
  O  O337  1  1.00403920  0.99256247  0.38519156  1
  O  O338  1  0.99465077  0.99309358  0.87986256  1
  O  O339  1  0.00620066  0.00734853  0.11869028  1
  O  O340  1  0.01301702  -0.00568211  0.61570099  1
  O  O341  1  0.00573577  0.50542906  0.11985135  1
  O  O342  1  0.01337317  0.50688074  0.62464370  1
  O  O343  1  0.50702225  0.00790204  0.12395155  1
  O  O344  1  0.49850972  0.00517633  0.61024360  1
  O  O345  1  0.50837513  0.50689734  0.12167468  1
  O  O346  1  0.51037421  0.48897962  0.61556647  1
  O  O347  1  0.23873883  0.36592909  0.24427570  1
  O  O348  1  0.25864664  0.38979231  0.75367360  1
  O  O349  1  0.23973901  0.88553117  0.23798001  1
  O  O350  1  0.24271901  0.88269079  0.75014445  1
  O  O351  1  0.73967849  0.37841764  0.25039636  1
  O  O352  1  0.74256942  0.36866863  0.74398983  1
  O  O353  1  0.74551608  0.87881002  0.24695025  1
  O  O354  1  0.74175868  0.88763634  0.74827059  1
  O  O355  1  0.25203827  0.12143275  0.25579049  1
  O  O356  1  0.25434650  0.10771328  0.75508021  1
  O  O357  1  0.26920107  0.61233710  0.22372760  1
  O  O358  1  0.25492680  0.61365939  0.75799354  1
  O  O359  1  0.75903645  0.12749875  0.26093688  1
  O  O360  1  0.75906812  0.11290192  0.75107783  1
  O  O361  1  0.74663827  0.61419705  0.24799137  1
  O  O362  1  0.75147479  0.63411418  0.76187518  1
  O  O363  1  0.35991779  0.12820292  0.36711299  1
  O  O364  1  0.36363945  0.11697990  0.87032614  1
  O  O365  1  0.37552556  0.61566049  0.36498908  1
  O  O366  1  0.37089849  0.61130516  0.87209958  1
  O  O367  1  0.86475388  0.13440390  0.36825121  1
  O  O368  1  0.88043643  0.11895005  0.86350008  1
  O  O369  1  0.89146004  0.63367219  0.36750235  1
  O  O370  1  0.86243296  0.61016862  0.88260101  1
  O  O371  1  0.13083494  0.38143490  0.13323340  1
  O  O372  1  0.12516009  0.39168271  0.61269004  1
  O  O373  1  0.12987741  0.89014837  0.12415097  1
  O  O374  1  0.12964069  0.87800301  0.62969135  1
  O  O375  1  0.62539587  0.38209027  0.13653550  1
  O  O376  1  0.63319626  0.37873622  0.63430349  1
  O  O377  1  0.63624206  0.88004174  0.13909893  1
  O  O378  1  0.62527045  0.88147372  0.63954341  1
  O  O379  1  0.11195878  0.25811991  0.24603738  1
  O  O380  1  0.13578566  0.24937726  0.74355116  1
  O  O381  1  0.10254029  0.77117540  0.21714112  1
  O  O382  1  0.13384483  0.76133374  0.75493647  1
  O  O383  1  0.62461907  0.25916918  0.25995451  1
  O  O384  1  0.62069147  0.25759655  0.75875307  1
  O  O385  1  0.61813866  0.75554052  0.25638364  1
  O  O386  1  0.61315264  0.76018862  0.74823347  1
  O  O387  1  0.37618615  0.23832879  0.24858037  1
  O  O388  1  0.38311322  0.25017042  0.74272553  1
  O  O389  1  0.38759037  0.73877666  0.25255514  1
  O  O390  1  0.38580948  0.74733210  0.74261070  1
  O  O391  1  0.88425297  0.24436231  0.24468937  1
  O  O392  1  0.87235254  0.23592609  0.74640513  1
  O  O393  1  0.87587788  0.74991624  0.24469578  1
  O  O394  1  0.88791732  0.74526892  0.79528412  1
  O  O395  1  0.38014943  0.49312683  0.49560165  1
  O  O396  1  0.38266585  0.49828791  0.99160985  1
  O  O397  1  0.37859334  0.98744243  0.49433910  1
  O  O398  1  0.37357916  0.99829113  0.98644302  1
  O  O399  1  0.87387886  0.49001271  0.49748780  1
  O  O400  1  0.88332814  0.49567259  0.99477464  1
  O  O401  1  0.88642193  0.99731186  0.50583128  1
  O  O402  1  0.87896491  1.00006795  0.99405478  1
  O  O403  1  0.11975039  0.00368461  0.00635930  1
  O  O404  1  0.11610211  0.00228713  0.50339021  1
  O  O405  1  0.11957551  0.50283015  0.01133785  1
  O  O406  1  0.12478827  0.51048307  0.51053388  1
  O  O407  1  0.61974116  -0.01243097  0.01594164  1
  O  O408  1  0.60811762  -0.00943854  0.49769342  1
  O  O409  1  0.62132500  0.50349075  0.00675489  1
  O  O410  1  0.61746850  0.49851474  0.50825108  1
  O  O411  1  0.36650209  0.37415382  0.12687278  1
  O  O412  1  0.37883240  0.36283026  0.61583046  1
  O  O413  1  0.36630850  0.87826775  0.13378622  1
  O  O414  1  0.37012837  0.86427653  0.61246495  1
  O  O415  1  0.87623443  0.36188087  0.12785971  1
  O  O416  1  0.86926467  0.37225496  0.62149102  1
  O  O417  1  0.87198343  0.86553149  0.11997374  1
  O  O418  1  0.87609497  0.87817223  0.61435141  1
  O  O419  1  0.13638767  0.12212010  0.38542755  1
  O  O420  1  0.13906665  0.12356141  0.87337596  1
  O  O421  1  0.11659494  0.62447707  0.39411845  1
  O  O422  1  0.13116130  0.62874959  0.88131344  1
  O  O423  1  0.63232816  0.13955060  0.36989106  1
  O  O424  1  0.62228715  0.13566487  0.87348291  1
  O  O425  1  0.62273776  0.63677027  0.37761717  1
  O  O426  1  0.63201866  0.62521045  0.88069618  1
