# generated using pymatgen
data_V85Zn86O256
_symmetry_space_group_name_H-M   'P 1'
_cell_length_a   16.98108920
_cell_length_b   16.97844935
_cell_length_c   16.98173562
_cell_angle_alpha   90.02163723
_cell_angle_beta   90.01749412
_cell_angle_gamma   89.92172109
_symmetry_Int_Tables_number   1
_chemical_formula_structural   V85Zn86O256
_chemical_formula_sum   'V85 Zn86 O256'
_cell_volume   4896.04257295
_cell_formula_units_Z   1
loop_
 _symmetry_equiv_pos_site_id
 _symmetry_equiv_pos_as_xyz
  1  'x, y, z'
loop_
 _atom_site_type_symbol
 _atom_site_label
 _atom_site_symmetry_multiplicity
 _atom_site_fract_x
 _atom_site_fract_y
 _atom_site_fract_z
 _atom_site_occupancy
  V  V0  1  0.49632207  0.00208078  0.00212964  1
  V  V1  1  -0.00019827  0.87903402  0.38902328  1
  V  V2  1  0.11365927  0.36908601  0.75199082  1
  V  V3  1  0.86934378  0.86896618  0.00484752  1
  V  V4  1  0.49766521  0.37312919  0.37151554  1
  V  V5  1  0.11365055  0.11824929  0.50042021  1
  V  V6  1  0.37374099  0.75025029  0.62045584  1
  V  V7  1  0.10809954  0.00410365  0.63125836  1
  V  V8  1  0.62475399  -0.00057892  0.61956392  1
  V  V9  1  0.25302159  0.87401194  0.12233922  1
  V  V10  1  0.63061874  0.74589707  0.87421228  1
  V  V11  1  0.25144857  0.37682136  0.63430012  1
  V  V12  1  0.12126630  0.62647284  0.49662460  1
  V  V13  1  0.00090381  0.63823423  0.11985319  1
  V  V14  1  0.62876774  0.87336813  0.24738351  1
  V  V15  1  0.24956226  0.75350864  0.49683903  1
  V  V16  1  0.62061030  0.12785943  0.50112106  1
  V  V17  1  0.49778956  0.88331532  0.37311654  1
  V  V18  1  0.62909044  0.74562032  0.37617525  1
  V  V19  1  0.62110808  0.24964291  0.37130532  1
  V  V20  1  0.75656689  -0.00038068  0.74604311  1
  V  V21  1  0.63181678  0.12689295  0.00178602  1
  V  V22  1  0.87214678  0.37533584  0.49814274  1
  V  V23  1  0.37648532  0.62367349  0.25341759  1
  V  V24  1  0.87551065  0.47322044  0.89369394  1
  V  V25  1  0.12366727  0.87034314  0.25053732  1
  V  V26  1  0.12415685  0.37927204  0.25625394  1
  V  V27  1  -0.00148166  0.50360270  0.49745219  1
  V  V28  1  0.12314737  0.86556324  0.75452991  1
  V  V29  1  0.37369563  0.37392292  0.50344304  1
  V  V30  1  0.87331139  0.25170767  0.12250453  1
  V  V31  1  0.06881508  0.45350300  0.07590366  1
  V  V32  1  0.26311664  0.25043596  0.00496792  1
  V  V33  1  0.24629581  0.50041324  0.24712192  1
  V  V34  1  0.12896430  0.49999733  0.62602766  1
  V  V35  1  0.63068452  0.87330023  0.74723358  1
  V  V36  1  0.50098714  0.74971402  0.25046840  1
  V  V37  1  0.49706315  0.14025649  0.13277300  1
  V  V38  1  0.75705368  0.87351710  0.61191405  1
  V  V39  1  0.11564262  0.24688519  0.87095024  1
  V  V40  1  0.37533046  0.74918098  0.12237463  1
  V  V41  1  0.31872833  0.69788626  0.80541630  1
  V  V42  1  0.24752005  0.88696459  0.62566411  1
  V  V43  1  0.42105547  0.05779436  0.81407075  1
  V  V44  1  0.49522478  0.47997615  -0.00496604  1
  V  V45  1  0.13196224  0.12323100  0.00309722  1
  V  V46  1  0.24817642  0.62660476  0.37332837  1
  V  V47  1  0.37221372  0.88479160  0.49226866  1
  V  V48  1  0.62977490  0.62376664  0.49871097  1
  V  V49  1  0.87851888  0.75135023  0.63041190  1
  V  V50  1  0.49823672  0.62078541  0.11668737  1
  V  V51  1  0.49996748  0.50081759  0.50080864  1
  V  V52  1  0.26112010  0.12239940  0.37834175  1
  V  V53  1  0.25084108  0.11301497  0.86438263  1
  V  V54  1  0.75586178  0.12673486  0.87139079  1
  V  V55  1  0.76500918  0.62394140  0.87354135  1
  V  V56  1  0.50347541  0.74719187  0.74828680  1
  V  V57  1  0.86946024  0.51559356  0.37537371  1
  V  V58  1  0.63024912  -0.00249152  0.12541161  1
  V  V59  1  0.74665250  0.50596357  0.25407371  1
  V  V60  1  0.20812480  0.55246992  0.80834589  1
  V  V61  1  0.61512728  0.25182585  0.86920949  1
  V  V62  1  0.75593077  -0.00166503  0.24813977  1
  V  V63  1  0.61412345  0.37389711  0.75032915  1
  V  V64  1  0.75172054  0.37591155  0.11873830  1
  V  V65  1  0.24881765  0.24826963  0.50532451  1
  V  V66  1  -0.00481492  0.37502161  0.37420181  1
  V  V67  1  0.12996316  0.00059493  0.13060279  1
  V  V68  1  0.37840358  0.24181040  0.63789903  1
  V  V69  1  0.37347829  0.50112678  0.37781499  1
  V  V70  1  0.74915674  0.25123422  0.50137435  1
  V  V71  1  0.00328736  0.85762344  0.87431133  1
  V  V72  1  -0.00525629  0.62835045  0.63792451  1
  V  V73  1  0.76019942  0.49935904  0.74785566  1
  V  V74  1  -0.00018473  0.12316154  0.12960655  1
  V  V75  1  0.49688440  0.62433463  0.62893736  1
  V  V76  1  0.00176093  -0.00485660  0.00096751  1
  V  V77  1  0.87947396  0.00198384  0.38955444  1
  V  V78  1  0.88678109  0.24551599  0.62914800  1
  V  V79  1  0.26573553  0.00196780  0.25377025  1
  V  V80  1  0.38201404  0.47543026  0.86512846  1
  V  V81  1  0.61874000  0.37136182  0.24833100  1
  V  V82  1  0.62229098  0.49726981  0.12081296  1
  V  V83  1  0.87908016  -0.00226716  0.87455925  1
  V  V84  1  0.49744524  0.87679583  0.87351045  1
  Zn  Zn85  1  0.87582069  0.12450858  0.25199404  1
  Zn  Zn86  1  0.74825841  0.37420375  0.62575925  1
  Zn  Zn87  1  0.49813885  0.12559059  0.63791270  1
  Zn  Zn88  1  0.25855827  0.36840966  0.12515502  1
  Zn  Zn89  1  0.86854764  0.63749625  0.24258736  1
  Zn  Zn90  1  0.12835476  0.61912187  -0.01599300  1
  Zn  Zn91  1  0.49385161  0.00530323  0.49671296  1
  Zn  Zn92  1  0.12306635  0.24668112  0.37642459  1
  Zn  Zn93  1  0.75799593  0.26005039  -0.00938867  1
  Zn  Zn94  1  0.37388786  0.87574050  -0.00318040  1
  Zn  Zn95  1  0.62650076  0.62029313  -0.00549120  1
  Zn  Zn96  1  0.75052327  0.12435928  0.37389212  1
  Zn  Zn97  1  0.37840262  0.15096989  0.24944991  1
  Zn  Zn98  1  0.12019435  0.75098638  0.37261303  1
  Zn  Zn99  1  0.80876881  0.81145896  0.16668529  1
  Zn  Zn100  1  -0.00078652  0.24954032  0.25218505  1
  Zn  Zn101  1  0.89194733  0.12458879  0.74631177  1
  Zn  Zn102  1  0.25714366  0.72734981  -0.02210190  1
  Zn  Zn103  1  0.62569841  0.49961716  0.62787066  1
  Zn  Zn104  1  -0.01476046  0.75749679  0.24728730  1
  Zn  Zn105  1  0.75669345  0.74431507  0.49819409  1
  Zn  Zn106  1  0.75173406  0.74424063  0.00587865  1
  Zn  Zn107  1  0.19086283  0.19041123  0.19188311  1
  Zn  Zn108  1  0.06456293  0.18605621  0.68730497  1
  Zn  Zn109  1  0.19346011  0.67386839  0.11691390  1
  Zn  Zn110  1  0.17958912  0.69623660  0.67479405  1
  Zn  Zn111  1  0.69085353  0.18631964  0.18800604  1
  Zn  Zn112  1  0.69013497  0.18886872  0.68676480  1
  Zn  Zn113  1  0.68267698  0.68293391  0.18538042  1
  Zn  Zn114  1  0.69136328  0.68368439  0.68642206  1
  Zn  Zn115  1  0.30789072  0.31196598  0.31798681  1
  Zn  Zn116  1  0.30044928  0.30177046  0.81312927  1
  Zn  Zn117  1  0.31167016  0.81213028  0.30933766  1
  Zn  Zn118  1  0.30410119  0.92120718  0.81511442  1
  Zn  Zn119  1  0.80913952  0.31340298  0.30800306  1
  Zn  Zn120  1  0.80769451  0.31231181  0.80635319  1
  Zn  Zn121  1  0.81366669  0.81846196  0.32987850  1
  Zn  Zn122  1  0.81712604  0.81063671  0.81048660  1
  Zn  Zn123  1  0.18594900  0.43744378  0.43895240  1
  Zn  Zn124  1  0.18796127  0.42754461  0.93632312  1
  Zn  Zn125  1  0.18595790  0.94375872  0.43623781  1
  Zn  Zn126  1  0.18430343  0.93536091  0.94158683  1
  Zn  Zn127  1  0.68624113  0.43802449  0.43689561  1
  Zn  Zn128  1  0.68656713  0.43879862  0.93188162  1
  Zn  Zn129  1  0.68722373  0.93865635  0.43317001  1
  Zn  Zn130  1  0.68793422  0.93894411  0.93536864  1
  Zn  Zn131  1  0.31676594  0.06435731  0.06539427  1
  Zn  Zn132  1  0.30881487  0.06484423  0.56666163  1
  Zn  Zn133  1  0.32271720  0.53330502  0.06883883  1
  Zn  Zn134  1  0.31148214  0.56321927  0.56427209  1
  Zn  Zn135  1  0.81519547  0.06006555  0.06211185  1
  Zn  Zn136  1  0.80982672  0.06888010  0.56328814  1
  Zn  Zn137  1  0.81532026  0.56510792  0.06355080  1
  Zn  Zn138  1  0.81332546  0.56436291  0.56477415  1
  Zn  Zn139  1  0.42062373  0.34566958  0.17923645  1
  Zn  Zn140  1  0.43506077  0.43944481  0.68893451  1
  Zn  Zn141  1  0.44227896  0.93928225  0.18428539  1
  Zn  Zn142  1  0.44425084  0.92941492  0.67702436  1
  Zn  Zn143  1  0.92869212  0.43682372  0.19268251  1
  Zn  Zn144  1  0.93509926  0.43764147  0.68182899  1
  Zn  Zn145  1  0.94162441  0.94097405  0.19053658  1
  Zn  Zn146  1  0.93811229  0.93232501  0.68959186  1
  Zn  Zn147  1  0.06782908  0.05928400  0.31492914  1
  Zn  Zn148  1  0.06534575  0.05371529  0.81564756  1
  Zn  Zn149  1  0.05687048  0.56866061  0.30268595  1
  Zn  Zn150  1  0.04099650  0.55190580  0.81630249  1
  Zn  Zn151  1  0.56401279  0.06339546  0.31019425  1
  Zn  Zn152  1  0.58284441  0.06114888  0.81173249  1
  Zn  Zn153  1  0.56140264  0.56127416  0.31135108  1
  Zn  Zn154  1  0.56381415  0.55919373  0.81242705  1
  Zn  Zn155  1  0.43810658  0.19088715  0.44066151  1
  Zn  Zn156  1  0.44166822  0.19035646  0.94385252  1
  Zn  Zn157  1  0.44114315  0.69207699  0.43945569  1
  Zn  Zn158  1  0.44334569  0.69305196  0.94093432  1
  Zn  Zn159  1  0.93537243  0.18847780  0.43599844  1
  Zn  Zn160  1  0.93817321  0.18447853  0.94238022  1
  Zn  Zn161  1  0.93692947  0.69620250  0.44016597  1
  Zn  Zn162  1  0.93893983  0.68401152  0.94467839  1
  Zn  Zn163  1  0.07024475  0.29408976  0.06735438  1
  Zn  Zn164  1  0.06523317  0.31606446  0.55756051  1
  Zn  Zn165  1  0.06963674  0.80651985  0.05659033  1
  Zn  Zn166  1  0.06259048  0.81127113  0.56553771  1
  Zn  Zn167  1  0.57084547  0.30974682  0.05705730  1
  Zn  Zn168  1  0.55909939  0.31348264  0.56711241  1
  Zn  Zn169  1  0.56975632  0.81191307  0.06154990  1
  Zn  Zn170  1  0.56251605  0.81325696  0.55873950  1
  O  O171  1  0.12168913  0.12162015  0.12100937  1
  O  O172  1  0.12332737  0.11231172  0.61551022  1
  O  O173  1  0.10069472  0.61470858  0.13949129  1
  O  O174  1  0.11646244  0.62053049  0.61564714  1
  O  O175  1  0.61948993  0.12179754  0.11807202  1
  O  O176  1  0.62240612  0.11873255  0.61930597  1
  O  O177  1  0.61233359  0.61432407  0.12277389  1
  O  O178  1  0.61469863  0.62424211  0.61679357  1
  O  O179  1  0.37843047  0.38227625  0.38421070  1
  O  O180  1  0.37412594  0.37702169  0.86527820  1
  O  O181  1  0.38373032  0.86984638  0.38146222  1
  O  O182  1  0.39240766  0.87509496  0.87726950  1
  O  O183  1  0.88154538  0.37901822  0.37871995  1
  O  O184  1  0.86396920  0.37349804  0.88328274  1
  O  O185  1  0.88877859  0.88929287  0.37910737  1
  O  O186  1  0.88494693  0.87847401  0.88120054  1
  O  O187  1  0.24977308  0.01061753  0.36678979  1
  O  O188  1  0.25403131  0.00511460  0.88005368  1
  O  O189  1  0.25505259  0.50886900  0.37702278  1
  O  O190  1  0.26506442  0.49577004  0.87689190  1
  O  O191  1  0.76285529  -0.00150731  0.36810725  1
  O  O192  1  0.75502667  0.00845454  0.86736994  1
  O  O193  1  0.75758812  0.49407849  0.36651057  1
  O  O194  1  0.75960787  0.50362917  0.86651348  1
  O  O195  1  0.23933930  0.51150236  0.14803841  1
  O  O196  1  0.24273221  0.49029792  0.61974234  1
  O  O197  1  0.24934436  0.99395168  0.13235844  1
  O  O198  1  0.24107889  0.98922569  0.62035942  1
  O  O199  1  0.74184956  0.49357690  0.13076767  1
  O  O200  1  0.74893963  0.49984571  0.63688975  1
  O  O201  1  0.73878592  1.00509393  0.13120692  1
  O  O202  1  0.74596134  0.99365246  0.62636153  1
  O  O203  1  0.00470258  0.37615691  0.26028615  1
  O  O204  1  0.01534465  0.38357356  0.74165035  1
  O  O205  1  0.00925035  0.87654714  0.25695105  1
  O  O206  1  0.01249602  0.87912155  0.76086094  1
  O  O207  1  0.51276171  0.37606547  0.25297865  1
  O  O208  1  0.51528554  0.37958316  0.74704030  1
  O  O209  1  0.50516633  0.86975782  0.25601073  1
  O  O210  1  0.51034748  0.86837032  0.75393826  1
  O  O211  1  0.50176819  0.12564335  0.23597654  1
  O  O212  1  0.49274070  0.10906913  0.75665388  1
  O  O213  1  0.49525729  0.62883793  0.24151683  1
  O  O214  1  0.50786091  0.63101915  0.73728669  1
  O  O215  1  1.00464113  0.12379721  0.23939113  1
  O  O216  1  1.00364570  0.12239571  0.75442590  1
  O  O217  1  0.98903292  0.63693527  0.24516080  1
  O  O218  1  1.00517551  0.62328983  0.73533654  1
  O  O219  1  0.36213342  0.24572078  0.00075796  1
  O  O220  1  0.36752750  0.25765137  0.50531066  1
  O  O221  1  0.37244018  0.75441701  0.00934454  1
  O  O222  1  0.36923890  0.76145137  0.50235219  1
  O  O223  1  0.87219969  0.24224979  0.01642771  1
  O  O224  1  0.86706419  0.25389130  0.50482429  1
  O  O225  1  0.87237020  0.76529919  -0.00227237  1
  O  O226  1  0.86962327  0.74272815  0.51683015  1
  O  O227  1  0.13299754  0.23735986  0.50411045  1
  O  O228  1  0.13290923  0.23369851  0.99500871  1
  O  O229  1  0.13069536  0.74230641  0.49732892  1
  O  O230  1  0.14591073  0.73444655  1.01574810  1
  O  O231  1  0.63024096  0.24564682  0.49670549  1
  O  O232  1  0.63322128  0.24090340  0.98988633  1
  O  O233  1  0.62275348  0.74029562  0.49264146  1
  O  O234  1  0.62560842  0.75109812  0.98209834  1
  O  O235  1  0.50364909  0.24130325  0.12120397  1
  O  O236  1  0.48321649  0.24676738  0.62255793  1
  O  O237  1  0.49304919  0.74390270  0.12770535  1
  O  O238  1  0.49507042  0.74641572  0.62951276  1
  O  O239  1  0.99287035  0.23963128  0.13026225  1
  O  O240  1  0.99055632  0.25197338  0.61950577  1
  O  O241  1  1.00213157  0.74255528  0.12708300  1
  O  O242  1  0.99577429  0.73616522  0.62100829  1
  O  O243  1  0.00056184  0.26060258  0.37330799  1
  O  O244  1  0.01704625  0.24184793  0.88554863  1
  O  O245  1  -0.00030851  0.76755369  0.37260144  1
  O  O246  1  0.00061085  0.75849983  0.88033032  1
  O  O247  1  0.51358765  0.25789089  0.38200670  1
  O  O248  1  0.51620927  0.24075757  0.87583616  1
  O  O249  1  0.50884193  0.76034711  0.37062376  1
  O  O250  1  0.50916459  0.75828070  0.86739511  1
  O  O251  1  0.24488346  0.13114618  0.49546259  1
  O  O252  1  0.24580621  0.12789985  0.99980251  1
  O  O253  1  0.24003845  0.62947748  0.49249716  1
  O  O254  1  0.24953473  0.62075890  1.02616033  1
  O  O255  1  0.73718070  0.13336425  0.49682031  1
  O  O256  1  0.74204358  0.12132891  0.99252416  1
  O  O257  1  0.73336692  0.62268910  0.50551557  1
  O  O258  1  0.74594870  0.62434703  0.98873378  1
  O  O259  1  0.24493665  0.35318671  0.00035720  1
  O  O260  1  0.25249356  0.36766214  0.50734734  1
  O  O261  1  0.25253075  0.87629633  0.01561158  1
  O  O262  1  0.25440422  0.87326039  0.50177371  1
  O  O263  1  0.73770740  0.37479915  0.01522479  1
  O  O264  1  0.75366226  0.36807214  0.50195138  1
  O  O265  1  0.76769064  0.87764162  -0.00870557  1
  O  O266  1  0.74356092  0.87301206  0.51044109  1
  O  O267  1  0.13191626  0.48784812  0.26729510  1
  O  O268  1  0.13392538  0.49641420  0.74866032  1
  O  O269  1  0.13683005  0.99350149  0.24537256  1
  O  O270  1  0.12427889  0.99127175  0.73446843  1
  O  O271  1  0.62856773  0.49200768  0.24513556  1
  O  O272  1  0.63350306  0.48761454  0.75146381  1
  O  O273  1  0.63290407  0.99486159  0.24334582  1
  O  O274  1  0.63564883  0.99420448  0.73588426  1
  O  O275  1  0.36662782  0.00267122  0.24513047  1
  O  O276  1  0.37574758  -0.01111879  0.74996331  1
  O  O277  1  0.36369400  0.51015449  0.26684690  1
  O  O278  1  0.37798246  0.50149253  0.76714578  1
  O  O279  1  0.86809975  0.00187163  0.25590029  1
  O  O280  1  0.87089286  0.00132903  0.75572224  1
  O  O281  1  0.86242276  0.50088330  0.26128691  1
  O  O282  1  0.86205980  0.49057208  0.75518073  1
  O  O283  1  0.11262283  0.37258851  0.37422460  1
  O  O284  1  0.13185159  0.35981926  0.86359564  1
  O  O285  1  0.11382776  0.88168084  0.36890730  1
  O  O286  1  0.12107184  0.87872668  0.86247487  1
  O  O287  1  0.61936779  0.36894467  0.36780181  1
  O  O288  1  0.63138952  0.36479133  0.86115664  1
  O  O289  1  0.61757412  0.86924654  0.36772604  1
  O  O290  1  0.61862559  0.87163895  0.86711806  1
  O  O291  1  0.39472173  0.12439381  0.12679374  1
  O  O292  1  0.37631047  0.13742202  0.62318777  1
  O  O293  1  0.38506908  0.62898228  0.13253564  1
  O  O294  1  0.38563943  0.63489824  0.61614729  1
  O  O295  1  0.88516574  0.12687633  0.12783350  1
  O  O296  1  0.87418735  0.14131822  0.62356592  1
  O  O297  1  0.89143555  0.62118499  0.12592159  1
  O  O298  1  0.89029100  0.62690075  0.62363348  1
  O  O299  1  0.24562296  0.24971816  0.11073717  1
  O  O300  1  0.26257726  0.25881179  0.61305276  1
  O  O301  1  0.26782228  0.75926736  0.13905537  1
  O  O302  1  0.25333446  0.76172541  0.61441198  1
  O  O303  1  0.75599368  0.25741383  0.12364275  1
  O  O304  1  0.75613345  0.25074611  0.61187309  1
  O  O305  1  0.72839023  0.75613468  0.11615436  1
  O  O306  1  0.75429116  0.75831016  0.62352525  1
  O  O307  1  0.24526795  0.24444225  0.38977073  1
  O  O308  1  0.24315467  0.23270197  0.88647127  1
  O  O309  1  0.24749442  0.74311709  0.37986538  1
  O  O310  1  0.26506624  0.75740014  0.86453902  1
  O  O311  1  0.74137927  0.25112080  0.38556373  1
  O  O312  1  0.74660499  0.23727502  0.87343969  1
  O  O313  1  0.73350711  0.75589507  0.38121190  1
  O  O314  1  0.74597505  0.74113998  0.87324328  1
  O  O315  1  0.00990064  0.11761115  0.01279355  1
  O  O316  1  0.01587133  0.12814634  0.49326442  1
  O  O317  1  0.00825230  0.62617840  0.01295645  1
  O  O318  1  0.01089089  0.62248337  0.49898545  1
  O  O319  1  0.51276184  0.11995692  0.00803038  1
  O  O320  1  0.51145251  0.12383556  0.50066755  1
  O  O321  1  0.50435920  0.62545742  0.00827338  1
  O  O322  1  0.50671734  0.62019423  0.50764528  1
  O  O323  1  0.49459576  0.38246344  0.49528320  1
  O  O324  1  0.49991689  0.38179439  1.00074571  1
  O  O325  1  0.49079467  0.87696156  0.49095516  1
  O  O326  1  0.50613216  0.88563425  0.98961863  1
  O  O327  1  0.99464946  0.38309518  0.49185093  1
  O  O328  1  1.01664541  0.38706058  1.02468330  1
  O  O329  1  1.00902882  0.87714152  0.48715136  1
  O  O330  1  0.99680522  0.87682655  0.99402463  1
  O  O331  1  0.49269100  0.49399230  0.38003416  1
  O  O332  1  0.49194438  0.49824137  0.88232432  1
  O  O333  1  0.50605763  0.98745237  0.37592396  1
  O  O334  1  0.49808808  1.00016390  0.87708752  1
  O  O335  1  0.98930046  0.49474762  0.37902258  1
  O  O336  1  0.97412257  0.49077610  0.87641619  1
  O  O337  1  0.98858976  0.99347389  0.37210724  1
  O  O338  1  0.99674020  0.99078718  0.88567160  1
  O  O339  1  0.00918194  0.00548597  0.12107765  1
  O  O340  1  0.01026620  -0.00504212  0.62296380  1
  O  O341  1  -0.00029573  0.50416298  0.13215778  1
  O  O342  1  0.00476350  0.51129952  0.61714979  1
  O  O343  1  0.51289330  0.00927347  0.11867602  1
  O  O344  1  0.51259178  0.00184732  0.61925817  1
  O  O345  1  0.50482114  0.50727918  0.10562452  1
  O  O346  1  0.49930017  0.50893684  0.61939409  1
  O  O347  1  0.23986403  0.38465016  0.25381751  1
  O  O348  1  0.24061662  0.36886537  0.73706599  1
  O  O349  1  0.24753285  0.88422815  0.24293553  1
  O  O350  1  0.23545370  0.87456325  0.73867897  1
  O  O351  1  0.73828895  0.38362361  0.24189446  1
  O  O352  1  0.74237798  0.38643610  0.74586763  1
  O  O353  1  0.74672572  0.88508652  0.25063905  1
  O  O354  1  0.74681568  0.88221997  0.74312733  1
  O  O355  1  0.25492876  0.12031458  0.25885700  1
  O  O356  1  0.25136661  0.11973173  0.76952479  1
  O  O357  1  0.25481066  0.62090840  0.26637574  1
  O  O358  1  0.25182294  0.63512718  0.74743802  1
  O  O359  1  0.74922786  0.11090910  0.25403550  1
  O  O360  1  0.75338765  0.11723675  0.75651981  1
  O  O361  1  0.74830536  0.61006074  0.24583647  1
  O  O362  1  0.74384710  0.60718215  0.75759747  1
  O  O363  1  0.36505988  0.13322006  0.37243712  1
  O  O364  1  0.36798228  0.12156818  0.88042324  1
  O  O365  1  0.36885599  0.62226794  0.37653249  1
  O  O366  1  0.37342729  0.63867135  0.86523358  1
  O  O367  1  0.87392699  0.11431866  0.37231609  1
  O  O368  1  0.86894396  0.11827852  0.87560903  1
  O  O369  1  0.87652501  0.61705272  0.37534754  1
  O  O370  1  0.86636390  0.62228137  0.87864963  1
  O  O371  1  0.12746391  0.38282574  0.13497661  1
  O  O372  1  0.13191971  0.38086631  0.62894751  1
  O  O373  1  0.13484257  0.88056494  0.13166101  1
  O  O374  1  0.12797161  0.88411417  0.62952045  1
  O  O375  1  0.62829626  0.37837243  0.13224631  1
  O  O376  1  0.62698370  0.37648496  0.63600649  1
  O  O377  1  0.61627019  0.88739532  0.13430979  1
  O  O378  1  0.63157509  0.88193507  0.62693725  1
  O  O379  1  0.12449534  0.26531868  0.25367121  1
  O  O380  1  0.12427899  0.25630329  0.75745511  1
  O  O381  1  0.12855308  0.76912268  0.25371524  1
  O  O382  1  0.12152735  0.76720154  0.74204195  1
  O  O383  1  0.63365583  0.25757744  0.26150532  1
  O  O384  1  0.63119192  0.26244011  0.75450168  1
  O  O385  1  0.61851588  0.75246692  0.25811417  1
  O  O386  1  0.62473768  0.75411547  0.75748427  1
  O  O387  1  0.37513995  0.26462100  0.24365927  1
  O  O388  1  0.36944262  0.25113113  0.73568803  1
  O  O389  1  0.38346075  0.74327381  0.24546339  1
  O  O390  1  0.38175008  0.75204705  0.74151391  1
  O  O391  1  0.87517737  0.24440103  0.23999216  1
  O  O392  1  0.87030563  0.25011259  0.73113444  1
  O  O393  1  0.86592100  0.75664680  0.24997799  1
  O  O394  1  0.87073589  0.74859813  0.73224713  1
  O  O395  1  0.38017020  0.49534947  0.49577553  1
  O  O396  1  0.39080291  0.50441054  0.97997918  1
  O  O397  1  0.37467962  0.98839351  0.50556553  1
  O  O398  1  0.39283073  0.99680378  1.00838390  1
  O  O399  1  0.87705444  0.49581110  0.49322556  1
  O  O400  1  0.86418701  0.49065582  0.99127366  1
  O  O401  1  0.87039263  1.00666586  0.48761871  1
  O  O402  1  0.88185787  0.99114682  0.99387169  1
  O  O403  1  0.12329576  0.00807946  0.00945458  1
  O  O404  1  0.12834156  0.01249527  0.51027263  1
  O  O405  1  0.12762705  0.49998909  0.00447166  1
  O  O406  1  0.11906140  0.50856425  0.50446305  1
  O  O407  1  0.62057943  0.00636637  0.00587346  1
  O  O408  1  0.62692285  0.00880281  0.50656842  1
  O  O409  1  0.61115676  0.49873689  -0.00188145  1
  O  O410  1  0.61643790  0.50569606  0.50136787  1
  O  O411  1  0.36053263  0.41696464  0.11962466  1
  O  O412  1  0.36862556  0.37035695  0.62176506  1
  O  O413  1  0.37216340  0.86642012  0.12451069  1
  O  O414  1  0.36564461  0.86956292  0.61571847  1
  O  O415  1  0.86289700  0.36517723  0.13206174  1
  O  O416  1  0.87342289  0.36400137  0.61523216  1
  O  O417  1  0.87933965  0.88286309  0.10919380  1
  O  O418  1  0.86748720  0.86787725  0.62608193  1
  O  O419  1  0.13456469  0.12440886  0.38692180  1
  O  O420  1  0.13726443  0.12191699  0.88443868  1
  O  O421  1  0.13077976  0.62722869  0.38054930  1
  O  O422  1  0.13411420  0.60324491  0.86545081  1
  O  O423  1  0.62559988  0.13322277  0.38175243  1
  O  O424  1  0.63731329  0.12965715  0.88224903  1
  O  O425  1  0.61479408  0.63436048  0.38442764  1
  O  O426  1  0.63303065  0.63279423  0.87315290  1
