# generated using pymatgen
data_V85Zn86O256
_symmetry_space_group_name_H-M   'P 1'
_cell_length_a   16.94195007
_cell_length_b   16.93504018
_cell_length_c   16.94757135
_cell_angle_alpha   90.11799043
_cell_angle_beta   89.94206352
_cell_angle_gamma   89.95134087
_symmetry_Int_Tables_number   1
_chemical_formula_structural   V85Zn86O256
_chemical_formula_sum   'V85 Zn86 O256'
_cell_volume   4862.45728863
_cell_formula_units_Z   1
loop_
 _symmetry_equiv_pos_site_id
 _symmetry_equiv_pos_as_xyz
  1  'x, y, z'
loop_
 _atom_site_type_symbol
 _atom_site_label
 _atom_site_symmetry_multiplicity
 _atom_site_fract_x
 _atom_site_fract_y
 _atom_site_fract_z
 _atom_site_occupancy
  V  V0  1  0.49705133  0.00036331  -0.01558259  1
  V  V1  1  0.74825497  0.76328490  0.00275675  1
  V  V2  1  0.38597290  0.24358029  0.62492625  1
  V  V3  1  0.37503900  0.88044492  -0.00957182  1
  V  V4  1  0.87364542  0.37579472  0.00020736  1
  V  V5  1  0.24702735  0.87377040  0.13124807  1
  V  V6  1  0.50389119  0.00624531  0.50490420  1
  V  V7  1  -0.00277399  0.11855347  0.11889546  1
  V  V8  1  0.38288463  0.74933990  0.12543410  1
  V  V9  1  -0.00418569  0.62679719  0.62607778  1
  V  V10  1  0.12400068  0.37066304  0.75069819  1
  V  V11  1  0.13435735  0.12533410  0.00331858  1
  V  V12  1  0.87284803  0.12267475  0.75232202  1
  V  V13  1  0.62090717  0.50641539  0.12598797  1
  V  V14  1  0.38206211  -0.00573950  0.36932030  1
  V  V15  1  0.62964159  0.24086292  0.37206526  1
  V  V16  1  0.25471643  0.24226836  0.49782830  1
  V  V17  1  0.25204820  0.61638541  0.37270119  1
  V  V18  1  0.12445026  0.87953505  0.75034661  1
  V  V19  1  0.37924359  0.38389472  0.49580161  1
  V  V20  1  0.87373739  0.37583717  0.49768963  1
  V  V21  1  0.00034147  0.37339039  0.87494111  1
  V  V22  1  0.37356125  0.74604542  0.62623154  1
  V  V23  1  0.86930746  0.00467530  0.88226312  1
  V  V24  1  0.38368813  0.61946335  0.24795264  1
  V  V25  1  0.12909058  0.12225189  0.49338033  1
  V  V26  1  0.11806323  -0.00657284  0.12427067  1
  V  V27  1  0.62604330  0.37785094  0.25194665  1
  V  V28  1  0.24996854  0.49621557  0.75541825  1
  V  V29  1  0.74758778  0.37581401  0.12328598  1
  V  V30  1  0.24410315  0.00160234  0.25504453  1
  V  V31  1  -0.00232418  0.88156686  0.88584127  1
  V  V32  1  0.38461018  0.11293964  0.75364505  1
  V  V33  1  0.86740767  0.62563149  0.74742850  1
  V  V34  1  0.74301112  0.62572569  0.87686177  1
  V  V35  1  0.12547520  0.50318617  0.12765415  1
  V  V36  1  0.49500436  0.49986927  -0.00046312  1
  V  V37  1  0.62350610  0.12463099  0.51324601  1
  V  V38  1  0.12548872  0.62582668  0.49909876  1
  V  V39  1  0.13134774  0.24584705  0.37299473  1
  V  V40  1  0.61822341  0.62875393  0.00316341  1
  V  V41  1  0.87885432  0.24779929  0.62411498  1
  V  V42  1  0.00324253  -0.00683115  0.49383359  1
  V  V43  1  0.24686272  0.75089053  0.00351764  1
  V  V44  1  0.37318334  0.61814358  0.75384904  1
  V  V45  1  0.49969783  0.24971553  0.24931421  1
  V  V46  1  0.25006328  0.37072417  0.62381425  1
  V  V47  1  0.00128024  0.24616823  0.25031518  1
  V  V48  1  0.50011538  0.38910927  0.37661812  1
  V  V49  1  0.50135107  0.37546821  0.86597424  1
  V  V50  1  0.61582134  0.76264495  0.37425830  1
  V  V51  1  0.37310752  0.37135030  -0.00325084  1
  V  V52  1  -0.00293175  0.75291025  0.74984803  1
  V  V53  1  0.12303042  0.49906970  0.62548641  1
  V  V54  1  0.74921706  0.75353074  0.49625283  1
  V  V55  1  0.75164061  0.63026226  0.36590537  1
  V  V56  1  0.87444265  0.24958053  0.12484868  1
  V  V57  1  0.87499563  0.87595219  0.50006021  1
  V  V58  1  -0.00307206  0.50008834  0.50060690  1
  V  V59  1  0.74888548  -0.00712677  0.24600748  1
  V  V60  1  0.25008448  0.75065910  0.49886745  1
  V  V61  1  0.38767421  0.87332817  0.49438429  1
  V  V62  1  0.87092944  0.75172057  0.13401653  1
  V  V63  1  0.49232058  0.75438586  0.76665153  1
  V  V64  1  0.24738272  0.62045974  0.87961324  1
  V  V65  1  0.37152067  0.12510500  0.25535773  1
  V  V66  1  0.63132370  0.12663972  -0.00223085  1
  V  V67  1  0.12095049  0.75129852  0.87771587  1
  V  V68  1  0.86951202  0.50206327  0.87122097  1
  V  V69  1  0.86195983  0.75508145  0.62596086  1
  V  V70  1  0.13480735  0.24839272  0.88174943  1
  V  V71  1  0.00455868  0.12194964  0.62582521  1
  V  V72  1  0.36783327  0.24885619  0.12097520  1
  V  V73  1  0.74875355  -0.00607962  0.73528945  1
  V  V74  1  0.75392189  0.24385672  0.49387138  1
  V  V75  1  0.87099192  -0.00040147  0.37431188  1
  V  V76  1  0.63210245  0.25050597  0.86702474  1
  V  V77  1  0.62500675  -0.00797495  0.12095177  1
  V  V78  1  0.12177451  0.76417232  0.36870441  1
  V  V79  1  0.74983296  0.37841019  0.63949018  1
  V  V80  1  0.25507357  0.87991648  0.62562393  1
  V  V81  1  -0.00205436  0.50572317  0.00115087  1
  V  V82  1  0.86684849  0.12507367  0.25467718  1
  V  V83  1  0.12752553  0.37623078  0.25047644  1
  V  V84  1  0.87567263  0.50629336  0.36728311  1
  Zn  Zn85  1  0.49344257  0.61208587  0.61167755  1
  Zn  Zn86  1  0.63150274  0.87706509  0.74653636  1
  Zn  Zn87  1  0.00095024  0.37490923  0.37486499  1
  Zn  Zn88  1  0.49985468  0.12318325  0.12334257  1
  Zn  Zn89  1  0.75147196  0.24565578  -0.00270447  1
  Zn  Zn90  1  0.13039311  0.00149433  0.62496031  1
  Zn  Zn91  1  0.50884644  0.24836121  0.74231783  1
  Zn  Zn92  1  0.61471555  0.75913789  0.87999735  1
  Zn  Zn93  1  0.61470286  0.48812903  0.63179404  1
  Zn  Zn94  1  0.26112958  0.12156021  0.88019718  1
  Zn  Zn95  1  0.87275199  0.88139896  0.00712769  1
  Zn  Zn96  1  0.00415264  0.24493792  0.75308558  1
  Zn  Zn97  1  0.75506720  0.50673793  0.24531341  1
  Zn  Zn98  1  0.12113694  0.62741391  0.00457904  1
  Zn  Zn99  1  -0.00185452  0.75496685  0.25665864  1
  Zn  Zn100  1  0.49697231  0.75826196  0.25087832  1
  Zn  Zn101  1  0.26127817  -0.00332806  0.76301787  1
  Zn  Zn102  1  0.25670983  0.49651361  0.25072762  1
  Zn  Zn103  1  -0.01232873  0.62288849  0.14265451  1
  Zn  Zn104  1  0.24848032  0.37320868  0.11868943  1
  Zn  Zn105  1  0.61593476  0.87966233  0.24964263  1
  Zn  Zn106  1  0.61057690  0.61206847  0.49458220  1
  Zn  Zn107  1  0.18909708  0.18416351  0.18599066  1
  Zn  Zn108  1  0.19452356  0.18344466  0.68951404  1
  Zn  Zn109  1  0.18771025  0.68444448  0.19077111  1
  Zn  Zn110  1  0.18673482  0.68889022  0.68913633  1
  Zn  Zn111  1  0.68680411  0.18442273  0.18323703  1
  Zn  Zn112  1  0.69571540  0.18895234  0.68710028  1
  Zn  Zn113  1  0.68765370  0.69271521  0.18697540  1
  Zn  Zn114  1  0.66187831  0.64806389  0.70297001  1
  Zn  Zn115  1  0.31312244  0.31308654  0.31416546  1
  Zn  Zn116  1  0.31599830  0.30804994  0.81275587  1
  Zn  Zn117  1  0.30977980  0.80979704  0.31151580  1
  Zn  Zn118  1  0.30837467  0.80968881  0.81341078  1
  Zn  Zn119  1  0.81229807  0.31597877  0.31129908  1
  Zn  Zn120  1  0.81764775  0.30639267  0.81461738  1
  Zn  Zn121  1  0.81402501  0.81969139  0.31535054  1
  Zn  Zn122  1  0.80709708  0.81617066  0.81643896  1
  Zn  Zn123  1  0.18914194  0.43460636  0.43811713  1
  Zn  Zn124  1  0.18570523  0.43645458  0.94054356  1
  Zn  Zn125  1  0.19755904  0.94006111  0.43851493  1
  Zn  Zn126  1  0.18836660  0.94108409  0.94190657  1
  Zn  Zn127  1  0.68738482  0.43843605  0.44054576  1
  Zn  Zn128  1  0.68448533  0.43829605  0.93623878  1
  Zn  Zn129  1  0.68981123  0.93952235  0.44086733  1
  Zn  Zn130  1  0.68252186  0.94019681  0.92533796  1
  Zn  Zn131  1  0.31378896  0.06041165  0.06639958  1
  Zn  Zn132  1  0.32041161  0.06080339  0.56369043  1
  Zn  Zn133  1  0.31206134  0.56109005  0.06591250  1
  Zn  Zn134  1  0.30977522  0.56079283  0.56426966  1
  Zn  Zn135  1  0.80922534  0.06212811  0.06447306  1
  Zn  Zn136  1  0.81412424  0.06540670  0.56024226  1
  Zn  Zn137  1  0.80800121  0.56834304  0.06142716  1
  Zn  Zn138  1  0.78077471  0.55050553  0.54757302  1
  Zn  Zn139  1  0.44001522  0.43601743  0.18458331  1
  Zn  Zn140  1  0.43367956  0.43505287  0.68509144  1
  Zn  Zn141  1  0.43969052  0.93659483  0.18056018  1
  Zn  Zn142  1  0.47816486  0.91418102  0.66467168  1
  Zn  Zn143  1  0.94116487  0.43514981  0.18793289  1
  Zn  Zn144  1  0.93316575  0.43745105  0.68844099  1
  Zn  Zn145  1  0.94031699  0.92493184  0.19265093  1
  Zn  Zn146  1  0.93738906  0.93861717  0.68693221  1
  Zn  Zn147  1  0.05766192  0.05587258  0.30934416  1
  Zn  Zn148  1  0.06394133  0.06001415  0.81692713  1
  Zn  Zn149  1  0.06026160  0.56873253  0.31336162  1
  Zn  Zn150  1  0.06032350  0.56292681  0.81300837  1
  Zn  Zn151  1  0.56122468  0.06191859  0.31227132  1
  Zn  Zn152  1  0.56658303  0.06876883  0.80684609  1
  Zn  Zn153  1  0.56656312  0.57044170  0.31255614  1
  Zn  Zn154  1  0.56087417  0.55510279  0.81023319  1
  Zn  Zn155  1  0.44130258  0.18816264  0.43263673  1
  Zn  Zn156  1  0.44515237  0.18847497  0.93471595  1
  Zn  Zn157  1  0.43600866  0.68325020  0.43437886  1
  Zn  Zn158  1  0.42851742  0.68055104  0.94267535  1
  Zn  Zn159  1  0.94250938  0.18382710  0.43504388  1
  Zn  Zn160  1  0.94203655  0.18647429  0.93884409  1
  Zn  Zn161  1  0.93855293  0.68680155  0.43544878  1
  Zn  Zn162  1  0.93208922  0.69084795  0.94084523  1
  Zn  Zn163  1  0.06128250  0.31233061  0.06259066  1
  Zn  Zn164  1  0.06279802  0.30985391  0.56106213  1
  Zn  Zn165  1  0.05758710  0.81151789  0.06955995  1
  Zn  Zn166  1  0.06314312  0.81178800  0.56347977  1
  Zn  Zn167  1  0.56068906  0.31241131  0.06098872  1
  Zn  Zn168  1  0.56707729  0.31654417  0.55756388  1
  Zn  Zn169  1  0.55869758  0.81843779  0.05952652  1
  Zn  Zn170  1  0.58826995  0.77552888  0.59172155  1
  O  O171  1  0.11677191  0.12022267  0.12033778  1
  O  O172  1  0.12135784  0.12407725  0.61472987  1
  O  O173  1  0.12139527  0.61278132  0.12566574  1
  O  O174  1  0.11912879  0.62051574  0.61994356  1
  O  O175  1  0.62118801  0.11908294  0.11430389  1
  O  O176  1  0.62711820  0.13493784  0.61237117  1
  O  O177  1  0.62876983  0.61740639  0.11721847  1
  O  O178  1  0.60836817  0.66171969  0.60543519  1
  O  O179  1  0.38624692  0.36891789  0.38334243  1
  O  O180  1  0.39069386  0.36479247  0.88223285  1
  O  O181  1  0.36679880  0.88221905  0.38249420  1
  O  O182  1  0.36125658  0.87156428  0.89252659  1
  O  O183  1  0.87840033  0.38081254  0.38289298  1
  O  O184  1  0.87891160  0.38287740  0.87934110  1
  O  O185  1  0.87650861  0.88381016  0.38932511  1
  O  O186  1  0.88116784  0.88692620  0.87725221  1
  O  O187  1  0.25973424  -0.00183654  0.36084177  1
  O  O188  1  0.24228962  0.00899502  0.87431106  1
  O  O189  1  0.24609883  0.51213488  0.37458519  1
  O  O190  1  0.23844226  0.50765570  0.86632747  1
  O  O191  1  0.76391831  0.00073527  0.36929505  1
  O  O192  1  0.76692201  0.00008573  0.86418681  1
  O  O193  1  0.75820277  0.51028605  0.37301016  1
  O  O194  1  0.75756279  0.51245080  0.88183274  1
  O  O195  1  0.23892771  0.49469122  0.12761457  1
  O  O196  1  0.24107438  0.49119783  0.63251576  1
  O  O197  1  0.24279358  0.99219044  0.13300206  1
  O  O198  1  0.25256349  0.98784564  0.62642687  1
  O  O199  1  0.74106374  0.49425306  0.12419920  1
  O  O200  1  0.77433922  0.47699048  0.63500412  1
  O  O201  1  0.73944531  1.00547381  0.13408754  1
  O  O202  1  0.75822148  1.00193766  0.63627806  1
  O  O203  1  0.01217683  0.36544315  0.25068724  1
  O  O204  1  0.00700176  0.37398245  0.75669919  1
  O  O205  1  0.00424815  0.86628535  0.25789601  1
  O  O206  1  0.00707708  0.87036759  0.75453804  1
  O  O207  1  0.50628904  0.36872772  0.25542657  1
  O  O208  1  0.49645923  0.37238390  0.76334519  1
  O  O209  1  0.50152874  0.87204355  0.24548785  1
  O  O210  1  0.47323663  0.85291575  0.76251853  1
  O  O211  1  0.49311149  0.13406360  0.24777727  1
  O  O212  1  0.48997227  0.13141346  0.74741933  1
  O  O213  1  0.48624703  0.63257773  0.25403361  1
  O  O214  1  0.47764445  0.62671016  0.75913545  1
  O  O215  1  0.99118242  0.12904778  0.24061962  1
  O  O216  1  0.99561832  0.12163174  0.74050023  1
  O  O217  1  1.00100563  0.64038223  0.25436792  1
  O  O218  1  0.98875972  0.63196797  0.74780743  1
  O  O219  1  0.38570212  0.25692926  0.01077510  1
  O  O220  1  0.37010707  0.24993718  0.50647357  1
  O  O221  1  0.36513550  0.75459705  0.00800028  1
  O  O222  1  0.36948176  0.75510116  0.50637420  1
  O  O223  1  0.87394229  0.25675641  0.00502317  1
  O  O224  1  0.87208659  0.25359394  0.50040996  1
  O  O225  1  0.86261386  0.75575680  0.00466723  1
  O  O226  1  0.87407137  0.75915663  0.50508885  1
  O  O227  1  0.13255527  0.24301917  0.49248568  1
  O  O228  1  0.12151020  0.24200091  0.99364038  1
  O  O229  1  0.13307147  0.74370097  0.49816568  1
  O  O230  1  0.12827258  0.74833770  0.99667586  1
  O  O231  1  0.63425759  0.24529383  0.49077400  1
  O  O232  1  0.62485360  0.24235146  0.99385856  1
  O  O233  1  0.63746066  0.76015496  0.48495235  1
  O  O234  1  0.62753496  0.74450178  1.00081730  1
  O  O235  1  0.49368154  0.25173007  0.13769529  1
  O  O236  1  0.48860726  0.25781827  0.62240155  1
  O  O237  1  0.48528461  0.75136497  0.12039820  1
  O  O238  1  0.47732183  0.74244527  0.64259720  1
  O  O239  1  0.99348012  0.24328367  0.13174426  1
  O  O240  1  0.99785175  0.23657964  0.62400529  1
  O  O241  1  0.98339919  0.74453224  0.12280429  1
  O  O242  1  0.99295282  0.74391244  0.63075469  1
  O  O243  1  0.01355993  0.25010850  0.36928728  1
  O  O244  1  0.00819270  0.25899136  0.87504702  1
  O  O245  1  0.01964503  0.74880412  0.38452879  1
  O  O246  1  0.00187398  0.75729325  0.86919057  1
  O  O247  1  0.50853597  0.25709934  0.36256317  1
  O  O248  1  0.51298842  0.26100503  0.87200447  1
  O  O249  1  0.51429112  0.75116864  0.37663318  1
  O  O250  1  0.49084564  0.74290215  0.86983301  1
  O  O251  1  0.24452006  0.13385092  0.50429953  1
  O  O252  1  0.23812605  0.12454199  1.00492045  1
  O  O253  1  0.24674118  0.63037538  0.49415744  1
  O  O254  1  0.24609033  0.62851528  0.99433254  1
  O  O255  1  0.74654712  0.13769735  0.50080204  1
  O  O256  1  0.73627888  0.12573532  1.00095904  1
  O  O257  1  0.75736671  0.64471901  0.48679708  1
  O  O258  1  0.73656239  0.63283265  0.99340975  1
  O  O259  1  0.26842957  0.38083028  -0.00317211  1
  O  O260  1  0.25571281  0.36039611  0.50171165  1
  O  O261  1  0.25276835  0.87121703  0.01251338  1
  O  O262  1  0.25836274  0.86970359  0.50966084  1
  O  O263  1  0.75466831  0.37635753  0.01065200  1
  O  O264  1  0.76339666  0.36445812  0.50476088  1
  O  O265  1  0.74672223  0.86525694  -0.00726965  1
  O  O266  1  0.76157760  0.86644066  0.49784945  1
  O  O267  1  0.12249978  0.49098093  0.24458861  1
  O  O268  1  0.13038277  0.49361383  0.74487155  1
  O  O269  1  0.13473767  1.00863912  0.23915559  1
  O  O270  1  0.12430246  0.98763167  0.74652259  1
  O  O271  1  0.62726889  0.49681952  0.24138545  1
  O  O272  1  0.63742535  0.53900370  0.73238671  1
  O  O273  1  0.63209685  1.00462889  0.24066704  1
  O  O274  1  0.64699874  1.00814413  0.75257794  1
  O  O275  1  0.36976536  0.00666080  0.25208469  1
  O  O276  1  0.38237049  0.01370702  0.74431437  1
  O  O277  1  0.37628774  0.51440479  0.24188316  1
  O  O278  1  0.35746418  0.50227537  0.74750326  1
  O  O279  1  0.86847423  0.00548123  0.25514644  1
  O  O280  1  0.87010821  0.00540308  0.75551610  1
  O  O281  1  0.87543974  0.49177795  0.26354627  1
  O  O282  1  0.88125468  0.51037214  0.76399435  1
  O  O283  1  0.12347204  0.36607097  0.36835603  1
  O  O284  1  0.12047349  0.36699501  0.87248091  1
  O  O285  1  0.13501497  0.86168563  0.38345540  1
  O  O286  1  0.11657947  0.87183561  0.86929758  1
  O  O287  1  0.62117416  0.36912756  0.37168282  1
  O  O288  1  0.61425790  0.36384683  0.88122119  1
  O  O289  1  0.63067960  0.86536637  0.37113678  1
  O  O290  1  0.62853785  0.86942304  0.85926526  1
  O  O291  1  0.37817803  0.13242305  0.13435675  1
  O  O292  1  0.37326619  0.13884601  0.63124323  1
  O  O293  1  0.36670312  0.63485936  0.13834435  1
  O  O294  1  0.36740683  0.62937342  0.63583437  1
  O  O295  1  0.88092397  0.12934260  0.13014990  1
  O  O296  1  0.88580127  0.12886202  0.63003552  1
  O  O297  1  0.87312052  0.64184765  0.11765085  1
  O  O298  1  0.87719752  0.63312389  0.63413325  1
  O  O299  1  0.26375716  0.25350022  0.12965734  1
  O  O300  1  0.25746598  0.25369191  0.61584273  1
  O  O301  1  0.25183965  0.75663328  0.12163012  1
  O  O302  1  0.25638776  0.75796630  0.62215063  1
  O  O303  1  0.75629838  0.25851434  0.12267959  1
  O  O304  1  0.76147473  0.25637209  0.61568109  1
  O  O305  1  0.75732994  0.74842004  0.11445022  1
  O  O306  1  0.76100522  0.74990197  0.61505489  1
  O  O307  1  0.23955486  0.25004708  0.38154197  1
  O  O308  1  0.23810743  0.24501661  0.87296581  1
  O  O309  1  0.24268136  0.74086820  0.38197932  1
  O  O310  1  0.23959644  0.74264978  0.88318598  1
  O  O311  1  0.74238494  0.25735843  0.38224833  1
  O  O312  1  0.73642408  0.25856917  0.87994065  1
  O  O313  1  0.74646021  0.74751848  0.37790359  1
  O  O314  1  0.75054420  0.73932591  0.88469570  1
  O  O315  1  0.00716508  0.12796048  0.01517085  1
  O  O316  1  0.00937634  0.11650663  0.50616057  1
  O  O317  1  -0.00054117  0.61221809  -0.00345643  1
  O  O318  1  0.00472154  0.61845438  0.50704818  1
  O  O319  1  0.50791275  0.11521029  0.00070170  1
  O  O320  1  0.51228635  0.12012559  0.49136081  1
  O  O321  1  0.50891618  0.61547102  -0.00542589  1
  O  O322  1  0.49686497  0.61801565  0.49647314  1
  O  O323  1  0.49204470  0.37022394  0.48856031  1
  O  O324  1  0.49318246  0.38116999  0.99292856  1
  O  O325  1  0.48757792  0.88440391  0.49724593  1
  O  O326  1  0.49042147  0.88997007  0.99916231  1
  O  O327  1  0.98948508  0.37942444  0.50059727  1
  O  O328  1  0.99317112  0.38571981  0.99615903  1
  O  O329  1  0.99834168  0.88873609  0.50503183  1
  O  O330  1  0.99853530  0.87265544  0.98797889  1
  O  O331  1  0.50854507  0.48789829  0.36907858  1
  O  O332  1  0.50618080  0.48468925  0.88318200  1
  O  O333  1  0.48657583  1.00307869  0.37890357  1
  O  O334  1  0.50555831  1.00565197  0.88615825  1
  O  O335  1  0.99349989  0.49892772  0.38413337  1
  O  O336  1  0.99377330  0.49360628  0.88194006  1
  O  O337  1  0.98797770  1.00620437  0.38441756  1
  O  O338  1  0.98649728  0.99060552  0.86841600  1
  O  O339  1  0.00637912  0.00702592  0.13257474  1
  O  O340  1  0.00332696  0.00976256  0.61631154  1
  O  O341  1  0.00358722  0.50315691  0.11801937  1
  O  O342  1  0.00261081  0.50593934  0.62106495  1
  O  O343  1  0.51001505  0.00402585  0.11411270  1
  O  O344  1  0.48341927  0.00936447  0.60287896  1
  O  O345  1  0.51398481  0.49340310  0.11572018  1
  O  O346  1  0.50170195  0.49959358  0.62884343  1
  O  O347  1  0.23872649  0.37676703  0.25048030  1
  O  O348  1  0.24442819  0.37962749  0.74769670  1
  O  O349  1  0.25505666  0.88373015  0.23806397  1
  O  O350  1  0.24369137  0.87642993  0.74334009  1
  O  O351  1  0.74476868  0.37826648  0.23774502  1
  O  O352  1  0.75723361  0.36456582  0.73757313  1
  O  O353  1  0.74614871  0.89062620  0.25245848  1
  O  O354  1  0.75497524  0.88892244  0.74396511  1
  O  O355  1  0.25945695  0.11425727  0.24389464  1
  O  O356  1  0.26764766  0.12065379  0.74967750  1
  O  O357  1  0.25711761  0.61965159  0.25797602  1
  O  O358  1  0.25130426  0.61624761  0.75700584  1
  O  O359  1  0.76283907  0.12008855  0.24493596  1
  O  O360  1  0.76793749  0.11877978  0.74528113  1
  O  O361  1  0.74777314  0.62540461  0.26164097  1
  O  O362  1  0.76314721  0.63742610  0.76091032  1
  O  O363  1  0.37709925  0.11919370  0.36135420  1
  O  O364  1  0.37737913  0.13568432  0.85807161  1
  O  O365  1  0.36446051  0.63352531  0.35783982  1
  O  O366  1  0.35514608  0.62487956  0.87006541  1
  O  O367  1  0.87969011  0.11832959  0.36382622  1
  O  O368  1  0.88524996  0.11338520  0.86732710  1
  O  O369  1  0.86784386  0.61617623  0.37892457  1
  O  O370  1  0.86805464  0.61908740  0.87061151  1
  O  O371  1  0.12516700  0.38290844  0.13201107  1
  O  O372  1  0.13015965  0.37682968  0.62975085  1
  O  O373  1  0.13190192  0.88325243  0.12142990  1
  O  O374  1  0.13537197  0.87476293  0.63301744  1
  O  O375  1  0.63216261  0.38080159  0.12872031  1
  O  O376  1  0.64494672  0.37275437  0.62196995  1
  O  O377  1  0.62512090  0.88873467  0.12314713  1
  O  O378  1  0.58674033  0.87311354  0.64376825  1
  O  O379  1  0.12416047  0.25328245  0.25606514  1
  O  O380  1  0.12479015  0.25369140  0.75733096  1
  O  O381  1  0.13257588  0.75023292  0.26714469  1
  O  O382  1  0.11992415  0.76088048  0.75566055  1
  O  O383  1  0.62016833  0.25534053  0.25349899  1
  O  O384  1  0.62761553  0.24537556  0.76258477  1
  O  O385  1  0.62398524  0.75247403  0.26274730  1
  O  O386  1  0.59795036  0.73984954  0.75647064  1
  O  O387  1  0.38132127  0.24451424  0.24607922  1
  O  O388  1  0.37684028  0.24937605  0.73290956  1
  O  O389  1  0.37305186  0.74219910  0.24062241  1
  O  O390  1  0.36889419  0.73661191  0.74645362  1
  O  O391  1  0.87941418  0.24328991  0.24646052  1
  O  O392  1  0.88258210  0.23932989  0.74596572  1
  O  O393  1  0.86630590  0.75445381  0.23662152  1
  O  O394  1  0.87747542  0.74802302  0.74315925  1
  O  O395  1  0.36375094  0.48188631  0.50270347  1
  O  O396  1  0.38913261  0.49446914  1.00778926  1
  O  O397  1  0.37622919  0.99424162  0.48690981  1
  O  O398  1  0.38820682  0.99635123  1.00388281  1
  O  O399  1  0.87513716  0.49120870  0.49129504  1
  O  O400  1  0.87942394  0.49741748  0.99118108  1
  O  O401  1  0.88194597  0.99650883  0.49408327  1
  O  O402  1  0.87020632  1.00153237  0.98677556  1
  O  O403  1  0.12408007  0.00882972  0.01640014  1
  O  O404  1  0.12165063  0.00643318  0.49899331  1
  O  O405  1  0.11483135  0.49933954  0.00954101  1
  O  O406  1  0.11921726  0.50366687  0.50642801  1
  O  O407  1  0.61856507  0.00596024  0.00163521  1
  O  O408  1  0.61722753  0.01197153  0.49205285  1
  O  O409  1  0.61724653  0.50767201  0.00602261  1
  O  O410  1  0.66558778  0.51370738  0.52292396  1
  O  O411  1  0.37499197  0.36653438  0.11708326  1
  O  O412  1  0.36765998  0.36272463  0.61652752  1
  O  O413  1  0.36508419  0.86773108  0.11569509  1
  O  O414  1  0.37086187  0.86577631  0.61744349  1
  O  O415  1  0.86812027  0.37113676  0.12104080  1
  O  O416  1  0.87579130  0.36424421  0.61710867  1
  O  O417  1  0.87507573  0.86178262  0.12030507  1
  O  O418  1  0.88393334  0.86699638  0.61237173  1
  O  O419  1  0.12065912  0.12996399  0.38565096  1
  O  O420  1  0.11931427  0.13296260  0.88781388  1
  O  O421  1  0.13440076  0.62958286  0.38514593  1
  O  O422  1  0.13107242  0.63190641  0.87564203  1
  O  O423  1  0.62440866  0.13889372  0.37533010  1
  O  O424  1  0.62068717  0.14238764  0.88216803  1
  O  O425  1  0.63502585  0.63701272  0.37864603  1
  O  O426  1  0.63067891  0.62828316  0.88439956  1
