# generated using pymatgen
data_V85Zn86O256
_symmetry_space_group_name_H-M   'P 1'
_cell_length_a   16.96509898
_cell_length_b   16.94985533
_cell_length_c   16.97100649
_cell_angle_alpha   89.91762561
_cell_angle_beta   90.01597400
_cell_angle_gamma   89.93050238
_symmetry_Int_Tables_number   1
_chemical_formula_structural   V85Zn86O256
_chemical_formula_sum   'V85 Zn86 O256'
_cell_volume   4880.10546428
_cell_formula_units_Z   1
loop_
 _symmetry_equiv_pos_site_id
 _symmetry_equiv_pos_as_xyz
  1  'x, y, z'
loop_
 _atom_site_type_symbol
 _atom_site_label
 _atom_site_symmetry_multiplicity
 _atom_site_fract_x
 _atom_site_fract_y
 _atom_site_fract_z
 _atom_site_occupancy
  V  V0  1  0.12997748  0.37557913  0.74984102  1
  V  V1  1  0.49289200  0.50561588  0.51147644  1
  V  V2  1  0.74961617  0.00176356  0.74725739  1
  V  V3  1  0.37257009  0.12487746  0.24770033  1
  V  V4  1  0.87441377  0.63096747  0.24545708  1
  V  V5  1  0.75279662  0.50121707  0.25254191  1
  V  V6  1  -0.04616927  0.56654286  0.56579202  1
  V  V7  1  0.25217261  0.12236278  0.88557368  1
  V  V8  1  0.88383062  0.62081840  0.75067838  1
  V  V9  1  0.62551329  0.87401831  0.74929802  1
  V  V10  1  0.12387596  0.64182566  -0.00518414  1
  V  V11  1  0.75308644  0.12912635  0.37762810  1
  V  V12  1  0.25825280  0.75954189  0.01198106  1
  V  V13  1  0.62491416  0.12725789  -0.00560408  1
  V  V14  1  0.75575380  0.24873679  -0.00261517  1
  V  V15  1  0.00564541  0.75428616  0.76127975  1
  V  V16  1  0.12330151  0.37756333  0.25026251  1
  V  V17  1  0.38093557  -0.00159801  0.87718297  1
  V  V18  1  0.00893890  0.00277649  0.50593659  1
  V  V19  1  0.49919257  0.74229261  0.74377565  1
  V  V20  1  0.62024231  0.74828564  0.37540577  1
  V  V21  1  0.75334714  0.26686375  0.50568164  1
  V  V22  1  0.87700206  0.49527861  0.87798319  1
  V  V23  1  0.00523295  0.37200084  0.87811350  1
  V  V24  1  0.24076198  0.00305657  0.74510698  1
  V  V25  1  0.37014305  0.36784302  0.49563657  1
  V  V26  1  0.87332554  0.26041896  0.62426269  1
  V  V27  1  0.12565447  0.75164653  0.36931543  1
  V  V28  1  0.87561578  -0.00539679  0.87463352  1
  V  V29  1  0.37869597  0.12536396  0.74954591  1
  V  V30  1  0.62347496  0.87814736  0.25709951  1
  V  V31  1  0.25000052  0.75199831  0.49923533  1
  V  V32  1  0.88652143  0.74971412  0.62010337  1
  V  V33  1  0.37214747  0.49006212  0.88207959  1
  V  V34  1  0.50432762  0.87779235  0.88149881  1
  V  V35  1  0.24949713  0.13531143  0.37531739  1
  V  V36  1  0.87934314  0.86782107  0.00054291  1
  V  V37  1  0.25419609  0.37577783  0.12081730  1
  V  V38  1  0.75603753  0.86878004  0.12674869  1
  V  V39  1  0.49663702  0.75465301  0.24372402  1
  V  V40  1  0.37037190  0.24665485  0.62024720  1
  V  V41  1  0.12527171  0.00102558  0.11525512  1
  V  V42  1  -0.00410768  0.38176213  0.38970434  1
  V  V43  1  0.62262221  0.62306073  -0.00011397  1
  V  V44  1  -0.00255718  0.00565001  -0.00041615  1
  V  V45  1  0.87699019  0.00475319  0.37528944  1
  V  V46  1  0.55628004  0.30802220  0.81855016  1
  V  V47  1  0.50181171  0.12196442  0.12181516  1
  V  V48  1  0.12814911  0.24065236  0.88064508  1
  V  V49  1  0.00705726  0.87899399  0.36900848  1
  V  V50  1  0.49708999  0.37714890  0.37306895  1
  V  V51  1  0.87838728  0.12448412  0.74814327  1
  V  V52  1  0.25273491  0.50052298  0.75064682  1
  V  V53  1  0.87524290  0.13239138  0.24281561  1
  V  V54  1  0.12402888  0.50563118  0.12316582  1
  V  V55  1  0.37247647  0.63063221  0.24022024  1
  V  V56  1  0.24479802  0.87848397  0.62398812  1
  V  V57  1  0.75892556  0.36931824  0.12596182  1
  V  V58  1  -0.00309044  0.25531113  0.24413704  1
  V  V59  1  0.37302911  0.50480187  0.37142804  1
  V  V60  1  0.23693233  -0.00916872  0.25153274  1
  V  V61  1  0.62650285  -0.00106069  0.12018057  1
  V  V62  1  0.62707079  0.12505562  0.49956555  1
  V  V63  1  0.87730351  0.87644578  0.49764109  1
  V  V64  1  0.13138052  0.13291419  0.50709987  1
  V  V65  1  0.12937751  0.61450027  0.50801735  1
  V  V66  1  0.74278802  0.48752175  0.74806084  1
  V  V67  1  0.62662107  0.25149197  0.37486895  1
  V  V68  1  0.24959830  0.37683074  0.62279892  1
  V  V69  1  0.61852390  0.62686297  0.51072560  1
  V  V70  1  -0.00130999  0.75497562  0.24205168  1
  V  V71  1  0.62572361  0.37675120  0.24889442  1
  V  V72  1  0.50116889  -0.00580254  0.49551010  1
  V  V73  1  0.25593100  0.25122013  -0.00114690  1
  V  V74  1  0.00304313  0.24421607  0.75151733  1
  V  V75  1  0.75270105  0.87206222  0.62456827  1
  V  V76  1  0.25095927  0.63916549  0.87122769  1
  V  V77  1  0.00388144  0.50141337  -0.00148900  1
  V  V78  1  0.62440695  0.50003478  0.12384205  1
  V  V79  1  0.37724240  -0.00600971  0.37353792  1
  V  V80  1  0.75238300  0.62228874  0.87505590  1
  V  V81  1  0.50126370  0.12635909  0.62556193  1
  V  V82  1  0.62726936  0.74851614  0.87440768  1
  V  V83  1  0.50030478  0.25042395  0.24855577  1
  V  V84  1  0.49614425  0.48682210  -0.00145554  1
  Zn  Zn85  1  0.00119793  0.13326114  0.11947773  1
  Zn  Zn86  1  0.75593860  0.74475432  0.00622128  1
  Zn  Zn87  1  0.00753433  0.12107734  0.63012141  1
  Zn  Zn88  1  0.49237132  0.63080061  0.11734697  1
  Zn  Zn89  1  0.37752579  0.87331100  0.50067520  1
  Zn  Zn90  1  0.74412047  0.13100974  0.86913130  1
  Zn  Zn91  1  0.12588319  0.86672444  0.75466963  1
  Zn  Zn92  1  0.62750594  0.48457454  0.62546905  1
  Zn  Zn93  1  0.37745151  0.25401505  0.12015144  1
  Zn  Zn94  1  0.88433472  0.36674231  0.00693479  1
  Zn  Zn95  1  0.62453192  -0.00012730  0.62324149  1
  Zn  Zn96  1  0.74886730  0.62563116  0.37506097  1
  Zn  Zn97  1  0.24762649  0.62673720  0.37137608  1
  Zn  Zn98  1  0.74989925  0.74896975  0.49803758  1
  Zn  Zn99  1  0.38487133  0.61460829  0.74377126  1
  Zn  Zn100  1  0.75159555  0.00176012  0.25103611  1
  Zn  Zn101  1  0.24889182  0.50469313  0.24726040  1
  Zn  Zn102  1  0.87706615  0.50149565  0.38506288  1
  Zn  Zn103  1  0.12584378  0.25483899  0.37676751  1
  Zn  Zn104  1  0.37588363  0.74556216  0.62240669  1
  Zn  Zn105  1  -0.00432725  0.63335506  0.12132874  1
  Zn  Zn106  1  0.38701065  -0.13092063  0.01144994  1
  Zn  Zn107  1  0.18415802  0.18611653  0.18501734  1
  Zn  Zn108  1  0.19312325  0.18856222  0.69134813  1
  Zn  Zn109  1  0.18629942  0.69174884  0.18586509  1
  Zn  Zn110  1  0.18850164  0.68650460  0.68342131  1
  Zn  Zn111  1  0.68988172  0.18877482  0.18573019  1
  Zn  Zn112  1  0.68404591  0.19513623  0.68870746  1
  Zn  Zn113  1  0.68529931  0.68821614  0.18798481  1
  Zn  Zn114  1  0.69273234  0.68531778  0.68827769  1
  Zn  Zn115  1  0.31083636  0.31352242  0.30615823  1
  Zn  Zn116  1  0.33156560  0.31414142  0.80737253  1
  Zn  Zn117  1  0.31365054  0.81313984  0.31168717  1
  Zn  Zn118  1  0.31687099  0.81737787  0.81108922  1
  Zn  Zn119  1  0.81694301  0.31591998  0.31728473  1
  Zn  Zn120  1  0.81465614  0.30999002  0.81807214  1
  Zn  Zn121  1  0.81103360  0.81297427  0.31341709  1
  Zn  Zn122  1  0.81677385  0.80975611  0.81160705  1
  Zn  Zn123  1  0.18967583  0.43750981  0.43524842  1
  Zn  Zn124  1  0.18953023  0.43882067  0.93730780  1
  Zn  Zn125  1  0.18813427  0.94155700  0.43648498  1
  Zn  Zn126  1  0.18497569  0.93619188  0.93219684  1
  Zn  Zn127  1  0.68225684  0.44307849  0.43653528  1
  Zn  Zn128  1  0.68427053  0.43061992  0.93488927  1
  Zn  Zn129  1  0.69006527  0.93789319  0.43698207  1
  Zn  Zn130  1  0.69227048  0.93808270  0.93839033  1
  Zn  Zn131  1  0.33196388  0.02452192  0.08190226  1
  Zn  Zn132  1  0.31152273  0.06053366  0.55945264  1
  Zn  Zn133  1  0.30787471  0.56719284  0.05856986  1
  Zn  Zn134  1  0.31407229  0.56374458  0.56546738  1
  Zn  Zn135  1  0.81057499  0.05974666  0.06335489  1
  Zn  Zn136  1  0.81513649  0.06724021  0.56335905  1
  Zn  Zn137  1  0.81427752  0.55943972  0.06481289  1
  Zn  Zn138  1  0.79071287  0.56260925  0.56575868  1
  Zn  Zn139  1  0.43741785  0.44254948  0.18456638  1
  Zn  Zn140  1  0.47376393  0.40593932  0.67587730  1
  Zn  Zn141  1  0.44156412  0.93656213  0.18905760  1
  Zn  Zn142  1  0.43363993  0.93472774  0.68589924  1
  Zn  Zn143  1  0.93861600  0.44260079  0.18883580  1
  Zn  Zn144  1  0.93851600  0.43251533  0.69519605  1
  Zn  Zn145  1  0.93932569  0.94148054  0.18596125  1
  Zn  Zn146  1  0.93943742  0.93590214  0.68681739  1
  Zn  Zn147  1  0.06216283  0.07027138  0.31521233  1
  Zn  Zn148  1  0.07543252  0.03734200  0.82367697  1
  Zn  Zn149  1  0.06105992  0.56552622  0.31440767  1
  Zn  Zn150  1  0.06788505  0.56381323  0.81245237  1
  Zn  Zn151  1  0.56285772  0.06252078  0.31138861  1
  Zn  Zn152  1  0.56326086  0.06437989  0.80932201  1
  Zn  Zn153  1  0.55843397  0.56770548  0.31328951  1
  Zn  Zn154  1  0.56135743  0.55494158  0.81826621  1
  Zn  Zn155  1  0.43829375  0.18455491  0.43634009  1
  Zn  Zn156  1  0.43716634  0.18563869  0.94031992  1
  Zn  Zn157  1  0.43766569  0.68875245  0.43106887  1
  Zn  Zn158  1  0.43606156  0.68640642  0.93127100  1
  Zn  Zn159  1  0.94171480  0.19422223  0.43821849  1
  Zn  Zn160  1  0.93305451  0.18327676  0.93381547  1
  Zn  Zn161  1  0.93614804  0.69048761  0.42625086  1
  Zn  Zn162  1  0.93776253  0.68753970  0.93665919  1
  Zn  Zn163  1  0.07056488  0.31113138  0.06267631  1
  Zn  Zn164  1  0.06432142  0.30913819  0.56735157  1
  Zn  Zn165  1  0.06618600  0.82500280  0.06432049  1
  Zn  Zn166  1  0.06724893  0.81187943  0.56123166  1
  Zn  Zn167  1  0.56716817  0.30841754  0.06061150  1
  Zn  Zn168  1  0.56131208  0.30969269  0.55977126  1
  Zn  Zn169  1  0.56983346  0.81107201  0.06377368  1
  Zn  Zn170  1  0.56372872  0.81442647  0.56371014  1
  O  O171  1  0.11533012  0.10856828  0.13826666  1
  O  O172  1  0.12822063  0.13424088  0.61058058  1
  O  O173  1  0.12389795  0.62002722  0.11450028  1
  O  O174  1  0.12522188  0.62765626  0.60711756  1
  O  O175  1  0.62186674  0.11810043  0.12048947  1
  O  O176  1  0.61675202  0.12446723  0.61820130  1
  O  O177  1  0.62844188  0.61911141  0.11150339  1
  O  O178  1  0.62941416  0.62315764  0.61279008  1
  O  O179  1  0.37606147  0.38072767  0.37762695  1
  O  O180  1  0.35768563  0.39179451  0.88660149  1
  O  O181  1  0.37162019  0.89085325  0.37737565  1
  O  O182  1  0.38771665  0.88239138  0.87654945  1
  O  O183  1  0.89022380  0.38143305  0.37722834  1
  O  O184  1  0.88735676  0.37838499  0.87983272  1
  O  O185  1  0.88073063  0.88540160  0.38031321  1
  O  O186  1  0.86762029  0.88355790  0.88456221  1
  O  O187  1  0.25615466  0.01077201  0.36586173  1
  O  O188  1  0.26090978  0.00771867  0.86463069  1
  O  O189  1  0.26256173  0.50142833  0.37006172  1
  O  O190  1  0.25678468  0.51075265  0.87489407  1
  O  O191  1  0.76060229  0.00909454  0.37485920  1
  O  O192  1  0.75776033  0.00092848  0.86182894  1
  O  O193  1  0.75309094  0.50057213  0.36595053  1
  O  O194  1  0.75506686  0.50720039  0.87059463  1
  O  O195  1  0.23863983  0.49524411  0.12170331  1
  O  O196  1  0.25738228  0.48536450  0.63669772  1
  O  O197  1  0.23376441  1.01227864  0.14229139  1
  O  O198  1  0.26220286  0.98926078  0.63266730  1
  O  O199  1  0.74286125  0.49273938  0.13189570  1
  O  O200  1  0.74602721  0.49449598  0.64182092  1
  O  O201  1  0.74204183  0.99249222  0.13053316  1
  O  O202  1  0.75407165  0.99358625  0.63467012  1
  O  O203  1  0.00906449  0.37337830  0.25149924  1
  O  O204  1  0.01196452  0.36641824  0.75802701  1
  O  O205  1  -0.00794777  0.87139212  0.26235616  1
  O  O206  1  -0.00167928  0.85721884  0.74438324  1
  O  O207  1  0.50439316  0.37124202  0.25305450  1
  O  O208  1  0.47225726  0.35295293  0.77441568  1
  O  O209  1  0.51067941  0.86869150  0.24786601  1
  O  O210  1  0.50926753  0.86685323  0.75600302  1
  O  O211  1  0.49432503  0.13101076  0.24294370  1
  O  O212  1  0.49229269  0.11865971  0.73715442  1
  O  O213  1  0.49144571  0.63456676  0.24527529  1
  O  O214  1  0.50401903  0.63892161  0.75835039  1
  O  O215  1  0.99060966  0.13871507  0.25546751  1
  O  O216  1  0.99344962  0.12711373  0.75140297  1
  O  O217  1  0.99253824  0.63606032  0.24823145  1
  O  O218  1  0.98992499  0.63033387  0.75431688  1
  O  O219  1  0.36102858  0.24647146  0.00273599  1
  O  O220  1  0.37610647  0.25923136  0.50167635  1
  O  O221  1  0.36345415  0.75197055  -0.00149997  1
  O  O222  1  0.36134574  0.75129522  0.49285981  1
  O  O223  1  0.86183862  0.24880187  0.00068739  1
  O  O224  1  0.86557082  0.24445862  0.51115190  1
  O  O225  1  0.87490004  0.76260286  -0.00322926  1
  O  O226  1  0.87570909  0.75491147  0.50371878  1
  O  O227  1  0.12180518  0.23669291  0.49506009  1
  O  O228  1  0.13547437  0.24829737  0.98809616  1
  O  O229  1  0.13397435  0.74453035  0.49052805  1
  O  O230  1  0.12899981  0.74560723  1.00333016  1
  O  O231  1  0.63109848  0.24498671  0.49396164  1
  O  O232  1  0.63996870  0.23762054  1.00837760  1
  O  O233  1  0.62106576  0.74428664  0.49281268  1
  O  O234  1  0.63136929  0.73994470  0.99237437  1
  O  O235  1  0.49876641  0.24291368  0.13180246  1
  O  O236  1  0.48552620  0.23302926  0.61252688  1
  O  O237  1  0.50788186  0.74817469  0.13794330  1
  O  O238  1  0.50225560  0.75419966  0.64099708  1
  O  O239  1  1.00493989  0.25191690  0.13799167  1
  O  O240  1  0.99354749  0.24480891  0.63461848  1
  O  O241  1  1.00760583  0.75534531  0.13911256  1
  O  O242  1  0.98985463  0.75147531  0.62751599  1
  O  O243  1  0.00133789  0.26599502  0.36489063  1
  O  O244  1  0.00962060  0.25047004  0.87230140  1
  O  O245  1  0.00692353  0.76112878  0.36769567  1
  O  O246  1  -0.00434114  0.75003723  0.85977587  1
  O  O247  1  0.50536509  0.25561207  0.36862576  1
  O  O248  1  0.51426595  0.24752097  0.88856717  1
  O  O249  1  0.51229933  0.74901031  0.36265047  1
  O  O250  1  0.50924574  0.75710710  0.86688345  1
  O  O251  1  0.23862391  0.12017485  0.49157088  1
  O  O252  1  0.25553651  0.12915350  0.98674971  1
  O  O253  1  0.24113337  0.63216774  0.49577480  1
  O  O254  1  0.24347402  0.64051010  0.99261110  1
  O  O255  1  0.74305626  0.12967338  0.49444723  1
  O  O256  1  0.74568468  0.13441466  1.00094609  1
  O  O257  1  0.73525391  0.62849084  0.49453721  1
  O  O258  1  0.74655359  0.62299775  0.99157149  1
  O  O259  1  0.24104950  0.36508564  0.01030603  1
  O  O260  1  0.26022569  0.38052925  0.50803547  1
  O  O261  1  0.24741030  0.85968109  -0.01126034  1
  O  O262  1  0.25006498  0.87017215  0.50537004  1
  O  O263  1  0.75017717  0.36431181  0.00705933  1
  O  O264  1  0.74248714  0.36596521  0.49889586  1
  O  O265  1  0.75863954  0.87290481  0.00934102  1
  O  O266  1  0.75817764  0.87417942  0.50756752  1
  O  O267  1  0.12525894  0.49741130  0.24049831  1
  O  O268  1  0.13775839  0.48471225  0.75968766  1
  O  O269  1  0.13528769  1.00132361  0.25806945  1
  O  O270  1  0.14415128  1.02323400  0.72930634  1
  O  O271  1  0.63371690  0.49808727  0.24629313  1
  O  O272  1  0.64052348  0.50813145  0.75083602  1
  O  O273  1  0.62894510  0.99301363  0.24599934  1
  O  O274  1  0.63518460  0.99455841  0.74594639  1
  O  O275  1  0.36965799  0.01211055  0.25724622  1
  O  O276  1  0.37068662  0.00896042  0.75495287  1
  O  O277  1  0.37398157  0.51004375  0.25543151  1
  O  O278  1  0.36130125  0.49844912  0.76596661  1
  O  O279  1  0.87724322  0.00958548  0.26338276  1
  O  O280  1  0.87063574  0.00370691  0.75442437  1
  O  O281  1  0.86301871  0.50622102  0.25013257  1
  O  O282  1  0.86969982  0.50458491  0.75725316  1
  O  O283  1  0.11855582  0.37653987  0.36647281  1
  O  O284  1  0.12349116  0.36489360  0.86987375  1
  O  O285  1  0.11517754  0.86833763  0.38077239  1
  O  O286  1  0.11432393  0.92756877  0.84845172  1
  O  O287  1  0.61744824  0.37169384  0.36811708  1
  O  O288  1  0.61237279  0.37928500  0.86639491  1
  O  O289  1  0.63040552  0.87070970  0.36287529  1
  O  O290  1  0.62377091  0.87037189  0.86905369  1
  O  O291  1  0.38517143  0.11998652  0.13243321  1
  O  O292  1  0.37843911  0.12880936  0.62741569  1
  O  O293  1  0.37381356  0.62157128  0.13626118  1
  O  O294  1  0.36530701  0.63321331  0.63438614  1
  O  O295  1  0.87581380  0.11890252  0.14094658  1
  O  O296  1  0.87789187  0.12984187  0.63802689  1
  O  O297  1  0.87731771  0.62176533  0.13878152  1
  O  O298  1  0.88286214  0.62503126  0.62614673  1
  O  O299  1  0.24795575  0.25670799  0.11671105  1
  O  O300  1  0.26243065  0.26019111  0.62666306  1
  O  O301  1  0.24828630  0.75371045  0.11056557  1
  O  O302  1  0.24888928  0.75813952  0.61432055  1
  O  O303  1  0.74922775  0.25979245  0.11644903  1
  O  O304  1  0.75859425  0.24615654  0.61648291  1
  O  O305  1  0.74457269  0.76444612  0.12460505  1
  O  O306  1  0.76511483  0.75390782  0.62414281  1
  O  O307  1  0.25032639  0.23899483  0.37064056  1
  O  O308  1  0.24765515  0.24388049  0.87947009  1
  O  O309  1  0.24098905  0.75202105  0.37940645  1
  O  O310  1  0.25460838  0.74190880  0.87553152  1
  O  O311  1  0.74710920  0.24752797  0.38377064  1
  O  O312  1  0.74983755  0.24899518  0.89141933  1
  O  O313  1  0.73568907  0.74984942  0.37638704  1
  O  O314  1  0.74696585  0.73491363  0.87213186  1
  O  O315  1  -0.01076130  0.11205199  0.00330960  1
  O  O316  1  0.01310548  0.11988286  0.49951790  1
  O  O317  1  0.00813231  0.62243547  0.00060910  1
  O  O318  1  0.00842235  0.62612638  0.49961265  1
  O  O319  1  0.50896047  0.12874962  0.01477797  1
  O  O320  1  0.50822468  0.11657409  0.50329205  1
  O  O321  1  0.50913911  0.62116666  -0.00151018  1
  O  O322  1  0.50559496  0.61659402  0.49220660  1
  O  O323  1  0.48706155  0.38358272  0.48984221  1
  O  O324  1  0.50161499  0.38764516  1.01035171  1
  O  O325  1  0.49997051  0.88992150  0.50398393  1
  O  O326  1  0.50534971  0.86806941  0.98621184  1
  O  O327  1  1.00856236  0.37240069  0.48772534  1
  O  O328  1  1.00421390  0.38062713  0.99536773  1
  O  O329  1  0.99726886  0.88340974  0.49149223  1
  O  O330  1  0.98933462  0.88959534  1.00507723  1
  O  O331  1  0.48801251  0.49582538  0.37792820  1
  O  O332  1  0.48170648  0.50318817  0.88275919  1
  O  O333  1  0.49001384  1.00884429  0.38273104  1
  O  O334  1  0.49515368  0.98797257  0.86426440  1
  O  O335  1  0.99856779  0.48626866  0.37127497  1
  O  O336  1  0.99892179  0.49374067  0.87997480  1
  O  O337  1  0.99568407  0.99617307  0.38199102  1
  O  O338  1  0.98065226  1.00901550  0.88333317  1
  O  O339  1  0.00655273  0.00621385  0.11786687  1
  O  O340  1  -0.00564487  0.00201926  0.60985503  1
  O  O341  1  0.01128286  0.50297376  0.11819469  1
  O  O342  1  0.00090149  0.50280387  0.62546792  1
  O  O343  1  0.51720527  0.01061201  0.13370315  1
  O  O344  1  0.49874844  0.00964313  0.61552214  1
  O  O345  1  0.50727584  0.50621887  0.11738004  1
  O  O346  1  0.48444718  0.50502306  0.61175258  1
  O  O347  1  0.23690438  0.37835805  0.24337771  1
  O  O348  1  0.24817098  0.37878944  0.74506756  1
  O  O349  1  0.25297219  0.89334395  0.25408083  1
  O  O350  1  0.24869918  0.88349396  0.74350377  1
  O  O351  1  0.74702885  0.38099002  0.24483956  1
  O  O352  1  0.75424143  0.38974745  0.76108154  1
  O  O353  1  0.74440420  0.87816059  0.24322238  1
  O  O354  1  0.74754410  0.87985979  0.74361850  1
  O  O355  1  0.25759272  0.12191409  0.25662238  1
  O  O356  1  0.26201572  0.12071510  0.75646009  1
  O  O357  1  0.25716019  0.62661883  0.25092311  1
  O  O358  1  0.24270827  0.61581345  0.75792087  1
  O  O359  1  0.75828843  0.12786276  0.25952432  1
  O  O360  1  0.75470945  0.11686639  0.74808986  1
  O  O361  1  0.75463273  0.61809969  0.25001921  1
  O  O362  1  0.76414096  0.61741822  0.75583764  1
  O  O363  1  0.36807360  0.12009936  0.36800128  1
  O  O364  1  0.37341887  0.12106928  0.86537680  1
  O  O365  1  0.37281471  0.61848022  0.36340259  1
  O  O366  1  0.36418211  0.61836258  0.86852859  1
  O  O367  1  0.87211205  0.12144892  0.37187570  1
  O  O368  1  0.86661965  0.11886765  0.86139487  1
  O  O369  1  0.87185045  0.62001709  0.36260556  1
  O  O370  1  0.87018858  0.61794435  0.86834834  1
  O  O371  1  0.13208949  0.38459116  0.13173176  1
  O  O372  1  0.13767817  0.36601216  0.63665821  1
  O  O373  1  0.12018602  0.90088215  0.13220430  1
  O  O374  1  0.13922418  0.87218132  0.62936603  1
  O  O375  1  0.63434332  0.38069131  0.13202783  1
  O  O376  1  0.58189152  0.38231813  0.63904402  1
  O  O377  1  0.63233663  0.88296126  0.13295774  1
  O  O378  1  0.63561308  0.87694691  0.63083448  1
  O  O379  1  0.11820420  0.26111610  0.25257949  1
  O  O380  1  0.12504244  0.25647745  0.76070116  1
  O  O381  1  0.11717334  0.74673328  0.26188838  1
  O  O382  1  0.10947117  0.74627369  0.74699107  1
  O  O383  1  0.62149480  0.25651987  0.25552090  1
  O  O384  1  0.61411299  0.24936637  0.75705159  1
  O  O385  1  0.61940096  0.75720248  0.25621411  1
  O  O386  1  0.62053664  0.75251778  0.75477605  1
  O  O387  1  0.37931480  0.23877060  0.24587082  1
  O  O388  1  0.37081286  0.23336492  0.73707402  1
  O  O389  1  0.38451929  0.74472195  0.25446851  1
  O  O390  1  0.39396128  0.75087402  0.75362295  1
  O  O391  1  0.88295222  0.24448484  0.25401035  1
  O  O392  1  0.87994130  0.24174962  0.74766324  1
  O  O393  1  0.88457536  0.74327226  0.25686182  1
  O  O394  1  0.88313724  0.73968931  0.74117036  1
  O  O395  1  0.37684594  0.49511174  0.48991560  1
  O  O396  1  0.38136258  0.50875010  0.99093085  1
  O  O397  1  0.38381958  1.00223335  0.48968549  1
  O  O398  1  0.37717823  1.00637583  0.97777042  1
  O  O399  1  0.88430549  0.51635010  0.50944122  1
  O  O400  1  0.88651850  0.49916549  0.99444395  1
  O  O401  1  0.88280701  1.00026077  0.48979750  1
  O  O402  1  0.87636250  0.99345832  0.99237383  1
  O  O403  1  0.11666761  0.00115590  0.00904548  1
  O  O404  1  0.11777271  0.01454149  0.49396653  1
  O  O405  1  0.12008754  0.50918513  0.00504457  1
  O  O406  1  0.13030847  0.51581002  0.49497783  1
  O  O407  1  0.63431591  0.00795505  0.01217932  1
  O  O408  1  0.61968825  0.00665147  0.49977709  1
  O  O409  1  0.61732941  0.50490631  0.00191983  1
  O  O410  1  0.61230874  0.50708756  0.50440270  1
  O  O411  1  0.35799012  0.37531070  0.13408195  1
  O  O412  1  0.37454768  0.36406221  0.61463820  1
  O  O413  1  0.36855582  0.91742774  0.11003253  1
  O  O414  1  0.36486792  0.86588424  0.62123791  1
  O  O415  1  0.86265715  0.38335220  0.12370094  1
  O  O416  1  0.87852211  0.35969983  0.63232077  1
  O  O417  1  0.86557599  0.88381414  0.11646016  1
  O  O418  1  0.87236593  0.86725142  0.61762118  1
  O  O419  1  0.13416464  0.13086854  0.38271245  1
  O  O420  1  0.13817396  0.13129709  0.86802877  1
  O  O421  1  0.12471234  0.63532384  0.38315663  1
  O  O422  1  0.13640294  0.62139350  0.88637532  1
  O  O423  1  0.63234700  0.13242920  0.37854360  1
  O  O424  1  0.62722793  0.11301977  0.89114472  1
  O  O425  1  0.62518603  0.63346131  0.38212844  1
  O  O426  1  0.63364377  0.62461846  0.88424781  1
