# generated using pymatgen
data_V85Zn86O256
_symmetry_space_group_name_H-M   'P 1'
_cell_length_a   16.92992574
_cell_length_b   16.93263461
_cell_length_c   16.92113931
_cell_angle_alpha   90.01385341
_cell_angle_beta   90.05653665
_cell_angle_gamma   90.02078941
_symmetry_Int_Tables_number   1
_chemical_formula_structural   V85Zn86O256
_chemical_formula_sum   'V85 Zn86 O256'
_cell_volume   4850.75051239
_cell_formula_units_Z   1
loop_
 _symmetry_equiv_pos_site_id
 _symmetry_equiv_pos_as_xyz
  1  'x, y, z'
loop_
 _atom_site_type_symbol
 _atom_site_label
 _atom_site_symmetry_multiplicity
 _atom_site_fract_x
 _atom_site_fract_y
 _atom_site_fract_z
 _atom_site_occupancy
  V  V0  1  0.87270063  0.36508053  0.00215038  1
  V  V1  1  0.61701876  0.74956974  0.86818756  1
  V  V2  1  0.62783749  -0.00539791  0.13141733  1
  V  V3  1  0.12485322  0.87984222  0.74652052  1
  V  V4  1  0.25737035  0.36003802  0.11672177  1
  V  V5  1  0.24512506  0.63173503  0.86770096  1
  V  V6  1  0.85903501  0.12201752  0.25245154  1
  V  V7  1  0.63296812  0.25140157  0.87568526  1
  V  V8  1  0.74592742  0.87523865  0.13245062  1
  V  V9  1  0.00120835  -0.00005715  0.50278484  1
  V  V10  1  0.13521067  0.62983010  0.50688795  1
  V  V11  1  0.50433130  -0.00660085  -0.00146026  1
  V  V12  1  0.37671034  -0.00478531  0.36464247  1
  V  V13  1  0.00162594  0.12046440  0.13058627  1
  V  V14  1  0.87583996  0.12479121  0.74971053  1
  V  V15  1  0.74842636  0.74799383  0.49486224  1
  V  V16  1  0.00358212  0.25389213  0.74877824  1
  V  V17  1  0.12832146  0.37507356  0.24904412  1
  V  V18  1  0.25643028  0.25121500  0.50516712  1
  V  V19  1  0.37604054  0.75336456  0.63072852  1
  V  V20  1  0.00332104  0.12183674  0.62559873  1
  V  V21  1  0.23682452  0.00047250  0.24818635  1
  V  V22  1  0.87488556  -0.00111862  0.87605232  1
  V  V23  1  0.00019562  0.49884539  -0.00073725  1
  V  V24  1  0.13000440  0.24633292  0.87754581  1
  V  V25  1  0.37588711  0.37214765  0.50316608  1
  V  V26  1  0.00554540  0.87133576  0.87665471  1
  V  V27  1  0.62346337  0.00838867  0.62034685  1
  V  V28  1  0.50542911  0.38280774  0.88335162  1
  V  V29  1  0.75214354  0.50048253  0.74854487  1
  V  V30  1  0.74701210  0.74578023  -0.00104526  1
  V  V31  1  0.23923346  0.87628816  0.12538621  1
  V  V32  1  0.13494637  0.48256694  0.63018830  1
  V  V33  1  0.74828826  -0.00007236  0.74984884  1
  V  V34  1  0.62681767  0.50407296  0.62344045  1
  V  V35  1  0.12484143  0.24916853  0.37561418  1
  V  V36  1  0.36936189  0.00630919  0.87435432  1
  V  V37  1  0.87692936  0.74718881  0.62606019  1
  V  V38  1  0.87405596  0.87538852  0.49930209  1
  V  V39  1  0.51432769  0.38111642  0.36691737  1
  V  V40  1  0.75527529  0.49349928  0.25288674  1
  V  V41  1  0.00375161  -0.00186418  0.00679717  1
  V  V42  1  0.12746865  0.12023579  0.50113887  1
  V  V43  1  -0.00500111  0.37741187  0.37266845  1
  V  V44  1  0.76865968  0.62402487  0.36685891  1
  V  V45  1  0.74999099  0.37503729  0.62237276  1
  V  V46  1  -0.00429227  0.24890321  0.24909026  1
  V  V47  1  0.61654816  0.86940353  0.26284987  1
  V  V48  1  0.00821337  0.37542542  0.87287584  1
  V  V49  1  0.87369585  0.74017079  0.13330324  1
  V  V50  1  0.86226470  0.00415626  0.37266239  1
  V  V51  1  0.49085984  0.12824786  0.12911210  1
  V  V52  1  0.87354296  0.87411264  0.00194872  1
  V  V53  1  0.24727738  0.00689520  0.74888965  1
  V  V54  1  0.62549841  0.23495846  0.36925476  1
  V  V55  1  0.37048523  0.86969738  0.49424222  1
  V  V56  1  0.62488519  0.51197566  0.11677357  1
  V  V57  1  0.49810523  0.25076407  0.74797067  1
  V  V58  1  0.37143882  0.87401427  -0.00089179  1
  V  V59  1  0.61407259  0.87411546  0.74468095  1
  V  V60  1  0.87527627  0.49850516  0.87514012  1
  V  V61  1  0.37804082  0.75199410  0.12913511  1
  V  V62  1  0.49811789  0.00013717  0.49450683  1
  V  V63  1  0.87308520  0.37956446  0.49457072  1
  V  V64  1  0.49059197  0.13159311  0.61414394  1
  V  V65  1  0.12455318  0.63099812  -0.00195368  1
  V  V66  1  0.75086635  0.12621574  0.87677716  1
  V  V67  1  0.37524559  0.62425965  0.25118673  1
  V  V68  1  0.00240770  0.50072509  0.49996337  1
  V  V69  1  0.63356332  0.12507175  0.00257432  1
  V  V70  1  0.50445095  0.63853291  0.62785211  1
  V  V71  1  0.37887555  0.50502258  0.88479541  1
  V  V72  1  0.49905665  0.50049092  0.50159999  1
  V  V73  1  0.74564467  0.62424902  0.87612475  1
  V  V74  1  0.62452660  0.62563559  0.48275915  1
  V  V75  1  0.00446578  0.74865893  0.75446727  1
  V  V76  1  0.25524845  0.12546084  0.36882669  1
  V  V77  1  0.74492328  0.23988019  0.49524342  1
  V  V78  1  -0.00066141  0.87373830  0.37263619  1
  V  V79  1  0.12717290  0.12444256  0.00179934  1
  V  V80  1  0.74048603  0.36909179  0.12320703  1
  V  V81  1  0.12875370  0.50037903  0.12333597  1
  V  V82  1  0.13164291  0.74868710  0.37619204  1
  V  V83  1  0.24617472  0.87559288  0.62059402  1
  V  V84  1  0.74729545  0.87557756  0.62540045  1
  Zn  Zn85  1  0.24395423  0.75299509  -0.00283866  1
  Zn  Zn86  1  -0.00482034  0.73472747  0.25803120  1
  Zn  Zn87  1  0.38155906  0.62714680  0.75114692  1
  Zn  Zn88  1  0.00256287  0.62100492  0.62812544  1
  Zn  Zn89  1  0.49061756  0.25555800  0.24020023  1
  Zn  Zn90  1  0.49457303  0.87174489  0.86808753  1
  Zn  Zn91  1  0.25526498  0.48323858  0.75065051  1
  Zn  Zn92  1  0.87760382  0.62442753  0.75055039  1
  Zn  Zn93  1  0.86819481  0.24608060  0.12376288  1
  Zn  Zn94  1  0.62585495  0.37506129  0.74904258  1
  Zn  Zn95  1  0.31345742  0.31689424  0.66941115  1
  Zn  Zn96  1  0.49891148  0.61864614  0.11971906  1
  Zn  Zn97  1  0.50219046  0.74922072  0.27946264  1
  Zn  Zn98  1  0.87508728  0.24930901  0.62149078  1
  Zn  Zn99  1  0.29482066  0.18535351  0.94999649  1
  Zn  Zn100  1  -0.00392991  0.61778172  0.13177509  1
  Zn  Zn101  1  0.37193472  0.49867842  0.37470059  1
  Zn  Zn102  1  0.11782989  0.87183036  0.24546422  1
  Zn  Zn103  1  0.36993722  0.13202319  0.75122453  1
  Zn  Zn104  1  0.25242871  0.49934661  0.25064011  1
  Zn  Zn105  1  0.24879352  0.62056320  0.37439093  1
  Zn  Zn106  1  0.38130278  0.36446917  0.00508426  1
  Zn  Zn107  1  0.18521921  0.18639307  0.18644297  1
  Zn  Zn108  1  0.18175254  0.18691065  0.68787667  1
  Zn  Zn109  1  0.18705253  0.68883198  0.18936351  1
  Zn  Zn110  1  0.18813359  0.69256868  0.68703752  1
  Zn  Zn111  1  0.67945166  0.18888346  0.18879821  1
  Zn  Zn112  1  0.68484574  0.18839834  0.68534216  1
  Zn  Zn113  1  0.68678103  0.68903966  0.19338604  1
  Zn  Zn114  1  0.68792208  0.68734813  0.68613080  1
  Zn  Zn115  1  0.31688649  0.31626670  0.31128488  1
  Zn  Zn116  1  0.31746478  0.31660836  0.83001138  1
  Zn  Zn117  1  0.30866759  0.81218567  0.31042462  1
  Zn  Zn118  1  0.31163926  0.81327254  0.81025377  1
  Zn  Zn119  1  0.80931124  0.31124690  0.31048694  1
  Zn  Zn120  1  0.81653917  0.31323541  0.81083851  1
  Zn  Zn121  1  0.80838247  0.81440815  0.31303077  1
  Zn  Zn122  1  0.81287736  0.81271776  0.81164598  1
  Zn  Zn123  1  0.18918685  0.43798963  0.43954721  1
  Zn  Zn124  1  0.19189067  0.44101995  0.93701889  1
  Zn  Zn125  1  0.18702322  0.93746330  0.43543073  1
  Zn  Zn126  1  0.18587618  0.93992217  0.93508733  1
  Zn  Zn127  1  0.69008020  0.44207059  0.43474101  1
  Zn  Zn128  1  0.68814596  0.43748101  0.94161159  1
  Zn  Zn129  1  0.68524047  0.94104923  0.44155705  1
  Zn  Zn130  1  0.68686342  0.93191638  0.93762902  1
  Zn  Zn131  1  0.31392526  0.05309586  0.06963270  1
  Zn  Zn132  1  0.31335369  0.05853288  0.56092392  1
  Zn  Zn133  1  0.30938496  0.56420639  0.06258106  1
  Zn  Zn134  1  0.31477632  0.56159587  0.56622031  1
  Zn  Zn135  1  0.81349397  0.05996418  0.06669350  1
  Zn  Zn136  1  0.81529251  0.06259144  0.56241388  1
  Zn  Zn137  1  0.80732426  0.55760109  0.06044267  1
  Zn  Zn138  1  0.81557574  0.56326405  0.55910669  1
  Zn  Zn139  1  0.43940348  0.44041702  0.18452999  1
  Zn  Zn140  1  0.44131342  0.44423160  0.69415194  1
  Zn  Zn141  1  0.43891512  0.93338290  0.18635258  1
  Zn  Zn142  1  0.43368344  0.94272494  0.68283123  1
  Zn  Zn143  1  0.93470584  0.43936366  0.18631837  1
  Zn  Zn144  1  0.93864539  0.43620704  0.68492491  1
  Zn  Zn145  1  0.93190818  0.93657586  0.18982866  1
  Zn  Zn146  1  0.93715759  0.93688134  0.68700676  1
  Zn  Zn147  1  0.05863074  0.06122005  0.31611712  1
  Zn  Zn148  1  0.06333509  0.06090946  0.81542670  1
  Zn  Zn149  1  0.06092125  0.56256716  0.31406161  1
  Zn  Zn150  1  0.06634697  0.56114981  0.80939939  1
  Zn  Zn151  1  0.56352486  0.05768334  0.30991916  1
  Zn  Zn152  1  0.55965998  0.06445040  0.81020520  1
  Zn  Zn153  1  0.56505364  0.56111271  0.30111486  1
  Zn  Zn154  1  0.56408837  0.56294841  0.81035747  1
  Zn  Zn155  1  0.42207037  0.20596241  0.39969374  1
  Zn  Zn156  1  0.45715057  0.18767946  0.93962923  1
  Zn  Zn157  1  0.42788672  0.68473778  0.43879334  1
  Zn  Zn158  1  0.43574624  0.68400056  0.94201347  1
  Zn  Zn159  1  0.93313529  0.18891777  0.43552477  1
  Zn  Zn160  1  0.94159668  0.18646399  0.93788005  1
  Zn  Zn161  1  0.94244317  0.68645119  0.44108814  1
  Zn  Zn162  1  0.93441920  0.68549866  0.94001692  1
  Zn  Zn163  1  0.06175149  0.30967966  0.06346147  1
  Zn  Zn164  1  0.06246154  0.30850624  0.55999988  1
  Zn  Zn165  1  0.05794681  0.80836980  0.06436037  1
  Zn  Zn166  1  0.06336191  0.81248787  0.56382268  1
  Zn  Zn167  1  0.56762738  0.30904534  0.06140159  1
  Zn  Zn168  1  0.56439679  0.31192726  0.55817216  1
  Zn  Zn169  1  0.54865993  0.78219198  0.04857062  1
  Zn  Zn170  1  0.54378128  0.79663812  0.49042624  1
  O  O171  1  0.10928216  0.12852805  0.11909517  1
  O  O172  1  0.11147838  0.12534302  0.61667453  1
  O  O173  1  0.12550166  0.61549922  0.11681655  1
  O  O174  1  0.12386068  0.62379527  0.61613499  1
  O  O175  1  0.62375527  0.11406243  0.11778373  1
  O  O176  1  0.61508626  0.11391378  0.62925173  1
  O  O177  1  0.63030234  0.61518657  0.12611420  1
  O  O178  1  0.62116997  0.62276255  0.61427777  1
  O  O179  1  0.39126563  0.37952157  0.38837140  1
  O  O180  1  0.38851770  0.38773373  0.88268770  1
  O  O181  1  0.36517684  0.88210761  0.38369324  1
  O  O182  1  0.37511909  0.88296256  0.88151495  1
  O  O183  1  0.88606423  0.37216192  0.37879842  1
  O  O184  1  0.88293005  0.37902091  0.88211540  1
  O  O185  1  0.87970537  0.88043406  0.38077320  1
  O  O186  1  0.88297936  0.87967263  0.88060977  1
  O  O187  1  0.25404374  0.00539785  0.36688685  1
  O  O188  1  0.25819379  -0.00465957  0.86430706  1
  O  O189  1  0.25232008  0.49969796  0.36964305  1
  O  O190  1  0.25831652  0.51158714  0.87224464  1
  O  O191  1  0.76329668  -0.00036061  0.38360459  1
  O  O192  1  0.75559003  0.00426476  0.87049848  1
  O  O193  1  0.75184991  0.50859617  0.36296746  1
  O  O194  1  0.75275556  0.50564639  0.86923162  1
  O  O195  1  0.23807197  0.49181692  0.12586723  1
  O  O196  1  0.23876970  0.50064197  0.62748532  1
  O  O197  1  0.24912204  0.99126158  0.13780970  1
  O  O198  1  0.25636321  0.98706963  0.63518479  1
  O  O199  1  0.74369760  0.49051053  0.13023763  1
  O  O200  1  0.74832269  0.49452392  0.62750560  1
  O  O201  1  0.74023477  0.98746124  0.11857383  1
  O  O202  1  0.74257810  0.99872020  0.62736965  1
  O  O203  1  0.00446699  0.37207075  0.25607829  1
  O  O204  1  -0.00537984  0.36533561  0.75941689  1
  O  O205  1  -0.00214785  0.87467943  0.26405558  1
  O  O206  1  0.00504494  0.87237630  0.75676814  1
  O  O207  1  0.49643021  0.37542356  0.26452222  1
  O  O208  1  0.50468765  0.36804436  0.75895048  1
  O  O209  1  0.51288787  0.87696307  0.25553636  1
  O  O210  1  0.51093735  0.88214362  0.74737251  1
  O  O211  1  0.50433256  0.11780506  0.23013742  1
  O  O212  1  0.49649618  0.13422488  0.74113321  1
  O  O213  1  0.49217241  0.63228499  0.24472703  1
  O  O214  1  0.50358390  0.62514419  0.73258232  1
  O  O215  1  0.99616179  0.12821313  0.24456741  1
  O  O216  1  0.99628988  0.12699025  0.74226873  1
  O  O217  1  0.99907172  0.62187600  0.24530609  1
  O  O218  1  0.99918235  0.63464453  0.74950801  1
  O  O219  1  0.37684519  0.25106501  -0.01688737  1
  O  O220  1  0.36755711  0.25693432  0.49269201  1
  O  O221  1  0.36832992  0.76409268  0.00687227  1
  O  O222  1  0.37278150  0.76418048  0.50913384  1
  O  O223  1  0.87880675  0.26117915  -0.00002692  1
  O  O224  1  0.86455343  0.26160825  0.49733817  1
  O  O225  1  0.86532963  0.75567848  0.00671986  1
  O  O226  1  0.86848181  0.75408881  0.50672087  1
  O  O227  1  0.13031597  0.23854794  0.49511910  1
  O  O228  1  0.11685129  0.23737704  0.99189538  1
  O  O229  1  0.11812801  0.73549279  0.49656212  1
  O  O230  1  0.12255614  0.73516819  1.00280700  1
  O  O231  1  0.64002761  0.25292079  0.49241576  1
  O  O232  1  0.62451942  0.23706732  0.98894458  1
  O  O233  1  0.64212401  0.73991112  0.50619934  1
  O  O234  1  0.64297190  0.76401677  0.98377466  1
  O  O235  1  0.50746265  0.23420606  0.12532445  1
  O  O236  1  0.50870486  0.23773947  0.62890464  1
  O  O237  1  0.47837012  0.77259124  0.14036244  1
  O  O238  1  0.49421520  0.74159618  0.60653872  1
  O  O239  1  0.99445704  0.24173218  0.13300227  1
  O  O240  1  0.99873658  0.24262430  0.63175019  1
  O  O241  1  0.98184939  0.74900433  0.12590177  1
  O  O242  1  0.98930966  0.75163491  0.63181303  1
  O  O243  1  0.00557434  0.25695325  0.37025217  1
  O  O244  1  0.00558046  0.25663341  0.86813834  1
  O  O245  1  0.00529803  0.75867421  0.37742742  1
  O  O246  1  -0.00874588  0.75896878  0.86690595  1
  O  O247  1  0.52098408  0.26695550  0.39122028  1
  O  O248  1  0.51578258  0.25569491  0.86454706  1
  O  O249  1  0.50540580  0.75059966  0.39385426  1
  O  O250  1  0.51425317  0.75097735  0.87203221  1
  O  O251  1  0.24227952  0.12662221  0.49434865  1
  O  O252  1  0.23252385  0.11128351  1.00867307  1
  O  O253  1  0.23756367  0.62206271  0.50018912  1
  O  O254  1  0.24138168  0.62735372  0.98990036  1
  O  O255  1  0.75731330  0.14191361  0.50237383  1
  O  O256  1  0.74107866  0.11783496  0.99503079  1
  O  O257  1  0.74600320  0.62797558  0.48930881  1
  O  O258  1  0.75354060  0.63363109  0.98887814  1
  O  O259  1  0.25010670  0.37532543  0.01392700  1
  O  O260  1  0.26151576  0.36420509  0.49641445  1
  O  O261  1  0.25353015  0.87682275  0.00555085  1
  O  O262  1  0.25612252  0.88361893  0.50978424  1
  O  O263  1  0.75818687  0.37708850  0.01357927  1
  O  O264  1  0.75734009  0.37291208  0.50305318  1
  O  O265  1  0.75705992  0.86859813  0.00792612  1
  O  O266  1  0.75313560  0.86567041  0.50487328  1
  O  O267  1  0.12415714  0.48659484  0.24256531  1
  O  O268  1  0.12595759  0.49975980  0.73270811  1
  O  O269  1  0.13288706  0.99374258  0.25814079  1
  O  O270  1  0.13029375  0.98886915  0.75437065  1
  O  O271  1  0.64445355  0.50520674  0.23788825  1
  O  O272  1  0.63563341  0.49814767  0.74151012  1
  O  O273  1  0.62311080  0.98841928  0.23834766  1
  O  O274  1  0.62984539  0.99496339  0.74454312  1
  O  O275  1  0.36667465  -0.00830268  0.26085933  1
  O  O276  1  0.36712020  0.00208804  0.75895643  1
  O  O277  1  0.37568390  0.51296911  0.24826462  1
  O  O278  1  0.37450587  0.50745389  0.76292438  1
  O  O279  1  0.87694441  0.00870982  0.26058831  1
  O  O280  1  0.86975460  0.00543434  0.75469082  1
  O  O281  1  0.85532393  0.50309239  0.23795869  1
  O  O282  1  0.86945439  0.49943121  0.75580132  1
  O  O283  1  0.11744588  0.36933651  0.36838727  1
  O  O284  1  0.11356791  0.36751704  0.88429639  1
  O  O285  1  0.11487646  0.86632499  0.37863746  1
  O  O286  1  0.11155874  0.87651674  0.86872190  1
  O  O287  1  0.61685678  0.37591084  0.37579318  1
  O  O288  1  0.62473270  0.36838987  0.87358250  1
  O  O289  1  0.63301629  0.87874136  0.36139437  1
  O  O290  1  0.62420240  0.86888772  0.86214976  1
  O  O291  1  0.39246489  0.12081769  0.11636523  1
  O  O292  1  0.38812401  0.12136026  0.62801900  1
  O  O293  1  0.37458019  0.63515144  0.13035464  1
  O  O294  1  0.38382172  0.63546341  0.62382971  1
  O  O295  1  0.88331931  0.12525652  0.13263420  1
  O  O296  1  0.88651923  0.12744647  0.62917950  1
  O  O297  1  0.87187625  0.63824645  0.11667830  1
  O  O298  1  0.87926646  0.63423290  0.62614361  1
  O  O299  1  0.24785495  0.26112690  0.12595670  1
  O  O300  1  0.24934305  0.24029054  0.61074408  1
  O  O301  1  0.25788598  0.75976356  0.12432658  1
  O  O302  1  0.25861083  0.76478794  0.62927833  1
  O  O303  1  0.74786781  0.26471140  0.13112691  1
  O  O304  1  0.74974227  0.25744427  0.61344810  1
  O  O305  1  0.75619566  0.75339867  0.11808870  1
  O  O306  1  0.76133325  0.75293509  0.61917803  1
  O  O307  1  0.24317529  0.24139230  0.38348100  1
  O  O308  1  0.23411407  0.24631822  0.87199426  1
  O  O309  1  0.23468038  0.74927161  0.37545138  1
  O  O310  1  0.25268985  0.73644788  0.87621101  1
  O  O311  1  0.73662587  0.25529489  0.38334215  1
  O  O312  1  0.74043021  0.24468418  0.86681098  1
  O  O313  1  0.75685748  0.73647158  0.38230770  1
  O  O314  1  0.74836864  0.74243693  0.87935666  1
  O  O315  1  0.00261057  0.11569302  0.00920987  1
  O  O316  1  0.00386642  0.12008687  0.50495409  1
  O  O317  1  0.00590961  0.61586524  0.00161654  1
  O  O318  1  0.00902788  0.61435948  0.50393683  1
  O  O319  1  0.51568567  0.11312856  0.00703622  1
  O  O320  1  0.49319144  0.11777424  0.51223569  1
  O  O321  1  0.51076859  0.67302348  0.02129064  1
  O  O322  1  0.50789749  0.61447730  0.50373698  1
  O  O323  1  0.50152698  0.38747802  0.49437730  1
  O  O324  1  0.50483698  0.37004820  0.98684876  1
  O  O325  1  0.48602308  0.89249131  0.50592414  1
  O  O326  1  0.49113616  0.87921924  0.99705739  1
  O  O327  1  0.99330937  0.37695952  0.49276689  1
  O  O328  1  0.99328944  0.37944107  0.99377525  1
  O  O329  1  0.99576062  0.88200711  0.49409924  1
  O  O330  1  0.99597496  0.87936938  0.99453513  1
  O  O331  1  0.50443924  0.49278679  0.38065018  1
  O  O332  1  0.49675552  0.49416224  0.87263512  1
  O  O333  1  0.48912311  1.00773437  0.38272718  1
  O  O334  1  0.49429002  0.99872480  0.88529544  1
  O  O335  1  1.01032982  0.48903480  0.39049986  1
  O  O336  1  0.99759926  0.49208447  0.87745639  1
  O  O337  1  0.99294396  0.99304448  0.38683104  1
  O  O338  1  0.99235684  0.99183040  0.88196437  1
  O  O339  1  -0.00561769  0.00514549  0.11784962  1
  O  O340  1  -0.00518386  0.00549949  0.61169484  1
  O  O341  1  0.01233825  0.49443617  0.11723903  1
  O  O342  1  0.01073552  0.49735062  0.61568706  1
  O  O343  1  0.50667500  0.00240814  0.11413862  1
  O  O344  1  0.50482180  0.01197433  0.61956065  1
  O  O345  1  0.51926621  0.50072214  0.12870734  1
  O  O346  1  0.50837115  0.50780456  0.61730275  1
  O  O347  1  0.24332224  0.37406096  0.24160455  1
  O  O348  1  0.25784575  0.36941394  0.74989717  1
  O  O349  1  0.24365371  0.88167511  0.24223842  1
  O  O350  1  0.24063940  0.88165605  0.74540314  1
  O  O351  1  0.75334464  0.38414459  0.23896029  1
  O  O352  1  0.75161199  0.38027372  0.73886318  1
  O  O353  1  0.74047229  0.87017302  0.23800224  1
  O  O354  1  0.74636363  0.88333031  0.74381311  1
  O  O355  1  0.24203815  0.11685563  0.25863652  1
  O  O356  1  0.24937784  0.11154890  0.74320085  1
  O  O357  1  0.25816612  0.62204261  0.25065951  1
  O  O358  1  0.24990703  0.62656049  0.76169061  1
  O  O359  1  0.76004539  0.12708904  0.24312386  1
  O  O360  1  0.75555489  0.11994629  0.75381323  1
  O  O361  1  0.75222511  0.62134745  0.26297978  1
  O  O362  1  0.75456602  0.61776386  0.75508315  1
  O  O363  1  0.35849966  0.10904081  0.38580122  1
  O  O364  1  0.37455854  0.11424308  0.87845258  1
  O  O365  1  0.36940802  0.62048932  0.36685999  1
  O  O366  1  0.36693001  0.62388959  0.87441360  1
  O  O367  1  0.87997141  0.11588761  0.36508818  1
  O  O368  1  0.87066567  0.11992700  0.87121375  1
  O  O369  1  0.86662166  0.62205272  0.38134968  1
  O  O370  1  0.86496351  0.61695824  0.87354477  1
  O  O371  1  0.13259838  0.37760391  0.13088220  1
  O  O372  1  0.12628587  0.38413733  0.61818751  1
  O  O373  1  0.13425968  0.86958920  0.12377891  1
  O  O374  1  0.13176136  0.87380132  0.63334936  1
  O  O375  1  0.63723030  0.38123078  0.12123993  1
  O  O376  1  0.63736589  0.38196643  0.62198050  1
  O  O377  1  0.63090053  0.87972488  0.12834545  1
  O  O378  1  0.63295987  0.88901607  0.63275998  1
  O  O379  1  0.11782316  0.25990959  0.25354388  1
  O  O380  1  0.11063735  0.24223176  0.75947069  1
  O  O381  1  0.11794799  0.75166647  0.26069750  1
  O  O382  1  0.11140894  0.76165792  0.74579323  1
  O  O383  1  0.61609667  0.24777741  0.26571178  1
  O  O384  1  0.61707292  0.25181399  0.75515700  1
  O  O385  1  0.62049802  0.76494752  0.24767270  1
  O  O386  1  0.63462226  0.76310170  0.75526836  1
  O  O387  1  0.39126105  0.23679448  0.29081212  1
  O  O388  1  0.38725954  0.25117462  0.75251716  1
  O  O389  1  0.37392221  0.74078617  0.24794873  1
  O  O390  1  0.37811825  0.75177446  0.73578664  1
  O  O391  1  0.87974914  0.24043525  0.25123664  1
  O  O392  1  0.88645135  0.24206648  0.74852830  1
  O  O393  1  0.87246547  0.75332877  0.23611003  1
  O  O394  1  0.88478375  0.75151469  0.74201726  1
  O  O395  1  0.38519583  0.49590255  0.49960923  1
  O  O396  1  0.37408535  0.50239464  0.98865182  1
  O  O397  1  0.37913250  0.99094977  0.49133133  1
  O  O398  1  0.38120497  0.99098085  0.99461152  1
  O  O399  1  0.88530193  0.48749318  0.50434128  1
  O  O400  1  0.88016971  0.48974037  0.99438319  1
  O  O401  1  0.88202253  0.99466872  0.49505113  1
  O  O402  1  0.88406920  0.99394509  0.99649214  1
  O  O403  1  0.10955319  0.00540965  -0.00597381  1
  O  O404  1  0.11672732  0.01235572  0.49390842  1
  O  O405  1  0.12072368  0.50708545  0.00575224  1
  O  O406  1  0.12192942  0.50787808  0.51100702  1
  O  O407  1  0.61914189  0.00095447  0.00537455  1
  O  O408  1  0.61287324  -0.00274634  0.50850942  1
  O  O409  1  0.63445664  0.50354867  0.01667903  1
  O  O410  1  0.62150384  0.50903292  0.50408645  1
  O  O411  1  0.36261169  0.37746566  0.12401093  1
  O  O412  1  0.39043378  0.37664278  0.60982165  1
  O  O413  1  0.36160670  0.87547334  0.11754740  1
  O  O414  1  0.36826640  0.87087251  0.61879063  1
  O  O415  1  0.86597543  0.37185024  0.11722583  1
  O  O416  1  0.86537889  0.37185473  0.61605441  1
  O  O417  1  0.86592837  0.86674121  0.12116958  1
  O  O418  1  0.86883572  0.86884609  0.61883479  1
  O  O419  1  0.13088535  0.12954556  0.38195938  1
  O  O420  1  0.11520865  0.13345319  0.88777874  1
  O  O421  1  0.12498423  0.63029920  0.38917395  1
  O  O422  1  0.13762801  0.61903996  0.88082291  1
  O  O423  1  0.62007040  0.13615197  0.37536641  1
  O  O424  1  0.63087225  0.12981943  0.88070276  1
  O  O425  1  0.63456054  0.61932892  0.38152913  1
  O  O426  1  0.63768469  0.63424379  0.86608079  1
