# generated using pymatgen
data_In21.6Ag21.6Sn21.6Bi21.6Te108Pb21.6
_symmetry_space_group_name_H-M   'P 1'
_cell_length_a   18.76638000
_cell_length_b   18.76638000
_cell_length_c   18.76638000
_cell_angle_alpha   90.00000000
_cell_angle_beta   90.00000000
_cell_angle_gamma   90.00000000
_symmetry_Int_Tables_number   1
_chemical_formula_structural   In21.6Ag21.6Sn21.6Bi21.6Te108Pb21.6
_chemical_formula_sum   'In21.6 Ag21.6 Sn21.6 Bi21.6 Te108 Pb21.6'
_cell_volume   6609.08775277
_cell_formula_units_Z   1
loop_
 _symmetry_equiv_pos_site_id
 _symmetry_equiv_pos_as_xyz
  1  'x, y, z'
loop_
 _atom_type_symbol
 _atom_type_oxidation_number
  In3+  3.0
  Ag+  1.0
  Sn2+  2.0
  Bi3+  3.0
  Te2-  -2.0
  Pb2+  2.0
loop_
 _atom_site_type_symbol
 _atom_site_label
 _atom_site_symmetry_multiplicity
 _atom_site_fract_x
 _atom_site_fract_y
 _atom_site_fract_z
 _atom_site_occupancy
  In3+  Bi1  1  0.50000000  0.50000000  0.00000000  1.0
  In3+  Bi1  1  0.50000000  0.50000000  0.33333333  1.0
  In3+  Bi1  1  0.16666667  0.33333333  0.83333333  1.0
  In3+  Bi1  1  0.33333333  0.33333333  0.33333333  1.0
  In3+  Bi1  1  0.16666667  0.50000000  0.00000000  1.0
  In3+  Bi1  1  0.66666667  0.50000000  0.50000000  1.0
  In3+  Bi1  1  0.66666667  0.00000000  0.33333333  1.0
  In3+  Bi1  1  0.50000000  0.00000000  0.83333333  1.0
  In3+  Bi1  1  0.00000000  0.33333333  0.00000000  1.0
  In3+  Bi1  1  0.83333333  0.66666667  0.16666667  1.0
  In3+  Bi1  1  0.00000000  0.83333333  0.50000000  1.0
  In3+  Bi1  1  0.50000000  0.33333333  0.83333333  1.0
  In3+  Bi1  1  0.83333333  0.83333333  0.00000000  1.0
  In3+  Bi1  1  0.16666667  0.00000000  0.16666667  1.0
  In3+  Bi1  1  0.00000000  0.66666667  0.00000000  1.0
  In3+  Bi1  1  0.66666667  0.66666667  0.66666667  1.0
  In3+  Bi1  1  0.33333333  0.66666667  0.66666667  1.0
  In3+  Bi1  1  0.83333333  0.00000000  0.83333333  1.0
  In3+  Bi1  1  0.33333333  0.83333333  0.83333333  1.0
  In3+  Bi1  1  0.66666667  0.83333333  0.16666667  1.0
  In3+  Bi1  1  0.33333333  0.16666667  0.16666667  1.0
  In3+  Bi1  1  0.33333333  0.33333333  0.00000000  1.0
  Ag+  Bi1  1  0.00000000  0.83333333  0.16666667  1.0
  Ag+  Bi1  1  0.33333333  0.83333333  0.50000000  1.0
  Ag+  Bi1  1  0.66666667  0.50000000  0.16666667  1.0
  Ag+  Bi1  1  0.66666667  0.00000000  0.00000000  1.0
  Ag+  Bi1  1  0.00000000  0.00000000  0.00000000  1.0
  Ag+  Bi1  1  0.16666667  0.66666667  0.16666667  1.0
  Ag+  Bi1  1  0.33333333  0.16666667  0.83333333  1.0
  Ag+  Bi1  1  0.66666667  0.66666667  0.33333333  1.0
  Ag+  Bi1  1  0.50000000  0.83333333  0.33333333  1.0
  Ag+  Bi1  1  0.50000000  0.66666667  0.16666667  1.0
  Ag+  Bi1  1  0.83333333  0.83333333  0.66666667  1.0
  Ag+  Bi1  1  0.66666667  0.33333333  0.66666667  1.0
  Ag+  Bi1  1  0.16666667  0.83333333  0.33333333  1.0
  Ag+  Bi1  1  0.00000000  0.16666667  0.16666667  1.0
  Ag+  Bi1  1  0.83333333  0.66666667  0.50000000  1.0
  Ag+  Bi1  1  0.83333333  0.33333333  0.16666667  1.0
  Ag+  Bi1  1  0.16666667  0.83333333  0.00000000  1.0
  Ag+  Bi1  1  0.16666667  0.16666667  0.66666667  1.0
  Ag+  Bi1  1  0.33333333  0.66666667  0.33333333  1.0
  Ag+  Bi1  1  0.33333333  0.00000000  0.33333333  1.0
  Ag+  Bi1  1  0.00000000  0.66666667  0.66666667  1.0
  Sn2+  Bi1  1  0.16666667  0.00000000  0.50000000  1.0
  Sn2+  Bi1  1  0.16666667  0.16666667  0.00000000  1.0
  Sn2+  Bi1  1  0.66666667  0.33333333  0.33333333  1.0
  Sn2+  Bi1  1  0.16666667  0.33333333  0.16666667  1.0
  Sn2+  Bi1  1  0.33333333  0.50000000  0.50000000  1.0
  Sn2+  Bi1  1  0.33333333  0.00000000  0.66666667  1.0
  Sn2+  Bi1  1  0.50000000  0.33333333  0.50000000  1.0
  Sn2+  Bi1  1  0.00000000  0.00000000  0.66666667  1.0
  Sn2+  Bi1  1  0.50000000  0.50000000  0.66666667  1.0
  Sn2+  Bi1  1  0.83333333  0.16666667  0.33333333  1.0
  Sn2+  Bi1  1  0.50000000  0.83333333  0.66666667  1.0
  Sn2+  Bi1  1  0.00000000  0.83333333  0.83333333  1.0
  Sn2+  Bi1  1  0.66666667  0.66666667  0.00000000  1.0
  Sn2+  Bi1  1  0.50000000  0.16666667  0.66666667  1.0
  Sn2+  Bi1  1  0.83333333  0.00000000  0.50000000  1.0
  Sn2+  Bi1  1  0.33333333  0.16666667  0.50000000  1.0
  Sn2+  Bi1  1  0.50000000  0.00000000  0.50000000  1.0
  Sn2+  Bi1  1  0.50000000  0.16666667  0.00000000  1.0
  Sn2+  Bi1  1  0.00000000  0.33333333  0.66666667  1.0
  Sn2+  Bi1  1  0.83333333  0.00000000  0.16666667  1.0
  Sn2+  Bi1  1  0.00000000  0.66666667  0.33333333  1.0
  Sn2+  Bi1  1  0.83333333  0.50000000  0.66666667  1.0
  Bi3+  Bi1  1  0.50000000  0.66666667  0.83333333  1.0
  Bi3+  Bi1  1  0.83333333  0.50000000  0.00000000  1.0
  Bi3+  Bi1  1  0.00000000  0.50000000  0.83333333  1.0
  Bi3+  Bi1  1  0.83333333  0.50000000  0.33333333  1.0
  Bi3+  Bi1  1  0.33333333  0.66666667  0.00000000  1.0
  Bi3+  Bi1  1  0.16666667  0.66666667  0.83333333  1.0
  Bi3+  Bi1  1  0.33333333  0.50000000  0.16666667  1.0
  Bi3+  Bi1  1  0.50000000  0.66666667  0.50000000  1.0
  Bi3+  Bi1  1  0.33333333  0.83333333  0.16666667  1.0
  Bi3+  Bi1  1  0.66666667  0.33333333  0.00000000  1.0
  Bi3+  Bi1  1  0.66666667  0.16666667  0.83333333  1.0
  Bi3+  Bi1  1  0.66666667  0.16666667  0.50000000  1.0
  Bi3+  Bi1  1  0.00000000  0.16666667  0.83333333  1.0
  Bi3+  Bi1  1  0.00000000  0.16666667  0.50000000  1.0
  Bi3+  Bi1  1  0.16666667  0.00000000  0.83333333  1.0
  Bi3+  Bi1  1  0.66666667  0.83333333  0.83333333  1.0
  Bi3+  Bi1  1  0.50000000  0.33333333  0.16666667  1.0
  Bi3+  Bi1  1  0.33333333  0.00000000  0.00000000  1.0
  Bi3+  Bi1  1  0.83333333  0.66666667  0.83333333  1.0
  Bi3+  Bi1  1  0.00000000  0.00000000  0.33333333  1.0
  Bi3+  Bi1  1  0.16666667  0.33333333  0.50000000  1.0
  Pb2+  Bi1  1  0.83333333  0.16666667  0.00000000  1.0
  Pb2+  Bi1  1  0.83333333  0.83333333  0.33333333  1.0
  Pb2+  Bi1  1  0.00000000  0.33333333  0.33333333  1.0
  Pb2+  Bi1  1  0.33333333  0.50000000  0.83333333  1.0
  Pb2+  Bi1  1  0.16666667  0.66666667  0.50000000  1.0
  Pb2+  Bi1  1  0.66666667  0.16666667  0.16666667  1.0
  Pb2+  Bi1  1  0.33333333  0.33333333  0.66666667  1.0
  Pb2+  Bi1  1  0.83333333  0.33333333  0.83333333  1.0
  Pb2+  Bi1  1  0.16666667  0.50000000  0.33333333  1.0
  Pb2+  Bi1  1  0.50000000  0.16666667  0.33333333  1.0
  Pb2+  Bi1  1  0.66666667  0.50000000  0.83333333  1.0
  Pb2+  Bi1  1  0.00000000  0.50000000  0.16666667  1.0
  Pb2+  Bi1  1  0.66666667  0.83333333  0.50000000  1.0
  Pb2+  Bi1  1  0.16666667  0.83333333  0.66666667  1.0
  Pb2+  Bi1  1  0.50000000  0.00000000  0.16666667  1.0
  Pb2+  Bi1  1  0.50000000  0.83333333  0.00000000  1.0
  Pb2+  Bi1  1  0.83333333  0.16666667  0.66666667  1.0
  Pb2+  Bi1  1  0.16666667  0.16666667  0.33333333  1.0
  Pb2+  Bi1  1  0.00000000  0.50000000  0.50000000  1.0
  Pb2+  Bi1  1  0.16666667  0.50000000  0.66666667  1.0
  Pb2+  Bi1  1  0.83333333  0.33333333  0.50000000  1.0
  Pb2+  Bi1  1  0.66666667  0.00000000  0.66666667  1.0
  Te2-  Te1  1  0.16666667  0.16666667  0.16666667  1.0
  Te2-  Te1  1  0.16666667  0.16666667  0.50000000  1.0
  Te2-  Te1  1  0.16666667  0.16666667  0.83333333  1.0
  Te2-  Te1  1  0.16666667  0.50000000  0.16666667  1.0
  Te2-  Te1  1  0.16666667  0.50000000  0.50000000  1.0
  Te2-  Te1  1  0.16666667  0.50000000  0.83333333  1.0
  Te2-  Te1  1  0.16666667  0.83333333  0.16666667  1.0
  Te2-  Te1  1  0.16666667  0.83333333  0.50000000  1.0
  Te2-  Te1  1  0.16666667  0.83333333  0.83333333  1.0
  Te2-  Te1  1  0.50000000  0.16666667  0.16666667  1.0
  Te2-  Te1  1  0.50000000  0.16666667  0.50000000  1.0
  Te2-  Te1  1  0.50000000  0.16666667  0.83333333  1.0
  Te2-  Te1  1  0.50000000  0.50000000  0.16666667  1.0
  Te2-  Te1  1  0.50000000  0.50000000  0.50000000  1.0
  Te2-  Te1  1  0.50000000  0.50000000  0.83333333  1.0
  Te2-  Te1  1  0.50000000  0.83333333  0.16666667  1.0
  Te2-  Te1  1  0.50000000  0.83333333  0.50000000  1.0
  Te2-  Te1  1  0.50000000  0.83333333  0.83333333  1.0
  Te2-  Te1  1  0.83333333  0.16666667  0.16666667  1.0
  Te2-  Te1  1  0.83333333  0.16666667  0.50000000  1.0
  Te2-  Te1  1  0.83333333  0.16666667  0.83333333  1.0
  Te2-  Te1  1  0.83333333  0.50000000  0.16666667  1.0
  Te2-  Te1  1  0.83333333  0.50000000  0.50000000  1.0
  Te2-  Te1  1  0.83333333  0.50000000  0.83333333  1.0
  Te2-  Te1  1  0.83333333  0.83333333  0.16666667  1.0
  Te2-  Te1  1  0.83333333  0.83333333  0.50000000  1.0
  Te2-  Te1  1  0.83333333  0.83333333  0.83333333  1.0
  Te2-  Te1  1  0.16666667  0.00000000  0.00000000  1.0
  Te2-  Te1  1  0.16666667  0.00000000  0.33333333  1.0
  Te2-  Te1  1  0.16666667  0.00000000  0.66666667  1.0
  Te2-  Te1  1  0.16666667  0.33333333  0.00000000  1.0
  Te2-  Te1  1  0.16666667  0.33333333  0.33333333  1.0
  Te2-  Te1  1  0.16666667  0.33333333  0.66666667  1.0
  Te2-  Te1  1  0.16666667  0.66666667  0.00000000  1.0
  Te2-  Te1  1  0.16666667  0.66666667  0.33333333  1.0
  Te2-  Te1  1  0.16666667  0.66666667  0.66666667  1.0
  Te2-  Te1  1  0.50000000  0.00000000  0.00000000  1.0
  Te2-  Te1  1  0.50000000  0.00000000  0.33333333  1.0
  Te2-  Te1  1  0.50000000  0.00000000  0.66666667  1.0
  Te2-  Te1  1  0.50000000  0.33333333  0.00000000  1.0
  Te2-  Te1  1  0.50000000  0.33333333  0.33333333  1.0
  Te2-  Te1  1  0.50000000  0.33333333  0.66666667  1.0
  Te2-  Te1  1  0.50000000  0.66666667  0.00000000  1.0
  Te2-  Te1  1  0.50000000  0.66666667  0.33333333  1.0
  Te2-  Te1  1  0.50000000  0.66666667  0.66666667  1.0
  Te2-  Te1  1  0.83333333  0.00000000  0.00000000  1.0
  Te2-  Te1  1  0.83333333  0.00000000  0.33333333  1.0
  Te2-  Te1  1  0.83333333  0.00000000  0.66666667  1.0
  Te2-  Te1  1  0.83333333  0.33333333  0.00000000  1.0
  Te2-  Te1  1  0.83333333  0.33333333  0.33333333  1.0
  Te2-  Te1  1  0.83333333  0.33333333  0.66666667  1.0
  Te2-  Te1  1  0.83333333  0.66666667  0.00000000  1.0
  Te2-  Te1  1  0.83333333  0.66666667  0.33333333  1.0
  Te2-  Te1  1  0.83333333  0.66666667  0.66666667  1.0
  Te2-  Te1  1  0.00000000  0.16666667  0.00000000  1.0
  Te2-  Te1  1  0.00000000  0.16666667  0.33333333  1.0
  Te2-  Te1  1  0.00000000  0.16666667  0.66666667  1.0
  Te2-  Te1  1  0.00000000  0.50000000  0.00000000  1.0
  Te2-  Te1  1  0.00000000  0.50000000  0.33333333  1.0
  Te2-  Te1  1  0.00000000  0.50000000  0.66666667  1.0
  Te2-  Te1  1  0.00000000  0.83333333  0.00000000  1.0
  Te2-  Te1  1  0.00000000  0.83333333  0.33333333  1.0
  Te2-  Te1  1  0.00000000  0.83333333  0.66666667  1.0
  Te2-  Te1  1  0.33333333  0.16666667  0.00000000  1.0
  Te2-  Te1  1  0.33333333  0.16666667  0.33333333  1.0
  Te2-  Te1  1  0.33333333  0.16666667  0.66666667  1.0
  Te2-  Te1  1  0.33333333  0.50000000  0.00000000  1.0
  Te2-  Te1  1  0.33333333  0.50000000  0.33333333  1.0
  Te2-  Te1  1  0.33333333  0.50000000  0.66666667  1.0
  Te2-  Te1  1  0.33333333  0.83333333  0.00000000  1.0
  Te2-  Te1  1  0.33333333  0.83333333  0.33333333  1.0
  Te2-  Te1  1  0.33333333  0.83333333  0.66666667  1.0
  Te2-  Te1  1  0.66666667  0.16666667  0.00000000  1.0
  Te2-  Te1  1  0.66666667  0.16666667  0.33333333  1.0
  Te2-  Te1  1  0.66666667  0.16666667  0.66666667  1.0
  Te2-  Te1  1  0.66666667  0.50000000  0.00000000  1.0
  Te2-  Te1  1  0.66666667  0.50000000  0.33333333  1.0
  Te2-  Te1  1  0.66666667  0.50000000  0.66666667  1.0
  Te2-  Te1  1  0.66666667  0.83333333  0.00000000  1.0
  Te2-  Te1  1  0.66666667  0.83333333  0.33333333  1.0
  Te2-  Te1  1  0.66666667  0.83333333  0.66666667  1.0
  Te2-  Te1  1  0.00000000  0.00000000  0.16666667  1.0
  Te2-  Te1  1  0.00000000  0.00000000  0.50000000  1.0
  Te2-  Te1  1  0.00000000  0.00000000  0.83333333  1.0
  Te2-  Te1  1  0.00000000  0.33333333  0.16666667  1.0
  Te2-  Te1  1  0.00000000  0.33333333  0.50000000  1.0
  Te2-  Te1  1  0.00000000  0.33333333  0.83333333  1.0
  Te2-  Te1  1  0.00000000  0.66666667  0.16666667  1.0
  Te2-  Te1  1  0.00000000  0.66666667  0.50000000  1.0
  Te2-  Te1  1  0.00000000  0.66666667  0.83333333  1.0
  Te2-  Te1  1  0.33333333  0.00000000  0.16666667  1.0
  Te2-  Te1  1  0.33333333  0.00000000  0.50000000  1.0
  Te2-  Te1  1  0.33333333  0.00000000  0.83333333  1.0
  Te2-  Te1  1  0.33333333  0.33333333  0.16666667  1.0
  Te2-  Te1  1  0.33333333  0.33333333  0.50000000  1.0
  Te2-  Te1  1  0.33333333  0.33333333  0.83333333  1.0
  Te2-  Te1  1  0.33333333  0.66666667  0.16666667  1.0
  Te2-  Te1  1  0.33333333  0.66666667  0.50000000  1.0
  Te2-  Te1  1  0.33333333  0.66666667  0.83333333  1.0
  Te2-  Te1  1  0.66666667  0.00000000  0.16666667  1.0
  Te2-  Te1  1  0.66666667  0.00000000  0.50000000  1.0
  Te2-  Te1  1  0.66666667  0.00000000  0.83333333  1.0
  Te2-  Te1  1  0.66666667  0.33333333  0.16666667  1.0
  Te2-  Te1  1  0.66666667  0.33333333  0.50000000  1.0
  Te2-  Te1  1  0.66666667  0.33333333  0.83333333  1.0
  Te2-  Te1  1  0.66666667  0.66666667  0.16666667  1.0
  Te2-  Te1  1  0.66666667  0.66666667  0.50000000  1.0
  Te2-  Te1  1  0.66666667  0.66666667  0.83333333  1.0
