# generated using pymatgen
data_Cs2SnPbI6
_symmetry_space_group_name_H-M   'P 1'
_cell_length_a   25.26217170
_cell_length_b   25.25795905
_cell_length_c   25.25534079
_cell_angle_alpha   89.99631344
_cell_angle_beta   90.00055405
_cell_angle_gamma   90.01253768
_symmetry_Int_Tables_number   1
_chemical_formula_structural   Cs2SnPbI6
_chemical_formula_sum   'Cs64 Sn32 Pb32 I192'
_cell_volume   16114.69756416
_cell_formula_units_Z   32
loop_
 _symmetry_equiv_pos_site_id
 _symmetry_equiv_pos_as_xyz
  1  'x, y, z'
loop_
 _atom_site_type_symbol
 _atom_site_label
 _atom_site_symmetry_multiplicity
 _atom_site_fract_x
 _atom_site_fract_y
 _atom_site_fract_z
 _atom_site_occupancy
  Cs  Cs0  1  0.00996960  -0.00575133  0.01262323  1
  Cs  Cs1  1  0.01427674  -0.00262037  0.24786626  1
  Cs  Cs2  1  -0.00996907  -0.00449460  0.48820616  1
  Cs  Cs3  1  -0.00312870  0.00477770  0.74767284  1
  Cs  Cs4  1  -0.00459840  0.26242221  0.00571316  1
  Cs  Cs5  1  -0.00695844  0.25129289  0.24984186  1
  Cs  Cs6  1  -0.00275236  0.23644433  0.50921175  1
  Cs  Cs7  1  0.00039047  0.25272442  0.76587199  1
  Cs  Cs8  1  -0.00319426  0.50034267  0.01271884  1
  Cs  Cs9  1  0.00098605  0.49663767  0.24943444  1
  Cs  Cs10  1  -0.00148671  0.49836418  0.48282827  1
  Cs  Cs11  1  -0.01154827  0.51764297  0.76156533  1
  Cs  Cs12  1  0.00490692  0.73768092  0.00594289  1
  Cs  Cs13  1  0.00517881  0.72743684  0.25382627  1
  Cs  Cs14  1  -0.00448688  0.73591099  0.51587144  1
  Cs  Cs15  1  -0.01330674  0.74831272  0.75166521  1
  Cs  Cs16  1  0.24069864  0.01239611  0.01198967  1
  Cs  Cs17  1  0.23811749  -0.01236687  0.24413720  1
  Cs  Cs18  1  0.24989329  0.00262112  0.49185994  1
  Cs  Cs19  1  0.25440431  0.01120113  0.74118029  1
  Cs  Cs20  1  0.25783656  0.25030509  -0.00606326  1
  Cs  Cs21  1  0.25163547  0.24508047  0.24606369  1
  Cs  Cs22  1  0.25990381  0.25514606  0.49111666  1
  Cs  Cs23  1  0.25454734  0.25775178  0.75370961  1
  Cs  Cs24  1  0.25197247  0.49436527  0.00532212  1
  Cs  Cs25  1  0.24454100  0.50384541  0.26198818  1
  Cs  Cs26  1  0.25639170  0.49419515  0.49018319  1
  Cs  Cs27  1  0.22984595  0.49833470  0.74849949  1
  Cs  Cs28  1  0.24175939  0.74980959  -0.00003589  1
  Cs  Cs29  1  0.24935716  0.76834185  0.24965500  1
  Cs  Cs30  1  0.25232461  0.73966882  0.49199195  1
  Cs  Cs31  1  0.24203662  0.76120500  0.74459187  1
  Cs  Cs32  1  0.49141042  0.00809965  -0.01788028  1
  Cs  Cs33  1  0.48744947  0.00848140  0.26493399  1
  Cs  Cs34  1  0.49868950  0.00862350  0.51595921  1
  Cs  Cs35  1  0.50424419  -0.00868736  0.74370334  1
  Cs  Cs36  1  0.49223207  0.24821084  0.00327880  1
  Cs  Cs37  1  0.49785151  0.26764347  0.24724031  1
  Cs  Cs38  1  0.49756085  0.24782216  0.50504984  1
  Cs  Cs39  1  0.51473132  0.24204441  0.74789225  1
  Cs  Cs40  1  0.49466030  0.48640778  0.00577537  1
  Cs  Cs41  1  0.50151627  0.52348761  0.25438657  1
  Cs  Cs42  1  0.50506547  0.50038266  0.50436565  1
  Cs  Cs43  1  0.50504237  0.48901342  0.73490627  1
  Cs  Cs44  1  0.51041963  0.74740417  -0.00549579  1
  Cs  Cs45  1  0.50773895  0.75199710  0.25887409  1
  Cs  Cs46  1  0.51390744  0.74661074  0.48987708  1
  Cs  Cs47  1  0.49490909  0.77149228  0.75379321  1
  Cs  Cs48  1  0.73327838  -0.00742397  0.00405146  1
  Cs  Cs49  1  0.75208154  0.01099772  0.25674810  1
  Cs  Cs50  1  0.73888168  -0.00273550  0.49151787  1
  Cs  Cs51  1  0.74320056  0.00980796  0.75284653  1
  Cs  Cs52  1  0.74999915  0.24056107  -0.00752462  1
  Cs  Cs53  1  0.76150454  0.24627754  0.24598275  1
  Cs  Cs54  1  0.73726739  0.25554094  0.50334431  1
  Cs  Cs55  1  0.74033934  0.25194763  0.74154115  1
  Cs  Cs56  1  0.76267595  0.49375824  -0.01151222  1
  Cs  Cs57  1  0.77010537  0.49130015  0.24388618  1
  Cs  Cs58  1  0.74793148  0.48875334  0.49684089  1
  Cs  Cs59  1  0.74204660  0.51069932  0.74125813  1
  Cs  Cs60  1  0.74215515  0.75269615  -0.01539466  1
  Cs  Cs61  1  0.74448539  0.73985018  0.24834404  1
  Cs  Cs62  1  0.75043526  0.76770208  0.50012716  1
  Cs  Cs63  1  0.77124708  0.74942738  0.74365591  1
  Sn  Sn64  1  0.36890755  0.37617534  0.62511651  1
  Sn  Sn65  1  0.87236633  0.11362255  0.12091456  1
  Sn  Sn66  1  0.62584016  0.12018054  0.62240944  1
  Sn  Sn67  1  0.87515368  0.12695953  0.87203480  1
  Sn  Sn68  1  0.12460615  0.87843325  0.86899793  1
  Sn  Sn69  1  0.37580087  0.12589392  0.37518853  1
  Sn  Sn70  1  0.12251481  0.36961221  0.87206360  1
  Sn  Sn71  1  0.12374988  0.62749577  0.37659319  1
  Sn  Sn72  1  0.62121764  0.62049113  0.87775782  1
  Sn  Sn73  1  0.87193149  0.62644405  0.37309473  1
  Sn  Sn74  1  0.61946061  0.62928380  0.63084869  1
  Sn  Sn75  1  0.86955226  0.87484172  0.12392984  1
  Sn  Sn76  1  0.62667444  0.37681087  0.88086194  1
  Sn  Sn77  1  0.12530090  0.37598634  0.12538027  1
  Sn  Sn78  1  0.37557535  0.37344433  0.37626428  1
  Sn  Sn79  1  0.62331413  0.13081268  0.37182599  1
  Sn  Sn80  1  0.12248726  0.37129335  0.62415872  1
  Sn  Sn81  1  0.12871128  0.62234310  0.12569305  1
  Sn  Sn82  1  0.62557293  0.12841001  0.87722005  1
  Sn  Sn83  1  0.38280308  0.87028967  0.12537501  1
  Sn  Sn84  1  0.87457715  0.37308588  0.12332491  1
  Sn  Sn85  1  0.87755859  0.13108926  0.62942229  1
  Sn  Sn86  1  0.37209372  0.62161108  0.63061373  1
  Sn  Sn87  1  0.87667746  0.37281553  0.37898065  1
  Sn  Sn88  1  0.87294534  0.63607328  0.12993295  1
  Sn  Sn89  1  0.12326997  0.12298802  0.87135195  1
  Sn  Sn90  1  0.12399623  0.87336275  0.38109578  1
  Sn  Sn91  1  0.88225877  0.37074057  0.62717609  1
  Sn  Sn92  1  0.12493398  0.37521965  0.38069945  1
  Sn  Sn93  1  0.37330891  0.87635605  0.37239718  1
  Sn  Sn94  1  0.62688803  0.37392263  0.12446212  1
  Sn  Sn95  1  0.37132035  0.12856667  0.62659814  1
  Pb  Pb96  1  0.37598559  0.63488800  0.11974317  1
  Pb  Pb97  1  0.37462558  0.62545441  0.37618196  1
  Pb  Pb98  1  0.62526581  0.12640871  0.12724822  1
  Pb  Pb99  1  0.87938786  0.88043314  0.62484922  1
  Pb  Pb100  1  0.87668926  0.87597367  0.36269078  1
  Pb  Pb101  1  0.12424231  0.12686707  0.37976466  1
  Pb  Pb102  1  0.12960413  0.62641579  0.87410690  1
  Pb  Pb103  1  0.12435047  0.13117842  0.62457675  1
  Pb  Pb104  1  0.87274798  0.61829489  0.62225814  1
  Pb  Pb105  1  0.37758328  0.12002933  0.12517173  1
  Pb  Pb106  1  0.37336994  0.12568184  0.86829756  1
  Pb  Pb107  1  0.37215325  0.87207019  0.62239109  1
  Pb  Pb108  1  0.12380948  0.87523329  0.62592033  1
  Pb  Pb109  1  0.62829870  0.61851509  0.11979599  1
  Pb  Pb110  1  0.37901853  0.62653847  0.87362876  1
  Pb  Pb111  1  0.87552203  0.12495419  0.37629521  1
  Pb  Pb112  1  0.37496163  0.37892532  0.87197372  1
  Pb  Pb113  1  0.87034239  0.62526715  0.87780678  1
  Pb  Pb114  1  0.36843716  0.87275057  0.87845302  1
  Pb  Pb115  1  0.88216225  0.87860679  0.88698482  1
  Pb  Pb116  1  0.62335529  0.87528899  0.12527261  1
  Pb  Pb117  1  0.62411497  0.37125439  0.36914422  1
  Pb  Pb118  1  0.12286494  0.87122058  0.12032062  1
  Pb  Pb119  1  0.37566035  0.37923664  0.12859927  1
  Pb  Pb120  1  0.12910689  0.61575219  0.62489072  1
  Pb  Pb121  1  0.12162117  0.13060309  0.12536116  1
  Pb  Pb122  1  0.87495087  0.37494264  0.86936560  1
  Pb  Pb123  1  0.62828318  0.62181657  0.37625715  1
  Pb  Pb124  1  0.62462576  0.87486110  0.88136657  1
  Pb  Pb125  1  0.62401055  0.87993575  0.36935284  1
  Pb  Pb126  1  0.62589628  0.37571670  0.62552287  1
  Pb  Pb127  1  0.62535664  0.86927253  0.62790211  1
  I  I128  1  0.13456870  -0.00011186  0.12567175  1
  I  I129  1  0.13636441  -0.00200206  0.38033796  1
  I  I130  1  0.10988345  0.00409615  0.64226152  1
  I  I131  1  0.09548241  -0.00221717  0.86502309  1
  I  I132  1  0.12456351  0.25366801  0.15867670  1
  I  I133  1  0.10696500  0.25381031  0.36919141  1
  I  I134  1  0.14162758  0.25379123  0.58188046  1
  I  I135  1  0.11764740  0.24515546  0.90355341  1
  I  I136  1  0.11585845  0.50109580  0.10348410  1
  I  I137  1  0.13057809  0.50227901  0.37723682  1
  I  I138  1  0.10183727  0.49371613  0.66451959  1
  I  I139  1  0.13618519  0.49730881  0.86879329  1
  I  I140  1  0.11225837  0.74703923  0.14462178  1
  I  I141  1  0.13235780  0.74857665  0.35304139  1
  I  I142  1  0.14647105  0.74565969  0.61526913  1
  I  I143  1  0.15079495  0.75624741  0.87558187  1
  I  I144  1  0.35234347  -0.00648790  0.12123455  1
  I  I145  1  0.36546213  0.00565526  0.36391368  1
  I  I146  1  0.37679179  0.00750833  0.64656643  1
  I  I147  1  0.39859113  0.00139736  0.85683584  1
  I  I148  1  0.36171324  0.24776763  0.10820861  1
  I  I149  1  0.38215937  0.24456261  0.40061267  1
  I  I150  1  0.37421393  0.24908616  0.59392845  1
  I  I151  1  0.37783764  0.24970072  0.89949463  1
  I  I152  1  0.38266711  0.50562124  0.10542433  1
  I  I153  1  0.38548358  0.49784683  0.38440608  1
  I  I154  1  0.37926333  0.49821487  0.60141253  1
  I  I155  1  0.36961339  0.50287606  0.90423748  1
  I  I156  1  0.38455610  0.75285737  0.16980151  1
  I  I157  1  0.36047738  0.75207958  0.36093511  1
  I  I158  1  0.38874628  0.74652264  0.64515034  1
  I  I159  1  0.36542601  0.74797106  0.83734699  1
  I  I160  1  0.65441633  0.00240772  0.13977349  1
  I  I161  1  0.63912811  0.00568445  0.35567595  1
  I  I162  1  0.64540573  -0.00371781  0.62511143  1
  I  I163  1  0.62150144  0.00339091  0.87725000  1
  I  I164  1  0.63058868  0.25319802  0.09125831  1
  I  I165  1  0.61798031  0.24780951  0.41213035  1
  I  I166  1  0.62500995  0.24815170  0.61399560  1
  I  I167  1  0.61396232  0.25227338  0.87880238  1
  I  I168  1  0.61358215  0.49311925  0.15742744  1
  I  I169  1  0.59823326  0.49726836  0.36792595  1
  I  I170  1  0.63772623  0.50375235  0.62059452  1
  I  I171  1  0.65381669  0.49542196  0.86906663  1
  I  I172  1  0.62393031  0.74707143  0.10119746  1
  I  I173  1  0.63206223  0.75034069  0.38069614  1
  I  I174  1  0.58441436  0.74841632  0.63370251  1
  I  I175  1  0.62166494  0.74784453  0.87001308  1
  I  I176  1  0.86535298  -0.00917545  0.08029390  1
  I  I177  1  0.85957294  0.00002001  0.39765687  1
  I  I178  1  0.87916786  0.00584837  0.64839832  1
  I  I179  1  0.87372910  0.00290715  0.85278257  1
  I  I180  1  0.88787355  0.24837366  0.12223377  1
  I  I181  1  0.90142295  0.25027450  0.37521998  1
  I  I182  1  0.85662419  0.25331400  0.59465317  1
  I  I183  1  0.88637869  0.25259780  0.90233257  1
  I  I184  1  0.88541218  0.49755644  0.13162942  1
  I  I185  1  0.88532972  0.49685725  0.36834042  1
  I  I186  1  0.88703711  0.49544595  0.65122217  1
  I  I187  1  0.85316191  0.50005992  0.85049731  1
  I  I188  1  0.87849948  0.75485180  0.17157639  1
  I  I189  1  0.86512108  0.74818850  0.35002016  1
  I  I190  1  0.87784312  0.74844992  0.61969163  1
  I  I191  1  0.86397505  0.75299097  0.86668810  1
  I  I192  1  0.11253778  0.10677401  -0.00145347  1
  I  I193  1  0.14538148  0.11330107  0.25262520  1
  I  I194  1  0.08822828  0.11112041  0.50244628  1
  I  I195  1  0.14225332  0.15351327  0.75013570  1
  I  I196  1  0.10061717  0.37451026  0.00000508  1
  I  I197  1  0.12836299  0.40033125  0.24837802  1
  I  I198  1  0.12542693  0.41251611  0.50870050  1
  I  I199  1  0.12764448  0.33697943  0.74875916  1
  I  I200  1  0.11780137  0.63991338  0.00071999  1
  I  I201  1  0.11769958  0.60111657  0.24676356  1
  I  I202  1  0.09786518  0.62251834  0.50024252  1
  I  I203  1  0.15346395  0.63669184  0.74917535  1
  I  I204  1  0.14840660  0.88695121  -0.00430352  1
  I  I205  1  0.12261643  0.88556810  0.24976663  1
  I  I206  1  0.15937861  0.86935428  0.50065425  1
  I  I207  1  0.08654170  0.86361603  0.74781334  1
  I  I208  1  0.36647764  0.10186273  -0.00416744  1
  I  I209  1  0.39106428  0.15299191  0.24896057  1
  I  I210  1  0.38260320  0.10088721  0.50351076  1
  I  I211  1  0.37736832  0.16986353  0.74814884  1
  I  I212  1  0.36696817  0.37470614  0.00156040  1
  I  I213  1  0.37444804  0.35437459  0.25290969  1
  I  I214  1  0.35417458  0.37904301  0.49885041  1
  I  I215  1  0.38545119  0.34991654  0.74788964  1
  I  I216  1  0.37451809  0.67443156  -0.00143206  1
  I  I217  1  0.37511225  0.60149781  0.24859482  1
  I  I218  1  0.39293438  0.65000829  0.50221138  1
  I  I219  1  0.35683059  0.58823896  0.74948366  1
  I  I220  1  0.38100723  0.84255929  0.00197795  1
  I  I221  1  0.36119296  0.89601687  0.24894302  1
  I  I222  1  0.35736366  0.88720544  0.49821490  1
  I  I223  1  0.38618601  0.88332913  0.74877394  1
  I  I224  1  0.65074935  0.11874752  -0.00006406  1
  I  I225  1  0.60457013  0.15795669  0.24945043  1
  I  I226  1  0.62486881  0.09836178  0.49841018  1
  I  I227  1  0.62521651  0.12810851  0.74886482  1
  I  I228  1  0.64194668  0.39980203  0.00272502  1
  I  I229  1  0.63419924  0.33367844  0.24839921  1
  I  I230  1  0.63280251  0.39064522  0.49824584  1
  I  I231  1  0.60500299  0.36999191  0.75099766  1
  I  I232  1  0.66688019  0.61387154  -0.00174831  1
  I  I233  1  0.61268602  0.64138801  0.24731229  1
  I  I234  1  0.61608196  0.62971263  0.50358857  1
  I  I235  1  0.60988063  0.60390472  0.75343835  1
  I  I236  1  0.58912747  0.89236535  0.00448198  1
  I  I237  1  0.65454707  0.86258177  0.24724403  1
  I  I238  1  0.62822604  0.87131482  0.49995078  1
  I  I239  1  0.62507196  0.89147820  0.75447474  1
  I  I240  1  0.86676191  0.12971476  -0.00037664  1
  I  I241  1  0.86868772  0.10868121  0.24794933  1
  I  I242  1  0.89536271  0.11909978  0.50419127  1
  I  I243  1  0.86528350  0.16344283  0.74891745  1
  I  I244  1  0.88821714  0.39715958  -0.00348492  1
  I  I245  1  0.86612934  0.36453286  0.25107935  1
  I  I246  1  0.87692693  0.39946626  0.50251708  1
  I  I247  1  0.87204185  0.33680103  0.74706977  1
  I  I248  1  0.87461624  0.61586338  0.00357914  1
  I  I249  1  0.88963122  0.60633477  0.25055136  1
  I  I250  1  0.89185905  0.61527681  0.49768219  1
  I  I251  1  0.87871050  0.63573685  0.74818316  1
  I  I252  1  0.88239806  0.82578788  0.00915197  1
  I  I253  1  0.87403217  0.92263433  0.24465196  1
  I  I254  1  0.86722427  0.86471287  0.49770215  1
  I  I255  1  0.89452248  0.86957235  0.75259151  1
  I  I256  1  -0.00328258  0.10588413  0.13401154  1
  I  I257  1  0.00025253  0.10736813  0.35255988  1
  I  I258  1  -0.00001305  0.15343461  0.64753871  1
  I  I259  1  -0.00307245  0.12845962  0.85530504  1
  I  I260  1  -0.00003725  0.37142444  0.13878360  1
  I  I261  1  0.00460072  0.38907628  0.36942905  1
  I  I262  1  0.00215361  0.34020591  0.62359896  1
  I  I263  1  0.00174533  0.39112894  0.85529958  1
  I  I264  1  -0.00440147  0.62742006  0.12148282  1
  I  I265  1  -0.00004504  0.62679583  0.36757931  1
  I  I266  1  0.00426088  0.64000002  0.64137304  1
  I  I267  1  0.00014351  0.62887920  0.86812842  1
  I  I268  1  -0.00289275  0.89457154  0.12934139  1
  I  I269  1  0.00134130  0.88154224  0.38644587  1
  I  I270  1  0.00229314  0.87036115  0.58872995  1
  I  I271  1  0.00459351  0.84938046  0.89943798  1
  I  I272  1  0.24821658  0.13177574  0.11844838  1
  I  I273  1  0.25015955  0.13314265  0.39987656  1
  I  I274  1  0.24825537  0.11147049  0.60352387  1
  I  I275  1  0.24598104  0.10939045  0.88110883  1
  I  I276  1  0.24850633  0.39476058  0.12534404  1
  I  I277  1  0.24771108  0.36829753  0.36581907  1
  I  I278  1  0.24763574  0.39912076  0.63299689  1
  I  I279  1  0.24756632  0.36115474  0.88179949  1
  I  I280  1  0.24933821  0.61576011  0.13111621  1
  I  I281  1  0.24783112  0.61773310  0.37976101  1
  I  I282  1  0.25130854  0.61248321  0.58732332  1
  I  I283  1  0.25397017  0.62096322  0.89924406  1
  I  I284  1  0.25059895  0.85253488  0.12445342  1
  I  I285  1  0.24842053  0.87681883  0.36231963  1
  I  I286  1  0.24871524  0.88489952  0.65312930  1
  I  I287  1  0.24924813  0.90656048  0.85444748  1
  I  I288  1  0.50219255  0.11508336  0.09579045  1
  I  I289  1  0.50225121  0.10452181  0.38499902  1
  I  I290  1  0.50056514  0.12228337  0.63336840  1
  I  I291  1  0.50121803  0.13468014  0.89001988  1
  I  I292  1  0.50037798  0.35525996  0.11326940  1
  I  I293  1  0.49786530  0.36135525  0.39070802  1
  I  I294  1  0.49783050  0.37693925  0.60910551  1
  I  I295  1  0.50058658  0.38497944  0.89234290  1
  I  I296  1  0.50289859  0.62663925  0.10265431  1
  I  I297  1  0.50062902  0.64221750  0.37184389  1
  I  I298  1  0.49646217  0.59901644  0.62984911  1
  I  I299  1  0.50455541  0.60776389  0.90729801  1
  I  I300  1  0.50123515  0.89547128  0.16026818  1
  I  I301  1  0.49745637  0.87020312  0.35953258  1
  I  I302  1  0.49953155  0.89817845  0.61961592  1
  I  I303  1  0.49603898  0.86348121  0.87405480  1
  I  I304  1  0.75297531  0.14315031  0.13670717  1
  I  I305  1  0.74981796  0.15026985  0.37254507  1
  I  I306  1  0.75148910  0.12339242  0.62112620  1
  I  I307  1  0.75042357  0.13774189  0.86163235  1
  I  I308  1  0.75235425  0.38880753  0.12622232  1
  I  I309  1  0.75161084  0.37991720  0.37954908  1
  I  I310  1  0.75351556  0.38495239  0.62789275  1
  I  I311  1  0.74968367  0.34905587  0.86740587  1
  I  I312  1  0.75240841  0.61722119  0.15453973  1
  I  I313  1  0.75102978  0.59548830  0.36358930  1
  I  I314  1  0.74596697  0.64216940  0.63422759  1
  I  I315  1  0.74604693  0.63538347  0.84678138  1
  I  I316  1  0.74908180  0.86128260  0.09541200  1
  I  I317  1  0.75086305  0.87282233  0.38366641  1
  I  I318  1  0.75139042  0.85355638  0.63496866  1
  I  I319  1  0.75325932  0.88493282  0.89745757  1
