# generated using pymatgen
data_Cs27Sn14Pb13I81
_symmetry_space_group_name_H-M   'P 1'
_cell_length_a   18.97504043
_cell_length_b   18.98111046
_cell_length_c   18.97504045
_cell_angle_alpha   89.99932285
_cell_angle_beta   90.00335162
_cell_angle_gamma   90.00067727
_symmetry_Int_Tables_number   1
_chemical_formula_structural   Cs27Sn14Pb13I81
_chemical_formula_sum   'Cs27 Sn14 Pb13 I81'
_cell_volume   6834.18980147
_cell_formula_units_Z   1
loop_
 _symmetry_equiv_pos_site_id
 _symmetry_equiv_pos_as_xyz
  1  'x, y, z'
loop_
 _atom_site_type_symbol
 _atom_site_label
 _atom_site_symmetry_multiplicity
 _atom_site_fract_x
 _atom_site_fract_y
 _atom_site_fract_z
 _atom_site_occupancy
  Cs  Cs0  1  -0.00320199  0.00191633  -0.00129982  1
  Cs  Cs1  1  0.00563615  0.00106108  0.33432242  1
  Cs  Cs2  1  -0.00110271  0.00033807  0.66776921  1
  Cs  Cs3  1  0.00109852  0.33449495  0.00211500  1
  Cs  Cs4  1  -0.00089121  0.33329297  0.33293206  1
  Cs  Cs5  1  0.00065057  0.33693340  0.66601616  1
  Cs  Cs6  1  0.00102799  0.66600086  -0.00027410  1
  Cs  Cs7  1  -0.00129141  0.66655082  0.33140861  1
  Cs  Cs8  1  -0.00210603  0.66382861  0.66877263  1
  Cs  Cs9  1  0.33631143  -0.00131297  0.00064804  1
  Cs  Cs10  1  0.32408689  0.00542478  0.34257997  1
  Cs  Cs11  1  0.33234427  0.00106116  0.66103032  1
  Cs  Cs12  1  0.33407243  0.33339688  -0.00035884  1
  Cs  Cs13  1  0.33236946  0.32400471  0.33429728  1
  Cs  Cs14  1  0.33373454  0.33329268  0.66755789  1
  Cs  Cs15  1  0.33452495  0.66651065  0.00000476  1
  Cs  Cs16  1  0.33498420  0.67161036  0.33168252  1
  Cs  Cs17  1  0.33525779  0.66655071  0.66795815  1
  Cs  Cs18  1  0.66702479  0.00416901  -0.00035821  1
  Cs  Cs19  1  0.66601879  -0.00131298  0.33035533  1
  Cs  Cs20  1  0.66796690  0.00191634  0.66986879  1
  Cs  Cs21  1  0.66523271  0.32915522  0.00143394  1
  Cs  Cs22  1  0.66702557  0.33339702  0.33259421  1
  Cs  Cs23  1  0.66455177  0.33449499  0.66556827  1
  Cs  Cs24  1  0.66478987  0.66721762  0.00187668  1
  Cs  Cs25  1  0.66666173  0.66651078  0.33214176  1
  Cs  Cs26  1  0.66694078  0.66600087  0.66563873  1
  Sn  Sn27  1  0.83295618  0.16663448  0.50004304  1
  Sn  Sn28  1  0.50052127  0.50060127  0.16614542  1
  Sn  Sn29  1  0.16754998  0.83325858  0.83344918  1
  Sn  Sn30  1  0.16662357  0.16663445  0.83371053  1
  Sn  Sn31  1  0.49939912  0.83239736  0.83389967  1
  Sn  Sn32  1  0.16647339  0.50080993  0.50019327  1
  Sn  Sn33  1  0.16692802  0.50028922  0.83269022  1
  Sn  Sn34  1  0.83245974  0.50091312  0.16651386  1
  Sn  Sn35  1  0.83282680  0.50006625  0.83383986  1
  Sn  Sn36  1  0.83397645  0.50028927  0.49973866  1
  Sn  Sn37  1  0.50045411  0.83275310  0.16621259  1
  Sn  Sn38  1  0.83276699  0.83239737  0.16726752  1
  Sn  Sn39  1  0.50015282  0.50091312  0.83420689  1
  Sn  Sn40  1  0.83321750  0.83325855  0.49911671  1
  Pb  Pb41  1  0.16429488  0.16942461  0.50237176  1
  Pb  Pb42  1  0.16396728  0.83057789  0.50269938  1
  Pb  Pb43  1  0.83276787  0.83162215  0.83389883  1
  Pb  Pb44  1  0.83341353  0.16654028  0.16887320  1
  Pb  Pb45  1  0.49976384  0.50001934  0.49934533  1
  Pb  Pb46  1  0.16656016  0.16653984  0.16388776  1
  Pb  Pb47  1  0.50002204  0.16601866  0.16664465  1
  Pb  Pb48  1  0.50277893  0.16653986  0.50010655  1
  Pb  Pb49  1  0.50227117  0.83328257  0.49986576  1
  Pb  Pb50  1  0.49779349  0.16654028  0.83325312  1
  Pb  Pb51  1  0.16732140  0.50001935  0.16690278  1
  Pb  Pb52  1  0.16680095  0.83328252  0.16439556  1
  Pb  Pb53  1  0.83528641  0.17005764  0.83138026  1
  I  I54  1  0.16575860  -0.00038353  0.16498014  1
  I  I55  1  0.16505662  -0.00010441  0.50161062  1
  I  I56  1  0.17071138  -0.00083864  0.83516969  1
  I  I57  1  0.16609353  0.33387424  0.16466569  1
  I  I58  1  0.16046802  0.33724662  0.50619832  1
  I  I59  1  0.16555117  0.33536630  0.82896648  1
  I  I60  1  0.16494780  0.66647548  0.16470868  1
  I  I61  1  0.16020730  0.66286448  0.50645924  1
  I  I62  1  0.16682660  0.66538625  0.82971074  1
  I  I63  1  0.50698809  -0.00410702  0.15967853  1
  I  I64  1  0.50168566  -0.00038357  0.50090814  1
  I  I65  1  0.49706621  -0.00360366  0.83749972  1
  I  I66  1  0.50478877  0.33693575  0.16187769  1
  I  I67  1  0.50200158  0.33387427  0.50057326  1
  I  I68  1  0.50007926  0.33709611  0.83665243  1
  I  I69  1  0.50554049  0.66617570  0.16112634  1
  I  I70  1  0.50195839  0.66647547  0.50171820  1
  I  I71  1  0.49534291  0.66547330  0.83677423  1
  I  I72  1  0.82916675  -0.00360367  0.16960027  1
  I  I73  1  0.83149700  -0.00083863  0.49595542  1
  I  I74  1  0.83418088  -0.00001179  0.83248569  1
  I  I75  1  0.83001417  0.33709614  0.16658737  1
  I  I76  1  0.83770008  0.33536622  0.50111534  1
  I  I77  1  0.83286567  0.33864424  0.83380107  1
  I  I78  1  0.82989276  0.66547330  0.17132408  1
  I  I79  1  0.83695596  0.66538624  0.49984008  1
  I  I80  1  0.83821417  0.66327602  0.82845231  1
  I  I81  1  0.16521816  0.17172755  -0.00457929  1
  I  I82  1  0.16685755  0.16820330  0.33408010  1
  I  I83  1  0.16570788  0.16547666  0.67010140  1
  I  I84  1  0.16324655  0.49994396  -0.00359334  1
  I  I85  1  0.16093537  0.49949001  0.33611727  1
  I  I86  1  0.16216752  0.50003821  0.66839353  1
  I  I87  1  0.16458694  0.82854421  -0.00407991  1
  I  I88  1  0.16909522  0.83228853  0.33365008  1
  I  I89  1  0.17136807  0.83432622  0.67083990  1
  I  I90  1  0.50035456  0.16771036  -0.00024698  1
  I  I91  1  0.49896641  0.16860094  0.33320029  1
  I  I92  1  0.50071805  0.16738055  0.66706259  1
  I  I93  1  0.50270958  0.50349889  -0.00103558  1
  I  I94  1  0.50460966  0.50504851  0.32987232  1
  I  I95  1  0.50223160  0.50360921  0.66989924  1
  I  I96  1  0.50173926  0.82841369  -0.00047571  1
  I  I97  1  0.50456095  0.82645221  0.32981629  1
  I  I98  1  0.49734604  0.82840548  0.66999481  1
  I  I99  1  0.83489820  0.16646609  -0.00017110  1
  I  I100  1  0.83441933  0.17299729  0.33673661  1
  I  I101  1  0.83425882  0.16517672  0.66351237  1
  I  I102  1  0.83456795  0.50540690  0.00002794  1
  I  I103  1  0.83374737  0.50008642  0.33349865  1
  I  I104  1  0.83467737  0.50031410  0.66663827  1
  I  I105  1  0.83363733  0.82757973  0.00260435  1
  I  I106  1  0.82765602  0.82770978  0.33281947  1
  I  I107  1  0.83439198  0.83170594  0.66461697  1
  I  I108  1  -0.00039595  0.16738040  0.16594833  1
  I  I109  1  -0.00343473  0.16547632  0.50095928  1
  I  I110  1  0.00315432  0.16517665  0.83240752  1
  I  I111  1  -0.00323259  0.50360883  0.16443494  1
  I  I112  1  -0.00172688  0.50003823  0.50449929  1
  I  I113  1  0.00002842  0.50031423  0.83198925  1
  I  I114  1  -0.00332815  0.82840591  0.16932028  1
  I  I115  1  -0.00417327  0.83432649  0.49529883  1
  I  I116  1  0.00204971  0.83170591  0.83227462  1
  I  I117  1  0.33346639  0.16860083  0.16769992  1
  I  I118  1  0.33258659  0.16820397  0.49980901  1
  I  I119  1  0.32993007  0.17299757  0.83224780  1
  I  I120  1  0.33679439  0.50504884  0.16205678  1
  I  I121  1  0.33054937  0.49948985  0.50573115  1
  I  I122  1  0.33316804  0.50008664  0.83291947  1
  I  I123  1  0.33685043  0.82645193  0.16210562  1
  I  I124  1  0.33301659  0.83228801  0.49757120  1
  I  I125  1  0.33384722  0.82770957  0.83901103  1
  I  I126  1  0.66691361  0.16771047  0.16631255  1
  I  I127  1  0.67124597  0.17172698  0.50144819  1
  I  I128  1  0.66683778  0.16646611  0.83176827  1
  I  I129  1  0.66770227  0.50349891  0.16395727  1
  I  I130  1  0.67025999  0.49994409  0.50342008  1
  I  I131  1  0.66663877  0.50540672  0.83209859  1
  I  I132  1  0.66714238  0.82841349  0.16492789  1
  I  I133  1  0.67074663  0.82854449  0.50207956  1
  I  I134  1  0.66406236  0.82757992  0.83302888  1
