# generated using pymatgen
data_Sr7.2Ca14.4Pr50.4Mn72O216
_symmetry_space_group_name_H-M   'P 1'
_cell_length_a   16.30890000
_cell_length_b   16.33860000
_cell_length_c   15.35360000
_cell_angle_alpha   90.00000000
_cell_angle_beta   90.00000000
_cell_angle_gamma   90.00000000
_symmetry_Int_Tables_number   1
_chemical_formula_structural   Sr7.2Ca14.4Pr50.4Mn72O216
_chemical_formula_sum   'Sr7.2 Ca14.4 Pr50.4 Mn72 O216'
_cell_volume   4091.19078338
_cell_formula_units_Z   1
loop_
 _symmetry_equiv_pos_site_id
 _symmetry_equiv_pos_as_xyz
  1  'x, y, z'
loop_
 _atom_type_symbol
 _atom_type_oxidation_number
  Sr2+  2.0
  Ca2+  2.0
  Pr3+  3.0
  Mn3.30+  3.3
  O2-  -2.0
loop_
 _atom_site_type_symbol
 _atom_site_label
 _atom_site_symmetry_multiplicity
 _atom_site_fract_x
 _atom_site_fract_y
 _atom_site_fract_z
 _atom_site_occupancy
  Sr2+  Sr1  1  0.33520000  0.01020000  0.62500000  1.0
  Sr2+  Sr1  1  0.33146667  0.65646667  0.87500000  1.0
  Sr2+  Sr1  1  0.83520000  0.15646667  0.37500000  1.0
  Sr2+  Sr1  1  0.16480000  0.17686667  0.12500000  1.0
  Sr2+  Sr1  1  0.83146667  0.51020000  0.62500000  1.0
  Sr2+  Sr1  1  0.50186667  0.15646667  0.37500000  1.0
  Sr2+  Sr1  1  0.49813333  0.51020000  0.12500000  1.0
  Ca2+  Sr1  1  0.33146667  0.65646667  0.37500000  1.0
  Ca2+  Sr1  1  0.66480000  0.98980000  0.37500000  1.0
  Ca2+  Sr1  1  0.83146667  0.84353333  0.12500000  1.0
  Ca2+  Sr1  1  0.99813333  0.32313333  0.87500000  1.0
  Ca2+  Sr1  1  0.16480000  0.51020000  0.12500000  1.0
  Ca2+  Sr1  1  0.33520000  0.67686667  0.62500000  1.0
  Ca2+  Sr1  1  0.33520000  0.34353333  0.12500000  1.0
  Ca2+  Sr1  1  0.83520000  0.15646667  0.87500000  1.0
  Ca2+  Sr1  1  0.33520000  0.67686667  0.12500000  1.0
  Ca2+  Sr1  1  0.16853333  0.82313333  0.37500000  1.0
  Ca2+  Sr1  1  0.66853333  0.01020000  0.62500000  1.0
  Ca2+  Sr1  1  0.99813333  0.98980000  0.37500000  1.0
  Ca2+  Sr1  1  0.99813333  0.32313333  0.37500000  1.0
  Ca2+  Sr1  1  0.66480000  0.65646667  0.87500000  1.0
  Ca2+  Sr1  1  0.99813333  0.65646667  0.87500000  1.0
  Pr3+  Sr1  1  0.83146667  0.17686667  0.62500000  1.0
  Pr3+  Sr1  1  0.66853333  0.67686667  0.12500000  1.0
  Pr3+  Sr1  1  0.49813333  0.51020000  0.62500000  1.0
  Pr3+  Sr1  1  0.16480000  0.84353333  0.12500000  1.0
  Pr3+  Sr1  1  0.66853333  0.67686667  0.62500000  1.0
  Pr3+  Sr1  1  0.16480000  0.84353333  0.62500000  1.0
  Pr3+  Sr1  1  0.33146667  0.32313333  0.87500000  1.0
  Pr3+  Sr1  1  0.50186667  0.82313333  0.37500000  1.0
  Pr3+  Sr1  1  0.16853333  0.82313333  0.87500000  1.0
  Pr3+  Sr1  1  0.33146667  0.98980000  0.87500000  1.0
  Pr3+  Sr1  1  0.83146667  0.84353333  0.62500000  1.0
  Pr3+  Sr1  1  0.50186667  0.48980000  0.37500000  1.0
  Pr3+  Sr1  1  0.83520000  0.82313333  0.37500000  1.0
  Pr3+  Sr1  1  0.00186667  0.67686667  0.12500000  1.0
  Pr3+  Sr1  1  0.50186667  0.15646667  0.87500000  1.0
  Pr3+  Sr1  1  0.83520000  0.48980000  0.37500000  1.0
  Pr3+  Sr1  1  0.83146667  0.17686667  0.12500000  1.0
  Pr3+  Sr1  1  0.33520000  0.34353333  0.62500000  1.0
  Pr3+  Sr1  1  0.66853333  0.34353333  0.12500000  1.0
  Pr3+  Sr1  1  0.49813333  0.84353333  0.62500000  1.0
  Pr3+  Sr1  1  0.16853333  0.15646667  0.87500000  1.0
  Pr3+  Sr1  1  0.83146667  0.51020000  0.12500000  1.0
  Pr3+  Sr1  1  0.16853333  0.15646667  0.37500000  1.0
  Pr3+  Sr1  1  0.99813333  0.98980000  0.87500000  1.0
  Pr3+  Sr1  1  0.49813333  0.17686667  0.12500000  1.0
  Pr3+  Sr1  1  0.66480000  0.98980000  0.87500000  1.0
  Pr3+  Sr1  1  0.16853333  0.48980000  0.37500000  1.0
  Pr3+  Sr1  1  0.00186667  0.01020000  0.62500000  1.0
  Pr3+  Sr1  1  0.00186667  0.67686667  0.62500000  1.0
  Pr3+  Sr1  1  0.00186667  0.01020000  0.12500000  1.0
  Pr3+  Sr1  1  0.16480000  0.51020000  0.62500000  1.0
  Pr3+  Sr1  1  0.83520000  0.48980000  0.87500000  1.0
  Pr3+  Sr1  1  0.33146667  0.32313333  0.37500000  1.0
  Pr3+  Sr1  1  0.99813333  0.65646667  0.37500000  1.0
  Pr3+  Sr1  1  0.50186667  0.48980000  0.87500000  1.0
  Pr3+  Sr1  1  0.66853333  0.01020000  0.12500000  1.0
  Pr3+  Sr1  1  0.49813333  0.84353333  0.12500000  1.0
  Pr3+  Sr1  1  0.49813333  0.17686667  0.62500000  1.0
  Pr3+  Sr1  1  0.66480000  0.65646667  0.37500000  1.0
  Pr3+  Sr1  1  0.16480000  0.17686667  0.62500000  1.0
  Pr3+  Sr1  1  0.66480000  0.32313333  0.37500000  1.0
  Pr3+  Sr1  1  0.66853333  0.34353333  0.62500000  1.0
  Pr3+  Sr1  1  0.00186667  0.34353333  0.62500000  1.0
  Pr3+  Sr1  1  0.33520000  0.01020000  0.12500000  1.0
  Pr3+  Sr1  1  0.50186667  0.82313333  0.87500000  1.0
  Pr3+  Sr1  1  0.83520000  0.82313333  0.87500000  1.0
  Pr3+  Sr1  1  0.00186667  0.34353333  0.12500000  1.0
  Pr3+  Sr1  1  0.33146667  0.98980000  0.37500000  1.0
  Pr3+  Sr1  1  0.66480000  0.32313333  0.87500000  1.0
  Pr3+  Sr1  1  0.16853333  0.48980000  0.87500000  1.0
  Mn3.30+  Mn1  1  0.16666667  0.00000000  0.00000000  1.0
  Mn3.30+  Mn1  1  0.16666667  0.00000000  0.50000000  1.0
  Mn3.30+  Mn1  1  0.16666667  0.33333333  0.00000000  1.0
  Mn3.30+  Mn1  1  0.16666667  0.33333333  0.50000000  1.0
  Mn3.30+  Mn1  1  0.16666667  0.66666667  0.00000000  1.0
  Mn3.30+  Mn1  1  0.16666667  0.66666667  0.50000000  1.0
  Mn3.30+  Mn1  1  0.50000000  0.00000000  0.00000000  1.0
  Mn3.30+  Mn1  1  0.50000000  0.00000000  0.50000000  1.0
  Mn3.30+  Mn1  1  0.50000000  0.33333333  0.00000000  1.0
  Mn3.30+  Mn1  1  0.50000000  0.33333333  0.50000000  1.0
  Mn3.30+  Mn1  1  0.50000000  0.66666667  0.00000000  1.0
  Mn3.30+  Mn1  1  0.50000000  0.66666667  0.50000000  1.0
  Mn3.30+  Mn1  1  0.83333333  0.00000000  0.00000000  1.0
  Mn3.30+  Mn1  1  0.83333333  0.00000000  0.50000000  1.0
  Mn3.30+  Mn1  1  0.83333333  0.33333333  0.00000000  1.0
  Mn3.30+  Mn1  1  0.83333333  0.33333333  0.50000000  1.0
  Mn3.30+  Mn1  1  0.83333333  0.66666667  0.00000000  1.0
  Mn3.30+  Mn1  1  0.83333333  0.66666667  0.50000000  1.0
  Mn3.30+  Mn1  1  0.00000000  0.16666667  0.25000000  1.0
  Mn3.30+  Mn1  1  0.00000000  0.16666667  0.75000000  1.0
  Mn3.30+  Mn1  1  0.00000000  0.50000000  0.25000000  1.0
  Mn3.30+  Mn1  1  0.00000000  0.50000000  0.75000000  1.0
  Mn3.30+  Mn1  1  0.00000000  0.83333333  0.25000000  1.0
  Mn3.30+  Mn1  1  0.00000000  0.83333333  0.75000000  1.0
  Mn3.30+  Mn1  1  0.33333333  0.16666667  0.25000000  1.0
  Mn3.30+  Mn1  1  0.33333333  0.16666667  0.75000000  1.0
  Mn3.30+  Mn1  1  0.33333333  0.50000000  0.25000000  1.0
  Mn3.30+  Mn1  1  0.33333333  0.50000000  0.75000000  1.0
  Mn3.30+  Mn1  1  0.33333333  0.83333333  0.25000000  1.0
  Mn3.30+  Mn1  1  0.33333333  0.83333333  0.75000000  1.0
  Mn3.30+  Mn1  1  0.66666667  0.16666667  0.25000000  1.0
  Mn3.30+  Mn1  1  0.66666667  0.16666667  0.75000000  1.0
  Mn3.30+  Mn1  1  0.66666667  0.50000000  0.25000000  1.0
  Mn3.30+  Mn1  1  0.66666667  0.50000000  0.75000000  1.0
  Mn3.30+  Mn1  1  0.66666667  0.83333333  0.25000000  1.0
  Mn3.30+  Mn1  1  0.66666667  0.83333333  0.75000000  1.0
  Mn3.30+  Mn1  1  0.16666667  0.00000000  0.25000000  1.0
  Mn3.30+  Mn1  1  0.16666667  0.00000000  0.75000000  1.0
  Mn3.30+  Mn1  1  0.16666667  0.33333333  0.25000000  1.0
  Mn3.30+  Mn1  1  0.16666667  0.33333333  0.75000000  1.0
  Mn3.30+  Mn1  1  0.16666667  0.66666667  0.25000000  1.0
  Mn3.30+  Mn1  1  0.16666667  0.66666667  0.75000000  1.0
  Mn3.30+  Mn1  1  0.50000000  0.00000000  0.25000000  1.0
  Mn3.30+  Mn1  1  0.50000000  0.00000000  0.75000000  1.0
  Mn3.30+  Mn1  1  0.50000000  0.33333333  0.25000000  1.0
  Mn3.30+  Mn1  1  0.50000000  0.33333333  0.75000000  1.0
  Mn3.30+  Mn1  1  0.50000000  0.66666667  0.25000000  1.0
  Mn3.30+  Mn1  1  0.50000000  0.66666667  0.75000000  1.0
  Mn3.30+  Mn1  1  0.83333333  0.00000000  0.25000000  1.0
  Mn3.30+  Mn1  1  0.83333333  0.00000000  0.75000000  1.0
  Mn3.30+  Mn1  1  0.83333333  0.33333333  0.25000000  1.0
  Mn3.30+  Mn1  1  0.83333333  0.33333333  0.75000000  1.0
  Mn3.30+  Mn1  1  0.83333333  0.66666667  0.25000000  1.0
  Mn3.30+  Mn1  1  0.83333333  0.66666667  0.75000000  1.0
  Mn3.30+  Mn1  1  0.00000000  0.16666667  0.00000000  1.0
  Mn3.30+  Mn1  1  0.00000000  0.16666667  0.50000000  1.0
  Mn3.30+  Mn1  1  0.00000000  0.50000000  0.00000000  1.0
  Mn3.30+  Mn1  1  0.00000000  0.50000000  0.50000000  1.0
  Mn3.30+  Mn1  1  0.00000000  0.83333333  0.00000000  1.0
  Mn3.30+  Mn1  1  0.00000000  0.83333333  0.50000000  1.0
  Mn3.30+  Mn1  1  0.33333333  0.16666667  0.00000000  1.0
  Mn3.30+  Mn1  1  0.33333333  0.16666667  0.50000000  1.0
  Mn3.30+  Mn1  1  0.33333333  0.50000000  0.00000000  1.0
  Mn3.30+  Mn1  1  0.33333333  0.50000000  0.50000000  1.0
  Mn3.30+  Mn1  1  0.33333333  0.83333333  0.00000000  1.0
  Mn3.30+  Mn1  1  0.33333333  0.83333333  0.50000000  1.0
  Mn3.30+  Mn1  1  0.66666667  0.16666667  0.00000000  1.0
  Mn3.30+  Mn1  1  0.66666667  0.16666667  0.50000000  1.0
  Mn3.30+  Mn1  1  0.66666667  0.50000000  0.00000000  1.0
  Mn3.30+  Mn1  1  0.66666667  0.50000000  0.50000000  1.0
  Mn3.30+  Mn1  1  0.66666667  0.83333333  0.00000000  1.0
  Mn3.30+  Mn1  1  0.66666667  0.83333333  0.50000000  1.0
  O2-  O1  1  0.02256667  0.16300000  0.12500000  1.0
  O2-  O1  1  0.02256667  0.16300000  0.62500000  1.0
  O2-  O1  1  0.02256667  0.49633333  0.12500000  1.0
  O2-  O1  1  0.02256667  0.49633333  0.62500000  1.0
  O2-  O1  1  0.02256667  0.82966667  0.12500000  1.0
  O2-  O1  1  0.02256667  0.82966667  0.62500000  1.0
  O2-  O1  1  0.35590000  0.16300000  0.12500000  1.0
  O2-  O1  1  0.35590000  0.16300000  0.62500000  1.0
  O2-  O1  1  0.35590000  0.49633333  0.12500000  1.0
  O2-  O1  1  0.35590000  0.49633333  0.62500000  1.0
  O2-  O1  1  0.35590000  0.82966667  0.12500000  1.0
  O2-  O1  1  0.35590000  0.82966667  0.62500000  1.0
  O2-  O1  1  0.68923333  0.16300000  0.12500000  1.0
  O2-  O1  1  0.68923333  0.16300000  0.62500000  1.0
  O2-  O1  1  0.68923333  0.49633333  0.12500000  1.0
  O2-  O1  1  0.68923333  0.49633333  0.62500000  1.0
  O2-  O1  1  0.68923333  0.82966667  0.12500000  1.0
  O2-  O1  1  0.68923333  0.82966667  0.62500000  1.0
  O2-  O1  1  0.14410000  0.32966667  0.12500000  1.0
  O2-  O1  1  0.14410000  0.32966667  0.62500000  1.0
  O2-  O1  1  0.14410000  0.66300000  0.12500000  1.0
  O2-  O1  1  0.14410000  0.66300000  0.62500000  1.0
  O2-  O1  1  0.14410000  0.99633333  0.12500000  1.0
  O2-  O1  1  0.14410000  0.99633333  0.62500000  1.0
  O2-  O1  1  0.47743333  0.32966667  0.12500000  1.0
  O2-  O1  1  0.47743333  0.32966667  0.62500000  1.0
  O2-  O1  1  0.47743333  0.66300000  0.12500000  1.0
  O2-  O1  1  0.47743333  0.66300000  0.62500000  1.0
  O2-  O1  1  0.47743333  0.99633333  0.12500000  1.0
  O2-  O1  1  0.47743333  0.99633333  0.62500000  1.0
  O2-  O1  1  0.81076667  0.32966667  0.12500000  1.0
  O2-  O1  1  0.81076667  0.32966667  0.62500000  1.0
  O2-  O1  1  0.81076667  0.66300000  0.12500000  1.0
  O2-  O1  1  0.81076667  0.66300000  0.62500000  1.0
  O2-  O1  1  0.81076667  0.99633333  0.12500000  1.0
  O2-  O1  1  0.81076667  0.99633333  0.62500000  1.0
  O2-  O1  1  0.31076667  0.17033333  0.37500000  1.0
  O2-  O1  1  0.31076667  0.17033333  0.87500000  1.0
  O2-  O1  1  0.31076667  0.50366667  0.37500000  1.0
  O2-  O1  1  0.31076667  0.50366667  0.87500000  1.0
  O2-  O1  1  0.31076667  0.83700000  0.37500000  1.0
  O2-  O1  1  0.31076667  0.83700000  0.87500000  1.0
  O2-  O1  1  0.64410000  0.17033333  0.37500000  1.0
  O2-  O1  1  0.64410000  0.17033333  0.87500000  1.0
  O2-  O1  1  0.64410000  0.50366667  0.37500000  1.0
  O2-  O1  1  0.64410000  0.50366667  0.87500000  1.0
  O2-  O1  1  0.64410000  0.83700000  0.37500000  1.0
  O2-  O1  1  0.64410000  0.83700000  0.87500000  1.0
  O2-  O1  1  0.97743333  0.17033333  0.37500000  1.0
  O2-  O1  1  0.97743333  0.17033333  0.87500000  1.0
  O2-  O1  1  0.97743333  0.50366667  0.37500000  1.0
  O2-  O1  1  0.97743333  0.50366667  0.87500000  1.0
  O2-  O1  1  0.97743333  0.83700000  0.37500000  1.0
  O2-  O1  1  0.97743333  0.83700000  0.87500000  1.0
  O2-  O1  1  0.18923333  0.00366667  0.37500000  1.0
  O2-  O1  1  0.18923333  0.00366667  0.87500000  1.0
  O2-  O1  1  0.18923333  0.33700000  0.37500000  1.0
  O2-  O1  1  0.18923333  0.33700000  0.87500000  1.0
  O2-  O1  1  0.18923333  0.67033333  0.37500000  1.0
  O2-  O1  1  0.18923333  0.67033333  0.87500000  1.0
  O2-  O1  1  0.52256667  0.00366667  0.37500000  1.0
  O2-  O1  1  0.52256667  0.00366667  0.87500000  1.0
  O2-  O1  1  0.52256667  0.33700000  0.37500000  1.0
  O2-  O1  1  0.52256667  0.33700000  0.87500000  1.0
  O2-  O1  1  0.52256667  0.67033333  0.37500000  1.0
  O2-  O1  1  0.52256667  0.67033333  0.87500000  1.0
  O2-  O1  1  0.85590000  0.00366667  0.37500000  1.0
  O2-  O1  1  0.85590000  0.00366667  0.87500000  1.0
  O2-  O1  1  0.85590000  0.33700000  0.37500000  1.0
  O2-  O1  1  0.85590000  0.33700000  0.87500000  1.0
  O2-  O1  1  0.85590000  0.67033333  0.37500000  1.0
  O2-  O1  1  0.85590000  0.67033333  0.87500000  1.0
  O2-  O2  1  0.23903333  0.09470000  0.01755000  1.0
  O2-  O2  1  0.23903333  0.09470000  0.51755000  1.0
  O2-  O2  1  0.23903333  0.42803333  0.01755000  1.0
  O2-  O2  1  0.23903333  0.42803333  0.51755000  1.0
  O2-  O2  1  0.23903333  0.76136667  0.01755000  1.0
  O2-  O2  1  0.23903333  0.76136667  0.51755000  1.0
  O2-  O2  1  0.57236667  0.09470000  0.01755000  1.0
  O2-  O2  1  0.57236667  0.09470000  0.51755000  1.0
  O2-  O2  1  0.57236667  0.42803333  0.01755000  1.0
  O2-  O2  1  0.57236667  0.42803333  0.51755000  1.0
  O2-  O2  1  0.57236667  0.76136667  0.01755000  1.0
  O2-  O2  1  0.57236667  0.76136667  0.51755000  1.0
  O2-  O2  1  0.90570000  0.09470000  0.01755000  1.0
  O2-  O2  1  0.90570000  0.09470000  0.51755000  1.0
  O2-  O2  1  0.90570000  0.42803333  0.01755000  1.0
  O2-  O2  1  0.90570000  0.42803333  0.51755000  1.0
  O2-  O2  1  0.90570000  0.76136667  0.01755000  1.0
  O2-  O2  1  0.90570000  0.76136667  0.51755000  1.0
  O2-  O2  1  0.26096667  0.26136667  0.23245000  1.0
  O2-  O2  1  0.26096667  0.26136667  0.73245000  1.0
  O2-  O2  1  0.26096667  0.59470000  0.23245000  1.0
  O2-  O2  1  0.26096667  0.59470000  0.73245000  1.0
  O2-  O2  1  0.26096667  0.92803333  0.23245000  1.0
  O2-  O2  1  0.26096667  0.92803333  0.73245000  1.0
  O2-  O2  1  0.59430000  0.26136667  0.23245000  1.0
  O2-  O2  1  0.59430000  0.26136667  0.73245000  1.0
  O2-  O2  1  0.59430000  0.59470000  0.23245000  1.0
  O2-  O2  1  0.59430000  0.59470000  0.73245000  1.0
  O2-  O2  1  0.59430000  0.92803333  0.23245000  1.0
  O2-  O2  1  0.59430000  0.92803333  0.73245000  1.0
  O2-  O2  1  0.92763333  0.26136667  0.23245000  1.0
  O2-  O2  1  0.92763333  0.26136667  0.73245000  1.0
  O2-  O2  1  0.92763333  0.59470000  0.23245000  1.0
  O2-  O2  1  0.92763333  0.59470000  0.73245000  1.0
  O2-  O2  1  0.92763333  0.92803333  0.23245000  1.0
  O2-  O2  1  0.92763333  0.92803333  0.73245000  1.0
  O2-  O2  1  0.09430000  0.23863333  0.26755000  1.0
  O2-  O2  1  0.09430000  0.23863333  0.76755000  1.0
  O2-  O2  1  0.09430000  0.57196667  0.26755000  1.0
  O2-  O2  1  0.09430000  0.57196667  0.76755000  1.0
  O2-  O2  1  0.09430000  0.90530000  0.26755000  1.0
  O2-  O2  1  0.09430000  0.90530000  0.76755000  1.0
  O2-  O2  1  0.42763333  0.23863333  0.26755000  1.0
  O2-  O2  1  0.42763333  0.23863333  0.76755000  1.0
  O2-  O2  1  0.42763333  0.57196667  0.26755000  1.0
  O2-  O2  1  0.42763333  0.57196667  0.76755000  1.0
  O2-  O2  1  0.42763333  0.90530000  0.26755000  1.0
  O2-  O2  1  0.42763333  0.90530000  0.76755000  1.0
  O2-  O2  1  0.76096667  0.23863333  0.26755000  1.0
  O2-  O2  1  0.76096667  0.23863333  0.76755000  1.0
  O2-  O2  1  0.76096667  0.57196667  0.26755000  1.0
  O2-  O2  1  0.76096667  0.57196667  0.76755000  1.0
  O2-  O2  1  0.76096667  0.90530000  0.26755000  1.0
  O2-  O2  1  0.76096667  0.90530000  0.76755000  1.0
  O2-  O2  1  0.07236667  0.07196667  0.48245000  1.0
  O2-  O2  1  0.07236667  0.07196667  0.98245000  1.0
  O2-  O2  1  0.07236667  0.40530000  0.48245000  1.0
  O2-  O2  1  0.07236667  0.40530000  0.98245000  1.0
  O2-  O2  1  0.07236667  0.73863333  0.48245000  1.0
  O2-  O2  1  0.07236667  0.73863333  0.98245000  1.0
  O2-  O2  1  0.40570000  0.07196667  0.48245000  1.0
  O2-  O2  1  0.40570000  0.07196667  0.98245000  1.0
  O2-  O2  1  0.40570000  0.40530000  0.48245000  1.0
  O2-  O2  1  0.40570000  0.40530000  0.98245000  1.0
  O2-  O2  1  0.40570000  0.73863333  0.48245000  1.0
  O2-  O2  1  0.40570000  0.73863333  0.98245000  1.0
  O2-  O2  1  0.73903333  0.07196667  0.48245000  1.0
  O2-  O2  1  0.73903333  0.07196667  0.98245000  1.0
  O2-  O2  1  0.73903333  0.40530000  0.48245000  1.0
  O2-  O2  1  0.73903333  0.40530000  0.98245000  1.0
  O2-  O2  1  0.73903333  0.73863333  0.48245000  1.0
  O2-  O2  1  0.73903333  0.73863333  0.98245000  1.0
  O2-  O2  1  0.09430000  0.23863333  0.48245000  1.0
  O2-  O2  1  0.09430000  0.23863333  0.98245000  1.0
  O2-  O2  1  0.09430000  0.57196667  0.48245000  1.0
  O2-  O2  1  0.09430000  0.57196667  0.98245000  1.0
  O2-  O2  1  0.09430000  0.90530000  0.48245000  1.0
  O2-  O2  1  0.09430000  0.90530000  0.98245000  1.0
  O2-  O2  1  0.42763333  0.23863333  0.48245000  1.0
  O2-  O2  1  0.42763333  0.23863333  0.98245000  1.0
  O2-  O2  1  0.42763333  0.57196667  0.48245000  1.0
  O2-  O2  1  0.42763333  0.57196667  0.98245000  1.0
  O2-  O2  1  0.42763333  0.90530000  0.48245000  1.0
  O2-  O2  1  0.42763333  0.90530000  0.98245000  1.0
  O2-  O2  1  0.76096667  0.23863333  0.48245000  1.0
  O2-  O2  1  0.76096667  0.23863333  0.98245000  1.0
  O2-  O2  1  0.76096667  0.57196667  0.48245000  1.0
  O2-  O2  1  0.76096667  0.57196667  0.98245000  1.0
  O2-  O2  1  0.76096667  0.90530000  0.48245000  1.0
  O2-  O2  1  0.76096667  0.90530000  0.98245000  1.0
  O2-  O2  1  0.07236667  0.07196667  0.26755000  1.0
  O2-  O2  1  0.07236667  0.07196667  0.76755000  1.0
  O2-  O2  1  0.07236667  0.40530000  0.26755000  1.0
  O2-  O2  1  0.07236667  0.40530000  0.76755000  1.0
  O2-  O2  1  0.07236667  0.73863333  0.26755000  1.0
  O2-  O2  1  0.07236667  0.73863333  0.76755000  1.0
  O2-  O2  1  0.40570000  0.07196667  0.26755000  1.0
  O2-  O2  1  0.40570000  0.07196667  0.76755000  1.0
  O2-  O2  1  0.40570000  0.40530000  0.26755000  1.0
  O2-  O2  1  0.40570000  0.40530000  0.76755000  1.0
  O2-  O2  1  0.40570000  0.73863333  0.26755000  1.0
  O2-  O2  1  0.40570000  0.73863333  0.76755000  1.0
  O2-  O2  1  0.73903333  0.07196667  0.26755000  1.0
  O2-  O2  1  0.73903333  0.07196667  0.76755000  1.0
  O2-  O2  1  0.73903333  0.40530000  0.26755000  1.0
  O2-  O2  1  0.73903333  0.40530000  0.76755000  1.0
  O2-  O2  1  0.73903333  0.73863333  0.26755000  1.0
  O2-  O2  1  0.73903333  0.73863333  0.76755000  1.0
  O2-  O2  1  0.23903333  0.09470000  0.23245000  1.0
  O2-  O2  1  0.23903333  0.09470000  0.73245000  1.0
  O2-  O2  1  0.23903333  0.42803333  0.23245000  1.0
  O2-  O2  1  0.23903333  0.42803333  0.73245000  1.0
  O2-  O2  1  0.23903333  0.76136667  0.23245000  1.0
  O2-  O2  1  0.23903333  0.76136667  0.73245000  1.0
  O2-  O2  1  0.57236667  0.09470000  0.23245000  1.0
  O2-  O2  1  0.57236667  0.09470000  0.73245000  1.0
  O2-  O2  1  0.57236667  0.42803333  0.23245000  1.0
  O2-  O2  1  0.57236667  0.42803333  0.73245000  1.0
  O2-  O2  1  0.57236667  0.76136667  0.23245000  1.0
  O2-  O2  1  0.57236667  0.76136667  0.73245000  1.0
  O2-  O2  1  0.90570000  0.09470000  0.23245000  1.0
  O2-  O2  1  0.90570000  0.09470000  0.73245000  1.0
  O2-  O2  1  0.90570000  0.42803333  0.23245000  1.0
  O2-  O2  1  0.90570000  0.42803333  0.73245000  1.0
  O2-  O2  1  0.90570000  0.76136667  0.23245000  1.0
  O2-  O2  1  0.90570000  0.76136667  0.73245000  1.0
  O2-  O2  1  0.26096667  0.26136667  0.01755000  1.0
  O2-  O2  1  0.26096667  0.26136667  0.51755000  1.0
  O2-  O2  1  0.26096667  0.59470000  0.01755000  1.0
  O2-  O2  1  0.26096667  0.59470000  0.51755000  1.0
  O2-  O2  1  0.26096667  0.92803333  0.01755000  1.0
  O2-  O2  1  0.26096667  0.92803333  0.51755000  1.0
  O2-  O2  1  0.59430000  0.26136667  0.01755000  1.0
  O2-  O2  1  0.59430000  0.26136667  0.51755000  1.0
  O2-  O2  1  0.59430000  0.59470000  0.01755000  1.0
  O2-  O2  1  0.59430000  0.59470000  0.51755000  1.0
  O2-  O2  1  0.59430000  0.92803333  0.01755000  1.0
  O2-  O2  1  0.59430000  0.92803333  0.51755000  1.0
  O2-  O2  1  0.92763333  0.26136667  0.01755000  1.0
  O2-  O2  1  0.92763333  0.26136667  0.51755000  1.0
  O2-  O2  1  0.92763333  0.59470000  0.01755000  1.0
  O2-  O2  1  0.92763333  0.59470000  0.51755000  1.0
  O2-  O2  1  0.92763333  0.92803333  0.01755000  1.0
  O2-  O2  1  0.92763333  0.92803333  0.51755000  1.0
