# generated using pymatgen
data_H8PbC4(N3Cl2)2
_symmetry_space_group_name_H-M   'P 1'
_cell_length_a   16.61200000
_cell_length_b   22.48770000
_cell_length_c   21.58140000
_cell_angle_alpha   90.00000000
_cell_angle_beta   90.00000000
_cell_angle_gamma   90.00000000
_symmetry_Int_Tables_number   1
_chemical_formula_structural   H8PbC4(N3Cl2)2
_chemical_formula_sum   'H192 Pb24 C96 N144 Cl96'
_cell_volume   8062.07020233
_cell_formula_units_Z   24
loop_
 _symmetry_equiv_pos_site_id
 _symmetry_equiv_pos_as_xyz
  1  'x, y, z'
loop_
 _atom_site_type_symbol
 _atom_site_label
 _atom_site_symmetry_multiplicity
 _atom_site_fract_x
 _atom_site_fract_y
 _atom_site_fract_z
 _atom_site_occupancy
  H  H1  1  0.00000000  0.03851133  0.67459300  1.0
  H  H1  1  0.00000000  0.37184467  0.67459300  1.0
  H  H1  1  0.00000000  0.70517800  0.67459300  1.0
  H  H1  1  0.50000000  0.03851133  0.67459300  1.0
  H  H1  1  0.50000000  0.37184467  0.67459300  1.0
  H  H1  1  0.50000000  0.70517800  0.67459300  1.0
  H  H1  1  0.00000000  0.29482200  0.17459300  1.0
  H  H1  1  0.00000000  0.62815533  0.17459300  1.0
  H  H1  1  0.00000000  0.96148867  0.17459300  1.0
  H  H1  1  0.50000000  0.29482200  0.17459300  1.0
  H  H1  1  0.50000000  0.62815533  0.17459300  1.0
  H  H1  1  0.50000000  0.96148867  0.17459300  1.0
  H  H1  1  0.00000000  0.03851133  0.82540700  1.0
  H  H1  1  0.00000000  0.37184467  0.82540700  1.0
  H  H1  1  0.00000000  0.70517800  0.82540700  1.0
  H  H1  1  0.50000000  0.03851133  0.82540700  1.0
  H  H1  1  0.50000000  0.37184467  0.82540700  1.0
  H  H1  1  0.50000000  0.70517800  0.82540700  1.0
  H  H1  1  0.00000000  0.29482200  0.32540700  1.0
  H  H1  1  0.00000000  0.62815533  0.32540700  1.0
  H  H1  1  0.00000000  0.96148867  0.32540700  1.0
  H  H1  1  0.50000000  0.29482200  0.32540700  1.0
  H  H1  1  0.50000000  0.62815533  0.32540700  1.0
  H  H1  1  0.50000000  0.96148867  0.32540700  1.0
  H  H1  1  0.25000000  0.20517800  0.67459300  1.0
  H  H1  1  0.25000000  0.53851133  0.67459300  1.0
  H  H1  1  0.25000000  0.87184467  0.67459300  1.0
  H  H1  1  0.75000000  0.20517800  0.67459300  1.0
  H  H1  1  0.75000000  0.53851133  0.67459300  1.0
  H  H1  1  0.75000000  0.87184467  0.67459300  1.0
  H  H1  1  0.25000000  0.12815533  0.17459300  1.0
  H  H1  1  0.25000000  0.46148867  0.17459300  1.0
  H  H1  1  0.25000000  0.79482200  0.17459300  1.0
  H  H1  1  0.75000000  0.12815533  0.17459300  1.0
  H  H1  1  0.75000000  0.46148867  0.17459300  1.0
  H  H1  1  0.75000000  0.79482200  0.17459300  1.0
  H  H1  1  0.25000000  0.20517800  0.82540700  1.0
  H  H1  1  0.25000000  0.53851133  0.82540700  1.0
  H  H1  1  0.25000000  0.87184467  0.82540700  1.0
  H  H1  1  0.75000000  0.20517800  0.82540700  1.0
  H  H1  1  0.75000000  0.53851133  0.82540700  1.0
  H  H1  1  0.75000000  0.87184467  0.82540700  1.0
  H  H1  1  0.25000000  0.12815533  0.32540700  1.0
  H  H1  1  0.25000000  0.46148867  0.32540700  1.0
  H  H1  1  0.25000000  0.79482200  0.32540700  1.0
  H  H1  1  0.75000000  0.12815533  0.32540700  1.0
  H  H1  1  0.75000000  0.46148867  0.32540700  1.0
  H  H1  1  0.75000000  0.79482200  0.32540700  1.0
  H  H2  1  0.11350000  0.05200000  0.61100000  1.0
  H  H2  1  0.11350000  0.38533333  0.61100000  1.0
  H  H2  1  0.11350000  0.71866667  0.61100000  1.0
  H  H2  1  0.61350000  0.05200000  0.61100000  1.0
  H  H2  1  0.61350000  0.38533333  0.61100000  1.0
  H  H2  1  0.61350000  0.71866667  0.61100000  1.0
  H  H2  1  0.38650000  0.28133333  0.11100000  1.0
  H  H2  1  0.38650000  0.61466667  0.11100000  1.0
  H  H2  1  0.38650000  0.94800000  0.11100000  1.0
  H  H2  1  0.88650000  0.28133333  0.11100000  1.0
  H  H2  1  0.88650000  0.61466667  0.11100000  1.0
  H  H2  1  0.88650000  0.94800000  0.11100000  1.0
  H  H2  1  0.38650000  0.05200000  0.88900000  1.0
  H  H2  1  0.38650000  0.38533333  0.88900000  1.0
  H  H2  1  0.38650000  0.71866667  0.88900000  1.0
  H  H2  1  0.88650000  0.05200000  0.88900000  1.0
  H  H2  1  0.88650000  0.38533333  0.88900000  1.0
  H  H2  1  0.88650000  0.71866667  0.88900000  1.0
  H  H2  1  0.11350000  0.28133333  0.38900000  1.0
  H  H2  1  0.11350000  0.61466667  0.38900000  1.0
  H  H2  1  0.11350000  0.94800000  0.38900000  1.0
  H  H2  1  0.61350000  0.28133333  0.38900000  1.0
  H  H2  1  0.61350000  0.61466667  0.38900000  1.0
  H  H2  1  0.61350000  0.94800000  0.38900000  1.0
  H  H2  1  0.36350000  0.21866667  0.61100000  1.0
  H  H2  1  0.36350000  0.55200000  0.61100000  1.0
  H  H2  1  0.36350000  0.88533333  0.61100000  1.0
  H  H2  1  0.86350000  0.21866667  0.61100000  1.0
  H  H2  1  0.86350000  0.55200000  0.61100000  1.0
  H  H2  1  0.86350000  0.88533333  0.61100000  1.0
  H  H2  1  0.13650000  0.11466667  0.11100000  1.0
  H  H2  1  0.13650000  0.44800000  0.11100000  1.0
  H  H2  1  0.13650000  0.78133333  0.11100000  1.0
  H  H2  1  0.63650000  0.11466667  0.11100000  1.0
  H  H2  1  0.63650000  0.44800000  0.11100000  1.0
  H  H2  1  0.63650000  0.78133333  0.11100000  1.0
  H  H2  1  0.13650000  0.21866667  0.88900000  1.0
  H  H2  1  0.13650000  0.55200000  0.88900000  1.0
  H  H2  1  0.13650000  0.88533333  0.88900000  1.0
  H  H2  1  0.63650000  0.21866667  0.88900000  1.0
  H  H2  1  0.63650000  0.55200000  0.88900000  1.0
  H  H2  1  0.63650000  0.88533333  0.88900000  1.0
  H  H2  1  0.36350000  0.11466667  0.38900000  1.0
  H  H2  1  0.36350000  0.44800000  0.38900000  1.0
  H  H2  1  0.36350000  0.78133333  0.38900000  1.0
  H  H2  1  0.86350000  0.11466667  0.38900000  1.0
  H  H2  1  0.86350000  0.44800000  0.38900000  1.0
  H  H2  1  0.86350000  0.78133333  0.38900000  1.0
  H  H2  1  0.38650000  0.28133333  0.38900000  1.0
  H  H2  1  0.38650000  0.61466667  0.38900000  1.0
  H  H2  1  0.38650000  0.94800000  0.38900000  1.0
  H  H2  1  0.88650000  0.28133333  0.38900000  1.0
  H  H2  1  0.88650000  0.61466667  0.38900000  1.0
  H  H2  1  0.88650000  0.94800000  0.38900000  1.0
  H  H2  1  0.11350000  0.05200000  0.88900000  1.0
  H  H2  1  0.11350000  0.38533333  0.88900000  1.0
  H  H2  1  0.11350000  0.71866667  0.88900000  1.0
  H  H2  1  0.61350000  0.05200000  0.88900000  1.0
  H  H2  1  0.61350000  0.38533333  0.88900000  1.0
  H  H2  1  0.61350000  0.71866667  0.88900000  1.0
  H  H2  1  0.11350000  0.28133333  0.11100000  1.0
  H  H2  1  0.11350000  0.61466667  0.11100000  1.0
  H  H2  1  0.11350000  0.94800000  0.11100000  1.0
  H  H2  1  0.61350000  0.28133333  0.11100000  1.0
  H  H2  1  0.61350000  0.61466667  0.11100000  1.0
  H  H2  1  0.61350000  0.94800000  0.11100000  1.0
  H  H2  1  0.38650000  0.05200000  0.61100000  1.0
  H  H2  1  0.38650000  0.38533333  0.61100000  1.0
  H  H2  1  0.38650000  0.71866667  0.61100000  1.0
  H  H2  1  0.88650000  0.05200000  0.61100000  1.0
  H  H2  1  0.88650000  0.38533333  0.61100000  1.0
  H  H2  1  0.88650000  0.71866667  0.61100000  1.0
  H  H2  1  0.13650000  0.11466667  0.38900000  1.0
  H  H2  1  0.13650000  0.44800000  0.38900000  1.0
  H  H2  1  0.13650000  0.78133333  0.38900000  1.0
  H  H2  1  0.63650000  0.11466667  0.38900000  1.0
  H  H2  1  0.63650000  0.44800000  0.38900000  1.0
  H  H2  1  0.63650000  0.78133333  0.38900000  1.0
  H  H2  1  0.36350000  0.21866667  0.88900000  1.0
  H  H2  1  0.36350000  0.55200000  0.88900000  1.0
  H  H2  1  0.36350000  0.88533333  0.88900000  1.0
  H  H2  1  0.86350000  0.21866667  0.88900000  1.0
  H  H2  1  0.86350000  0.55200000  0.88900000  1.0
  H  H2  1  0.86350000  0.88533333  0.88900000  1.0
  H  H2  1  0.36350000  0.11466667  0.11100000  1.0
  H  H2  1  0.36350000  0.44800000  0.11100000  1.0
  H  H2  1  0.36350000  0.78133333  0.11100000  1.0
  H  H2  1  0.86350000  0.11466667  0.11100000  1.0
  H  H2  1  0.86350000  0.44800000  0.11100000  1.0
  H  H2  1  0.86350000  0.78133333  0.11100000  1.0
  H  H2  1  0.13650000  0.21866667  0.61100000  1.0
  H  H2  1  0.13650000  0.55200000  0.61100000  1.0
  H  H2  1  0.13650000  0.88533333  0.61100000  1.0
  H  H2  1  0.63650000  0.21866667  0.61100000  1.0
  H  H2  1  0.63650000  0.55200000  0.61100000  1.0
  H  H2  1  0.63650000  0.88533333  0.61100000  1.0
  H  H3  1  0.32045650  0.75519300  0.48904700  1.0
  H  H3  1  0.42954350  0.74480700  0.98904700  1.0
  H  H3  1  0.57045650  0.41147367  0.98904700  1.0
  H  H3  1  0.92954350  0.41147367  0.98904700  1.0
  H  H3  1  0.82045650  0.91147367  0.51095300  1.0
  H  H3  1  0.17954350  0.24480700  0.98904700  1.0
  H  H3  1  0.42954350  0.25519300  0.48904700  1.0
  H  H3  1  0.07045650  0.92185967  0.01095300  1.0
  H  H3  1  0.17954350  0.91147367  0.98904700  1.0
  H  H3  1  0.32045650  0.24480700  0.98904700  1.0
  H  H3  1  0.42954350  0.92185967  0.01095300  1.0
  H  H3  1  0.92954350  0.74480700  0.98904700  1.0
  H  H3  1  0.07045650  0.25519300  0.01095300  1.0
  H  H3  1  0.32045650  0.57814033  0.51095300  1.0
  H  H3  1  0.67954350  0.57814033  0.51095300  1.0
  H  H3  1  0.42954350  0.58852633  0.01095300  1.0
  H  H3  1  0.32045650  0.08852633  0.01095300  1.0
  H  H3  1  0.67954350  0.08852633  0.01095300  1.0
  H  H3  1  0.92954350  0.92185967  0.01095300  1.0
  H  H3  1  0.17954350  0.08852633  0.01095300  1.0
  H  H3  1  0.42954350  0.07814033  0.98904700  1.0
  H  H3  1  0.32045650  0.24480700  0.51095300  1.0
  H  H3  1  0.67954350  0.75519300  0.48904700  1.0
  H  H3  1  0.57045650  0.92185967  0.01095300  1.0
  H  H3  1  0.57045650  0.74480700  0.98904700  1.0
  H  H3  1  0.82045650  0.57814033  0.51095300  1.0
  H  H3  1  0.82045650  0.91147367  0.98904700  1.0
  H  H3  1  0.82045650  0.75519300  0.01095300  1.0
  H  H3  1  0.32045650  0.91147367  0.98904700  1.0
  H  H3  1  0.67954350  0.42185967  0.01095300  1.0
  H  H3  1  0.92954350  0.41147367  0.51095300  1.0
  H  H3  1  0.07045650  0.25519300  0.48904700  1.0
  H  H3  1  0.92954350  0.07814033  0.98904700  1.0
  H  H3  1  0.42954350  0.07814033  0.51095300  1.0
  H  H3  1  0.17954350  0.75519300  0.48904700  1.0
  H  H3  1  0.32045650  0.91147367  0.51095300  1.0
  H  H3  1  0.17954350  0.24480700  0.51095300  1.0
  H  H3  1  0.07045650  0.41147367  0.98904700  1.0
  H  H3  1  0.67954350  0.91147367  0.51095300  1.0
  H  H3  1  0.57045650  0.41147367  0.51095300  1.0
  H  H3  1  0.67954350  0.08852633  0.48904700  1.0
  H  H3  1  0.92954350  0.58852633  0.48904700  1.0
  H  H3  1  0.17954350  0.75519300  0.01095300  1.0
  H  H3  1  0.92954350  0.92185967  0.48904700  1.0
  H  H3  1  0.67954350  0.42185967  0.48904700  1.0
  H  H3  1  0.57045650  0.92185967  0.48904700  1.0
  H  H3  1  0.67954350  0.24480700  0.98904700  1.0
  H  H3  1  0.57045650  0.25519300  0.48904700  1.0
  Pb  Pb1  1  0.25000000  0.05046333  0.75000000  1.0
  Pb  Pb1  1  0.25000000  0.38379667  0.75000000  1.0
  Pb  Pb1  1  0.25000000  0.71713000  0.75000000  1.0
  Pb  Pb1  1  0.75000000  0.05046333  0.75000000  1.0
  Pb  Pb1  1  0.75000000  0.38379667  0.75000000  1.0
  Pb  Pb1  1  0.75000000  0.71713000  0.75000000  1.0
  Pb  Pb1  1  0.25000000  0.28287000  0.25000000  1.0
  Pb  Pb1  1  0.25000000  0.61620333  0.25000000  1.0
  Pb  Pb1  1  0.25000000  0.94953667  0.25000000  1.0
  Pb  Pb1  1  0.75000000  0.28287000  0.25000000  1.0
  Pb  Pb1  1  0.75000000  0.61620333  0.25000000  1.0
  Pb  Pb1  1  0.75000000  0.94953667  0.25000000  1.0
  Pb  Pb1  1  0.00000000  0.21713000  0.75000000  1.0
  Pb  Pb1  1  0.00000000  0.55046333  0.75000000  1.0
  Pb  Pb1  1  0.00000000  0.88379667  0.75000000  1.0
  Pb  Pb1  1  0.50000000  0.21713000  0.75000000  1.0
  Pb  Pb1  1  0.50000000  0.55046333  0.75000000  1.0
  Pb  Pb1  1  0.50000000  0.88379667  0.75000000  1.0
  Pb  Pb1  1  0.00000000  0.11620333  0.25000000  1.0
  Pb  Pb1  1  0.00000000  0.44953667  0.25000000  1.0
  Pb  Pb1  1  0.00000000  0.78287000  0.25000000  1.0
  Pb  Pb1  1  0.50000000  0.11620333  0.25000000  1.0
  Pb  Pb1  1  0.50000000  0.44953667  0.25000000  1.0
  Pb  Pb1  1  0.50000000  0.78287000  0.25000000  1.0
  C  C1  1  0.00000000  0.04890000  0.63290000  1.0
  C  C1  1  0.00000000  0.38223333  0.63290000  1.0
  C  C1  1  0.00000000  0.71556667  0.63290000  1.0
  C  C1  1  0.50000000  0.04890000  0.63290000  1.0
  C  C1  1  0.50000000  0.38223333  0.63290000  1.0
  C  C1  1  0.50000000  0.71556667  0.63290000  1.0
  C  C1  1  0.00000000  0.28443333  0.13290000  1.0
  C  C1  1  0.00000000  0.61776667  0.13290000  1.0
  C  C1  1  0.00000000  0.95110000  0.13290000  1.0
  C  C1  1  0.50000000  0.28443333  0.13290000  1.0
  C  C1  1  0.50000000  0.61776667  0.13290000  1.0
  C  C1  1  0.50000000  0.95110000  0.13290000  1.0
  C  C1  1  0.00000000  0.04890000  0.86710000  1.0
  C  C1  1  0.00000000  0.38223333  0.86710000  1.0
  C  C1  1  0.00000000  0.71556667  0.86710000  1.0
  C  C1  1  0.50000000  0.04890000  0.86710000  1.0
  C  C1  1  0.50000000  0.38223333  0.86710000  1.0
  C  C1  1  0.50000000  0.71556667  0.86710000  1.0
  C  C1  1  0.00000000  0.28443333  0.36710000  1.0
  C  C1  1  0.00000000  0.61776667  0.36710000  1.0
  C  C1  1  0.00000000  0.95110000  0.36710000  1.0
  C  C1  1  0.50000000  0.28443333  0.36710000  1.0
  C  C1  1  0.50000000  0.61776667  0.36710000  1.0
  C  C1  1  0.50000000  0.95110000  0.36710000  1.0
  C  C1  1  0.25000000  0.21556667  0.63290000  1.0
  C  C1  1  0.25000000  0.54890000  0.63290000  1.0
  C  C1  1  0.25000000  0.88223333  0.63290000  1.0
  C  C1  1  0.75000000  0.21556667  0.63290000  1.0
  C  C1  1  0.75000000  0.54890000  0.63290000  1.0
  C  C1  1  0.75000000  0.88223333  0.63290000  1.0
  C  C1  1  0.25000000  0.11776667  0.13290000  1.0
  C  C1  1  0.25000000  0.45110000  0.13290000  1.0
  C  C1  1  0.25000000  0.78443333  0.13290000  1.0
  C  C1  1  0.75000000  0.11776667  0.13290000  1.0
  C  C1  1  0.75000000  0.45110000  0.13290000  1.0
  C  C1  1  0.75000000  0.78443333  0.13290000  1.0
  C  C1  1  0.25000000  0.21556667  0.86710000  1.0
  C  C1  1  0.25000000  0.54890000  0.86710000  1.0
  C  C1  1  0.25000000  0.88223333  0.86710000  1.0
  C  C1  1  0.75000000  0.21556667  0.86710000  1.0
  C  C1  1  0.75000000  0.54890000  0.86710000  1.0
  C  C1  1  0.75000000  0.88223333  0.86710000  1.0
  C  C1  1  0.25000000  0.11776667  0.36710000  1.0
  C  C1  1  0.25000000  0.45110000  0.36710000  1.0
  C  C1  1  0.25000000  0.78443333  0.36710000  1.0
  C  C1  1  0.75000000  0.11776667  0.36710000  1.0
  C  C1  1  0.75000000  0.45110000  0.36710000  1.0
  C  C1  1  0.75000000  0.78443333  0.36710000  1.0
  C  C2  1  0.53955000  0.40413333  0.95800000  1.0
  C  C2  1  0.46045000  0.92920000  0.45800000  1.0
  C  C2  1  0.46045000  0.73746667  0.95800000  1.0
  C  C2  1  0.21045000  0.76253333  0.04200000  1.0
  C  C2  1  0.96045000  0.59586667  0.45800000  1.0
  C  C2  1  0.03955000  0.40413333  0.95800000  1.0
  C  C2  1  0.46045000  0.26253333  0.45800000  1.0
  C  C2  1  0.28955000  0.42920000  0.45800000  1.0
  C  C2  1  0.71045000  0.76253333  0.45800000  1.0
  C  C2  1  0.03955000  0.73746667  0.54200000  1.0
  C  C2  1  0.96045000  0.26253333  0.04200000  1.0
  C  C2  1  0.53955000  0.26253333  0.04200000  1.0
  C  C2  1  0.28955000  0.42920000  0.04200000  1.0
  C  C2  1  0.71045000  0.23746667  0.54200000  1.0
  C  C2  1  0.28955000  0.23746667  0.95800000  1.0
  C  C2  1  0.21045000  0.23746667  0.95800000  1.0
  C  C2  1  0.96045000  0.40413333  0.95800000  1.0
  C  C2  1  0.96045000  0.59586667  0.04200000  1.0
  C  C2  1  0.96045000  0.07080000  0.54200000  1.0
  C  C2  1  0.21045000  0.57080000  0.95800000  1.0
  C  C2  1  0.53955000  0.92920000  0.45800000  1.0
  C  C2  1  0.71045000  0.76253333  0.04200000  1.0
  C  C2  1  0.78955000  0.90413333  0.95800000  1.0
  C  C2  1  0.46045000  0.07080000  0.95800000  1.0
  C  C2  1  0.96045000  0.73746667  0.95800000  1.0
  C  C2  1  0.21045000  0.57080000  0.54200000  1.0
  C  C2  1  0.96045000  0.92920000  0.45800000  1.0
  C  C2  1  0.53955000  0.07080000  0.54200000  1.0
  C  C2  1  0.21045000  0.90413333  0.54200000  1.0
  C  C2  1  0.28955000  0.76253333  0.04200000  1.0
  C  C2  1  0.21045000  0.42920000  0.45800000  1.0
  C  C2  1  0.71045000  0.42920000  0.04200000  1.0
  C  C2  1  0.03955000  0.73746667  0.95800000  1.0
  C  C2  1  0.46045000  0.40413333  0.54200000  1.0
  C  C2  1  0.53955000  0.26253333  0.45800000  1.0
  C  C2  1  0.78955000  0.90413333  0.54200000  1.0
  C  C2  1  0.71045000  0.09586667  0.04200000  1.0
  C  C2  1  0.03955000  0.40413333  0.54200000  1.0
  C  C2  1  0.71045000  0.42920000  0.45800000  1.0
  C  C2  1  0.53955000  0.59586667  0.04200000  1.0
  C  C2  1  0.46045000  0.40413333  0.95800000  1.0
  C  C2  1  0.03955000  0.26253333  0.04200000  1.0
  C  C2  1  0.03955000  0.59586667  0.04200000  1.0
  C  C2  1  0.78955000  0.76253333  0.45800000  1.0
  C  C2  1  0.28955000  0.23746667  0.54200000  1.0
  C  C2  1  0.78955000  0.76253333  0.04200000  1.0
  C  C2  1  0.78955000  0.09586667  0.45800000  1.0
  C  C2  1  0.71045000  0.57080000  0.54200000  1.0
  N  C2  1  0.21045000  0.90413333  0.95800000  1.0
  N  C2  1  0.96045000  0.40413333  0.54200000  1.0
  N  C2  1  0.78955000  0.42920000  0.45800000  1.0
  N  C2  1  0.03955000  0.59586667  0.45800000  1.0
  N  C2  1  0.53955000  0.73746667  0.95800000  1.0
  N  C2  1  0.28955000  0.09586667  0.45800000  1.0
  N  C2  1  0.28955000  0.57080000  0.54200000  1.0
  N  C2  1  0.96045000  0.07080000  0.95800000  1.0
  N  C2  1  0.21045000  0.23746667  0.54200000  1.0
  N  C2  1  0.46045000  0.59586667  0.45800000  1.0
  N  C2  1  0.46045000  0.59586667  0.04200000  1.0
  N  C2  1  0.71045000  0.90413333  0.54200000  1.0
  N  C2  1  0.03955000  0.07080000  0.95800000  1.0
  N  C2  1  0.78955000  0.57080000  0.95800000  1.0
  N  C2  1  0.03955000  0.92920000  0.45800000  1.0
  N  C2  1  0.78955000  0.23746667  0.95800000  1.0
  N  C2  1  0.03955000  0.92920000  0.04200000  1.0
  N  C2  1  0.71045000  0.09586667  0.45800000  1.0
  N  C2  1  0.28955000  0.90413333  0.95800000  1.0
  N  C2  1  0.03955000  0.07080000  0.54200000  1.0
  N  C2  1  0.03955000  0.26253333  0.45800000  1.0
  N  C2  1  0.96045000  0.73746667  0.54200000  1.0
  N  C2  1  0.78955000  0.42920000  0.04200000  1.0
  N  C2  1  0.21045000  0.09586667  0.45800000  1.0
  N  C2  1  0.28955000  0.57080000  0.95800000  1.0
  N  C2  1  0.53955000  0.92920000  0.04200000  1.0
  N  C2  1  0.28955000  0.76253333  0.45800000  1.0
  N  C2  1  0.46045000  0.73746667  0.54200000  1.0
  N  C2  1  0.71045000  0.90413333  0.95800000  1.0
  N  C2  1  0.78955000  0.09586667  0.04200000  1.0
  N  C2  1  0.28955000  0.90413333  0.54200000  1.0
  N  C2  1  0.53955000  0.59586667  0.45800000  1.0
  N  C2  1  0.53955000  0.40413333  0.54200000  1.0
  N  C2  1  0.21045000  0.09586667  0.04200000  1.0
  N  C2  1  0.46045000  0.07080000  0.54200000  1.0
  N  C2  1  0.71045000  0.57080000  0.95800000  1.0
  N  C2  1  0.46045000  0.26253333  0.04200000  1.0
  N  C2  1  0.21045000  0.76253333  0.45800000  1.0
  N  C2  1  0.53955000  0.07080000  0.95800000  1.0
  N  C2  1  0.46045000  0.92920000  0.04200000  1.0
  N  C2  1  0.96045000  0.92920000  0.04200000  1.0
  N  C2  1  0.96045000  0.26253333  0.45800000  1.0
  N  C2  1  0.53955000  0.73746667  0.54200000  1.0
  N  C2  1  0.78955000  0.57080000  0.54200000  1.0
  N  C2  1  0.71045000  0.23746667  0.95800000  1.0
  N  C2  1  0.78955000  0.23746667  0.54200000  1.0
  N  C2  1  0.21045000  0.42920000  0.04200000  1.0
  N  C2  1  0.28955000  0.09586667  0.04200000  1.0
  N  N1  1  0.06225000  0.05746667  0.59840000  1.0
  N  N1  1  0.06225000  0.39080000  0.59840000  1.0
  N  N1  1  0.06225000  0.72413333  0.59840000  1.0
  N  N1  1  0.56225000  0.05746667  0.59840000  1.0
  N  N1  1  0.56225000  0.39080000  0.59840000  1.0
  N  N1  1  0.56225000  0.72413333  0.59840000  1.0
  N  N1  1  0.43775000  0.27586667  0.09840000  1.0
  N  N1  1  0.43775000  0.60920000  0.09840000  1.0
  N  N1  1  0.43775000  0.94253333  0.09840000  1.0
  N  N1  1  0.93775000  0.27586667  0.09840000  1.0
  N  N1  1  0.93775000  0.60920000  0.09840000  1.0
  N  N1  1  0.93775000  0.94253333  0.09840000  1.0
  N  N1  1  0.43775000  0.05746667  0.90160000  1.0
  N  N1  1  0.43775000  0.39080000  0.90160000  1.0
  N  N1  1  0.43775000  0.72413333  0.90160000  1.0
  N  N1  1  0.93775000  0.05746667  0.90160000  1.0
  N  N1  1  0.93775000  0.39080000  0.90160000  1.0
  N  N1  1  0.93775000  0.72413333  0.90160000  1.0
  N  N1  1  0.06225000  0.27586667  0.40160000  1.0
  N  N1  1  0.06225000  0.60920000  0.40160000  1.0
  N  N1  1  0.06225000  0.94253333  0.40160000  1.0
  N  N1  1  0.56225000  0.27586667  0.40160000  1.0
  N  N1  1  0.56225000  0.60920000  0.40160000  1.0
  N  N1  1  0.56225000  0.94253333  0.40160000  1.0
  N  N1  1  0.31225000  0.22413333  0.59840000  1.0
  N  N1  1  0.31225000  0.55746667  0.59840000  1.0
  N  N1  1  0.31225000  0.89080000  0.59840000  1.0
  N  N1  1  0.81225000  0.22413333  0.59840000  1.0
  N  N1  1  0.81225000  0.55746667  0.59840000  1.0
  N  N1  1  0.81225000  0.89080000  0.59840000  1.0
  N  N1  1  0.18775000  0.10920000  0.09840000  1.0
  N  N1  1  0.18775000  0.44253333  0.09840000  1.0
  N  N1  1  0.18775000  0.77586667  0.09840000  1.0
  N  N1  1  0.68775000  0.10920000  0.09840000  1.0
  N  N1  1  0.68775000  0.44253333  0.09840000  1.0
  N  N1  1  0.68775000  0.77586667  0.09840000  1.0
  N  N1  1  0.18775000  0.22413333  0.90160000  1.0
  N  N1  1  0.18775000  0.55746667  0.90160000  1.0
  N  N1  1  0.18775000  0.89080000  0.90160000  1.0
  N  N1  1  0.68775000  0.22413333  0.90160000  1.0
  N  N1  1  0.68775000  0.55746667  0.90160000  1.0
  N  N1  1  0.68775000  0.89080000  0.90160000  1.0
  N  N1  1  0.31225000  0.10920000  0.40160000  1.0
  N  N1  1  0.31225000  0.44253333  0.40160000  1.0
  N  N1  1  0.31225000  0.77586667  0.40160000  1.0
  N  N1  1  0.81225000  0.10920000  0.40160000  1.0
  N  N1  1  0.81225000  0.44253333  0.40160000  1.0
  N  N1  1  0.81225000  0.77586667  0.40160000  1.0
  N  N1  1  0.43775000  0.27586667  0.40160000  1.0
  N  N1  1  0.43775000  0.60920000  0.40160000  1.0
  N  N1  1  0.43775000  0.94253333  0.40160000  1.0
  N  N1  1  0.93775000  0.27586667  0.40160000  1.0
  N  N1  1  0.93775000  0.60920000  0.40160000  1.0
  N  N1  1  0.93775000  0.94253333  0.40160000  1.0
  N  N1  1  0.06225000  0.05746667  0.90160000  1.0
  N  N1  1  0.06225000  0.39080000  0.90160000  1.0
  N  N1  1  0.06225000  0.72413333  0.90160000  1.0
  N  N1  1  0.56225000  0.05746667  0.90160000  1.0
  N  N1  1  0.56225000  0.39080000  0.90160000  1.0
  N  N1  1  0.56225000  0.72413333  0.90160000  1.0
  N  N1  1  0.06225000  0.27586667  0.09840000  1.0
  N  N1  1  0.06225000  0.60920000  0.09840000  1.0
  N  N1  1  0.06225000  0.94253333  0.09840000  1.0
  N  N1  1  0.56225000  0.27586667  0.09840000  1.0
  N  N1  1  0.56225000  0.60920000  0.09840000  1.0
  N  N1  1  0.56225000  0.94253333  0.09840000  1.0
  N  N1  1  0.43775000  0.05746667  0.59840000  1.0
  N  N1  1  0.43775000  0.39080000  0.59840000  1.0
  N  N1  1  0.43775000  0.72413333  0.59840000  1.0
  N  N1  1  0.93775000  0.05746667  0.59840000  1.0
  N  N1  1  0.93775000  0.39080000  0.59840000  1.0
  N  N1  1  0.93775000  0.72413333  0.59840000  1.0
  N  N1  1  0.18775000  0.10920000  0.40160000  1.0
  N  N1  1  0.18775000  0.44253333  0.40160000  1.0
  N  N1  1  0.18775000  0.77586667  0.40160000  1.0
  N  N1  1  0.68775000  0.10920000  0.40160000  1.0
  N  N1  1  0.68775000  0.44253333  0.40160000  1.0
  N  N1  1  0.68775000  0.77586667  0.40160000  1.0
  N  N1  1  0.31225000  0.22413333  0.90160000  1.0
  N  N1  1  0.31225000  0.55746667  0.90160000  1.0
  N  N1  1  0.31225000  0.89080000  0.90160000  1.0
  N  N1  1  0.81225000  0.22413333  0.90160000  1.0
  N  N1  1  0.81225000  0.55746667  0.90160000  1.0
  N  N1  1  0.81225000  0.89080000  0.90160000  1.0
  N  N1  1  0.31225000  0.10920000  0.09840000  1.0
  N  N1  1  0.31225000  0.44253333  0.09840000  1.0
  N  N1  1  0.31225000  0.77586667  0.09840000  1.0
  N  N1  1  0.81225000  0.10920000  0.09840000  1.0
  N  N1  1  0.81225000  0.44253333  0.09840000  1.0
  N  N1  1  0.81225000  0.77586667  0.09840000  1.0
  N  N1  1  0.18775000  0.22413333  0.59840000  1.0
  N  N1  1  0.18775000  0.55746667  0.59840000  1.0
  N  N1  1  0.18775000  0.89080000  0.59840000  1.0
  N  N1  1  0.68775000  0.22413333  0.59840000  1.0
  N  N1  1  0.68775000  0.55746667  0.59840000  1.0
  N  N1  1  0.68775000  0.89080000  0.59840000  1.0
  Cl  Cl1  1  0.25000000  0.05223333  0.61714000  1.0
  Cl  Cl1  1  0.25000000  0.38556667  0.61714000  1.0
  Cl  Cl1  1  0.25000000  0.71890000  0.61714000  1.0
  Cl  Cl1  1  0.75000000  0.05223333  0.61714000  1.0
  Cl  Cl1  1  0.75000000  0.38556667  0.61714000  1.0
  Cl  Cl1  1  0.75000000  0.71890000  0.61714000  1.0
  Cl  Cl1  1  0.25000000  0.28110000  0.11714000  1.0
  Cl  Cl1  1  0.25000000  0.61443333  0.11714000  1.0
  Cl  Cl1  1  0.25000000  0.94776667  0.11714000  1.0
  Cl  Cl1  1  0.75000000  0.28110000  0.11714000  1.0
  Cl  Cl1  1  0.75000000  0.61443333  0.11714000  1.0
  Cl  Cl1  1  0.75000000  0.94776667  0.11714000  1.0
  Cl  Cl1  1  0.25000000  0.05223333  0.88286000  1.0
  Cl  Cl1  1  0.25000000  0.38556667  0.88286000  1.0
  Cl  Cl1  1  0.25000000  0.71890000  0.88286000  1.0
  Cl  Cl1  1  0.75000000  0.05223333  0.88286000  1.0
  Cl  Cl1  1  0.75000000  0.38556667  0.88286000  1.0
  Cl  Cl1  1  0.75000000  0.71890000  0.88286000  1.0
  Cl  Cl1  1  0.25000000  0.28110000  0.38286000  1.0
  Cl  Cl1  1  0.25000000  0.61443333  0.38286000  1.0
  Cl  Cl1  1  0.25000000  0.94776667  0.38286000  1.0
  Cl  Cl1  1  0.75000000  0.28110000  0.38286000  1.0
  Cl  Cl1  1  0.75000000  0.61443333  0.38286000  1.0
  Cl  Cl1  1  0.75000000  0.94776667  0.38286000  1.0
  Cl  Cl1  1  0.00000000  0.21890000  0.61714000  1.0
  Cl  Cl1  1  0.00000000  0.55223333  0.61714000  1.0
  Cl  Cl1  1  0.00000000  0.88556667  0.61714000  1.0
  Cl  Cl1  1  0.50000000  0.21890000  0.61714000  1.0
  Cl  Cl1  1  0.50000000  0.55223333  0.61714000  1.0
  Cl  Cl1  1  0.50000000  0.88556667  0.61714000  1.0
  Cl  Cl1  1  0.00000000  0.11443333  0.11714000  1.0
  Cl  Cl1  1  0.00000000  0.44776667  0.11714000  1.0
  Cl  Cl1  1  0.00000000  0.78110000  0.11714000  1.0
  Cl  Cl1  1  0.50000000  0.11443333  0.11714000  1.0
  Cl  Cl1  1  0.50000000  0.44776667  0.11714000  1.0
  Cl  Cl1  1  0.50000000  0.78110000  0.11714000  1.0
  Cl  Cl1  1  0.00000000  0.21890000  0.88286000  1.0
  Cl  Cl1  1  0.00000000  0.55223333  0.88286000  1.0
  Cl  Cl1  1  0.00000000  0.88556667  0.88286000  1.0
  Cl  Cl1  1  0.50000000  0.21890000  0.88286000  1.0
  Cl  Cl1  1  0.50000000  0.55223333  0.88286000  1.0
  Cl  Cl1  1  0.50000000  0.88556667  0.88286000  1.0
  Cl  Cl1  1  0.00000000  0.11443333  0.38286000  1.0
  Cl  Cl1  1  0.00000000  0.44776667  0.38286000  1.0
  Cl  Cl1  1  0.00000000  0.78110000  0.38286000  1.0
  Cl  Cl1  1  0.50000000  0.11443333  0.38286000  1.0
  Cl  Cl1  1  0.50000000  0.44776667  0.38286000  1.0
  Cl  Cl1  1  0.50000000  0.78110000  0.38286000  1.0
  Cl  Cl2  1  0.36630000  0.13840000  0.75000000  1.0
  Cl  Cl2  1  0.36630000  0.47173333  0.75000000  1.0
  Cl  Cl2  1  0.36630000  0.80506667  0.75000000  1.0
  Cl  Cl2  1  0.86630000  0.13840000  0.75000000  1.0
  Cl  Cl2  1  0.86630000  0.47173333  0.75000000  1.0
  Cl  Cl2  1  0.86630000  0.80506667  0.75000000  1.0
  Cl  Cl2  1  0.13370000  0.19493333  0.25000000  1.0
  Cl  Cl2  1  0.13370000  0.52826667  0.25000000  1.0
  Cl  Cl2  1  0.13370000  0.86160000  0.25000000  1.0
  Cl  Cl2  1  0.63370000  0.19493333  0.25000000  1.0
  Cl  Cl2  1  0.63370000  0.52826667  0.25000000  1.0
  Cl  Cl2  1  0.63370000  0.86160000  0.25000000  1.0
  Cl  Cl2  1  0.13370000  0.13840000  0.75000000  1.0
  Cl  Cl2  1  0.13370000  0.47173333  0.75000000  1.0
  Cl  Cl2  1  0.13370000  0.80506667  0.75000000  1.0
  Cl  Cl2  1  0.63370000  0.13840000  0.75000000  1.0
  Cl  Cl2  1  0.63370000  0.47173333  0.75000000  1.0
  Cl  Cl2  1  0.63370000  0.80506667  0.75000000  1.0
  Cl  Cl2  1  0.36630000  0.19493333  0.25000000  1.0
  Cl  Cl2  1  0.36630000  0.52826667  0.25000000  1.0
  Cl  Cl2  1  0.36630000  0.86160000  0.25000000  1.0
  Cl  Cl2  1  0.86630000  0.19493333  0.25000000  1.0
  Cl  Cl2  1  0.86630000  0.52826667  0.25000000  1.0
  Cl  Cl2  1  0.86630000  0.86160000  0.25000000  1.0
  Cl  Cl2  1  0.11630000  0.30506667  0.75000000  1.0
  Cl  Cl2  1  0.11630000  0.63840000  0.75000000  1.0
  Cl  Cl2  1  0.11630000  0.97173333  0.75000000  1.0
  Cl  Cl2  1  0.61630000  0.30506667  0.75000000  1.0
  Cl  Cl2  1  0.61630000  0.63840000  0.75000000  1.0
  Cl  Cl2  1  0.61630000  0.97173333  0.75000000  1.0
  Cl  Cl2  1  0.38370000  0.02826667  0.25000000  1.0
  Cl  Cl2  1  0.38370000  0.36160000  0.25000000  1.0
  Cl  Cl2  1  0.38370000  0.69493333  0.25000000  1.0
  Cl  Cl2  1  0.88370000  0.02826667  0.25000000  1.0
  Cl  Cl2  1  0.88370000  0.36160000  0.25000000  1.0
  Cl  Cl2  1  0.88370000  0.69493333  0.25000000  1.0
  Cl  Cl2  1  0.38370000  0.30506667  0.75000000  1.0
  Cl  Cl2  1  0.38370000  0.63840000  0.75000000  1.0
  Cl  Cl2  1  0.38370000  0.97173333  0.75000000  1.0
  Cl  Cl2  1  0.88370000  0.30506667  0.75000000  1.0
  Cl  Cl2  1  0.88370000  0.63840000  0.75000000  1.0
  Cl  Cl2  1  0.88370000  0.97173333  0.75000000  1.0
  Cl  Cl2  1  0.11630000  0.02826667  0.25000000  1.0
  Cl  Cl2  1  0.11630000  0.36160000  0.25000000  1.0
  Cl  Cl2  1  0.11630000  0.69493333  0.25000000  1.0
  Cl  Cl2  1  0.61630000  0.02826667  0.25000000  1.0
  Cl  Cl2  1  0.61630000  0.36160000  0.25000000  1.0
  Cl  Cl2  1  0.61630000  0.69493333  0.25000000  1.0
