# generated using pymatgen
data_ZrScNbPdRh
_symmetry_space_group_name_H-M   'P 1'
_cell_length_a   16.40300000
_cell_length_b   16.40300000
_cell_length_c   16.40300000
_cell_angle_alpha   90.00000000
_cell_angle_beta   90.00000000
_cell_angle_gamma   90.00000000
_symmetry_Int_Tables_number   1
_chemical_formula_structural   ZrScNbPdRh
_chemical_formula_sum   'Zr50.0 Sc50.0 Nb50 Pd50.0 Rh50.0'
_cell_volume   4413.36508283
_cell_formula_units_Z   50
loop_
 _symmetry_equiv_pos_site_id
 _symmetry_equiv_pos_as_xyz
  1  'x, y, z'
loop_
 _atom_site_type_symbol
 _atom_site_label
 _atom_site_symmetry_multiplicity
 _atom_site_fract_x
 _atom_site_fract_y
 _atom_site_fract_z
 _atom_site_occupancy
  Zr  Sc1  1  0.10000000  0.10000000  0.10000000  1.0
  Zr  Sc1  1  0.70000000  0.10000000  0.50000000  1.0
  Zr  Sc1  1  0.70000000  0.10000000  0.90000000  1.0
  Zr  Sc1  1  0.10000000  0.50000000  0.70000000  1.0
  Zr  Sc1  1  0.70000000  0.30000000  0.10000000  1.0
  Zr  Sc1  1  0.50000000  0.10000000  0.10000000  1.0
  Zr  Sc1  1  0.90000000  0.70000000  0.10000000  1.0
  Zr  Sc1  1  0.50000000  0.10000000  0.70000000  1.0
  Zr  Sc1  1  0.30000000  0.90000000  0.50000000  1.0
  Zr  Sc1  1  0.70000000  0.50000000  0.10000000  1.0
  Zr  Sc1  1  0.90000000  0.50000000  0.30000000  1.0
  Zr  Sc1  1  0.70000000  0.10000000  0.30000000  1.0
  Zr  Sc1  1  0.30000000  0.70000000  0.70000000  1.0
  Zr  Sc1  1  0.50000000  0.30000000  0.90000000  1.0
  Zr  Sc1  1  0.10000000  0.90000000  0.70000000  1.0
  Zr  Sc1  1  0.90000000  0.50000000  0.10000000  1.0
  Zr  Sc1  1  0.10000000  0.90000000  0.50000000  1.0
  Zr  Sc1  1  0.50000000  0.10000000  0.90000000  1.0
  Zr  Sc1  1  0.30000000  0.30000000  0.70000000  1.0
  Zr  Sc1  1  0.90000000  0.30000000  0.90000000  1.0
  Zr  Sc1  1  0.50000000  0.30000000  0.70000000  1.0
  Zr  Sc1  1  0.50000000  0.90000000  0.50000000  1.0
  Zr  Sc1  1  0.30000000  0.30000000  0.10000000  1.0
  Zr  Sc1  1  0.30000000  0.70000000  0.10000000  1.0
  Zr  Sc1  1  0.70000000  0.90000000  0.70000000  1.0
  Zr  Sc1  1  0.70000000  0.30000000  0.90000000  1.0
  Zr  Sc1  1  0.30000000  0.70000000  0.50000000  1.0
  Zr  Sc1  1  0.30000000  0.10000000  0.70000000  1.0
  Zr  Sc1  1  0.50000000  0.70000000  0.50000000  1.0
  Zr  Sc1  1  0.30000000  0.90000000  0.70000000  1.0
  Zr  Sc1  1  0.10000000  0.10000000  0.50000000  1.0
  Zr  Sc1  1  0.10000000  0.30000000  0.30000000  1.0
  Zr  Sc1  1  0.10000000  0.30000000  0.90000000  1.0
  Zr  Sc1  1  0.70000000  0.50000000  0.30000000  1.0
  Zr  Sc1  1  0.90000000  0.90000000  0.30000000  1.0
  Zr  Sc1  1  0.90000000  0.30000000  0.50000000  1.0
  Zr  Sc1  1  0.10000000  0.50000000  0.50000000  1.0
  Zr  Sc1  1  0.30000000  0.10000000  0.50000000  1.0
  Zr  Sc1  1  0.30000000  0.30000000  0.50000000  1.0
  Zr  Sc1  1  0.10000000  0.50000000  0.90000000  1.0
  Zr  Sc1  1  0.30000000  0.10000000  0.10000000  1.0
  Zr  Sc1  1  0.50000000  0.90000000  0.30000000  1.0
  Zr  Sc1  1  0.90000000  0.90000000  0.90000000  1.0
  Zr  Sc1  1  0.30000000  0.50000000  0.90000000  1.0
  Zr  Sc1  1  0.30000000  0.50000000  0.30000000  1.0
  Zr  Sc1  1  0.50000000  0.10000000  0.50000000  1.0
  Zr  Sc1  1  0.30000000  0.50000000  0.50000000  1.0
  Zr  Sc1  1  0.30000000  0.10000000  0.30000000  1.0
  Zr  Sc1  1  0.70000000  0.50000000  0.70000000  1.0
  Zr  Sc1  1  0.10000000  0.70000000  0.70000000  1.0
  Sc  Sc1  1  0.50000000  0.70000000  0.90000000  1.0
  Sc  Sc1  1  0.90000000  0.70000000  0.50000000  1.0
  Sc  Sc1  1  0.10000000  0.50000000  0.30000000  1.0
  Sc  Sc1  1  0.50000000  0.30000000  0.10000000  1.0
  Sc  Sc1  1  0.30000000  0.30000000  0.90000000  1.0
  Sc  Sc1  1  0.50000000  0.90000000  0.10000000  1.0
  Sc  Sc1  1  0.70000000  0.50000000  0.90000000  1.0
  Sc  Sc1  1  0.10000000  0.50000000  0.10000000  1.0
  Sc  Sc1  1  0.10000000  0.10000000  0.90000000  1.0
  Sc  Sc1  1  0.50000000  0.90000000  0.70000000  1.0
  Sc  Sc1  1  0.70000000  0.70000000  0.30000000  1.0
  Sc  Sc1  1  0.10000000  0.30000000  0.10000000  1.0
  Sc  Sc1  1  0.70000000  0.50000000  0.50000000  1.0
  Sc  Sc1  1  0.90000000  0.70000000  0.30000000  1.0
  Sc  Sc1  1  0.30000000  0.90000000  0.90000000  1.0
  Sc  Sc1  1  0.10000000  0.10000000  0.70000000  1.0
  Sc  Sc1  1  0.70000000  0.30000000  0.30000000  1.0
  Sc  Sc1  1  0.90000000  0.50000000  0.70000000  1.0
  Sc  Sc1  1  0.70000000  0.90000000  0.30000000  1.0
  Sc  Sc1  1  0.50000000  0.50000000  0.90000000  1.0
  Sc  Sc1  1  0.70000000  0.90000000  0.10000000  1.0
  Sc  Sc1  1  0.70000000  0.90000000  0.50000000  1.0
  Sc  Sc1  1  0.50000000  0.50000000  0.10000000  1.0
  Sc  Sc1  1  0.30000000  0.90000000  0.30000000  1.0
  Sc  Sc1  1  0.90000000  0.10000000  0.50000000  1.0
  Sc  Sc1  1  0.10000000  0.70000000  0.10000000  1.0
  Sc  Sc1  1  0.50000000  0.70000000  0.70000000  1.0
  Sc  Sc1  1  0.50000000  0.30000000  0.50000000  1.0
  Sc  Sc1  1  0.50000000  0.70000000  0.30000000  1.0
  Sc  Sc1  1  0.70000000  0.30000000  0.50000000  1.0
  Sc  Sc1  1  0.90000000  0.70000000  0.70000000  1.0
  Sc  Sc1  1  0.70000000  0.70000000  0.10000000  1.0
  Sc  Sc1  1  0.70000000  0.10000000  0.70000000  1.0
  Sc  Sc1  1  0.30000000  0.50000000  0.10000000  1.0
  Sc  Sc1  1  0.70000000  0.70000000  0.70000000  1.0
  Sc  Sc1  1  0.50000000  0.70000000  0.10000000  1.0
  Sc  Sc1  1  0.10000000  0.90000000  0.10000000  1.0
  Sc  Sc1  1  0.70000000  0.70000000  0.90000000  1.0
  Sc  Sc1  1  0.30000000  0.10000000  0.90000000  1.0
  Sc  Sc1  1  0.90000000  0.10000000  0.90000000  1.0
  Sc  Sc1  1  0.90000000  0.50000000  0.90000000  1.0
  Sc  Sc1  1  0.50000000  0.30000000  0.30000000  1.0
  Sc  Sc1  1  0.90000000  0.70000000  0.90000000  1.0
  Sc  Sc1  1  0.30000000  0.50000000  0.70000000  1.0
  Sc  Sc1  1  0.10000000  0.90000000  0.30000000  1.0
  Sc  Sc1  1  0.70000000  0.70000000  0.50000000  1.0
  Sc  Sc1  1  0.50000000  0.50000000  0.70000000  1.0
  Sc  Sc1  1  0.90000000  0.30000000  0.30000000  1.0
  Sc  Sc1  1  0.90000000  0.90000000  0.50000000  1.0
  Sc  Sc1  1  0.10000000  0.70000000  0.90000000  1.0
  Nb  Sc1  1  0.90000000  0.90000000  0.70000000  1.0
  Nb  Sc1  1  0.30000000  0.70000000  0.30000000  1.0
  Nb  Sc1  1  0.10000000  0.90000000  0.90000000  1.0
  Nb  Sc1  1  0.90000000  0.30000000  0.10000000  1.0
  Nb  Sc1  1  0.90000000  0.50000000  0.50000000  1.0
  Nb  Sc1  1  0.70000000  0.90000000  0.90000000  1.0
  Nb  Sc1  1  0.70000000  0.10000000  0.10000000  1.0
  Nb  Sc1  1  0.30000000  0.90000000  0.10000000  1.0
  Nb  Sc1  1  0.70000000  0.30000000  0.70000000  1.0
  Nb  Sc1  1  0.90000000  0.10000000  0.30000000  1.0
  Nb  Sc1  1  0.10000000  0.30000000  0.50000000  1.0
  Nb  Sc1  1  0.10000000  0.70000000  0.30000000  1.0
  Nb  Sc1  1  0.30000000  0.70000000  0.90000000  1.0
  Nb  Sc1  1  0.50000000  0.90000000  0.90000000  1.0
  Nb  Sc1  1  0.10000000  0.30000000  0.70000000  1.0
  Nb  Sc1  1  0.50000000  0.50000000  0.30000000  1.0
  Nb  Sc1  1  0.90000000  0.30000000  0.70000000  1.0
  Nb  Sc1  1  0.10000000  0.10000000  0.30000000  1.0
  Nb  Sc1  1  0.90000000  0.90000000  0.10000000  1.0
  Nb  Sc1  1  0.30000000  0.30000000  0.30000000  1.0
  Nb  Sc1  1  0.10000000  0.70000000  0.50000000  1.0
  Nb  Sc1  1  0.50000000  0.50000000  0.50000000  1.0
  Nb  Sc1  1  0.90000000  0.10000000  0.10000000  1.0
  Nb  Sc1  1  0.90000000  0.10000000  0.70000000  1.0
  Nb  Sc1  1  0.50000000  0.10000000  0.30000000  1.0

  Nb  Nb1  1  0.80000000  0.40000000  0.20000000  1.0
  Nb  Nb1  1  0.40000000  0.20000000  0.80000000  1.0
  Nb  Nb1  1  0.20000000  0.80000000  0.00000000  1.0
  Nb  Nb1  1  0.00000000  0.60000000  0.20000000  1.0
  Nb  Nb1  1  0.80000000  0.40000000  0.80000000  1.0
  Nb  Nb1  1  0.80000000  0.40000000  0.40000000  1.0
  Nb  Nb1  1  0.40000000  0.60000000  0.40000000  1.0
  Nb  Nb1  1  0.60000000  0.20000000  0.60000000  1.0
  Nb  Nb1  1  0.00000000  0.60000000  0.00000000  1.0
  Nb  Nb1  1  0.00000000  0.80000000  0.40000000  1.0
  Nb  Nb1  1  0.00000000  0.60000000  0.80000000  1.0
  Nb  Nb1  1  0.40000000  0.40000000  0.80000000  1.0
  Nb  Nb1  1  0.00000000  0.40000000  0.60000000  1.0
  Nb  Nb1  1  0.20000000  0.60000000  0.80000000  1.0
  Nb  Nb1  1  0.60000000  0.60000000  0.20000000  1.0
  Nb  Nb1  1  0.60000000  0.00000000  0.00000000  1.0
  Nb  Nb1  1  0.00000000  0.20000000  0.60000000  1.0
  Nb  Nb1  1  0.00000000  0.00000000  0.60000000  1.0
  Nb  Nb1  1  0.40000000  0.40000000  0.20000000  1.0
  Nb  Nb1  1  0.00000000  0.80000000  0.80000000  1.0
  Nb  Nb1  1  0.80000000  0.60000000  0.00000000  1.0
  Nb  Nb1  1  0.40000000  0.00000000  0.60000000  1.0
  Nb  Nb1  1  0.20000000  0.60000000  0.40000000  1.0
  Nb  Nb1  1  0.20000000  0.20000000  0.60000000  1.0
  Nb  Nb1  1  0.40000000  0.80000000  0.40000000  1.0
  Pd  Nb1  1  0.60000000  0.80000000  0.20000000  1.0
  Pd  Nb1  1  0.20000000  0.80000000  0.80000000  1.0
  Pd  Nb1  1  0.20000000  0.00000000  0.80000000  1.0
  Pd  Nb1  1  0.60000000  0.20000000  0.40000000  1.0
  Pd  Nb1  1  0.40000000  0.20000000  0.20000000  1.0
  Pd  Nb1  1  0.60000000  0.80000000  0.40000000  1.0
  Pd  Nb1  1  0.20000000  0.20000000  0.00000000  1.0
  Pd  Nb1  1  0.00000000  0.40000000  0.80000000  1.0
  Pd  Nb1  1  0.40000000  0.40000000  0.40000000  1.0
  Pd  Nb1  1  0.60000000  0.40000000  0.40000000  1.0
  Pd  Nb1  1  0.00000000  0.20000000  0.20000000  1.0
  Pd  Nb1  1  0.80000000  0.00000000  0.20000000  1.0
  Pd  Nb1  1  0.20000000  0.20000000  0.20000000  1.0
  Pd  Nb1  1  0.00000000  0.60000000  0.60000000  1.0
  Pd  Nb1  1  0.00000000  0.40000000  0.40000000  1.0
  Pd  Nb1  1  0.00000000  0.20000000  0.80000000  1.0
  Pd  Nb1  1  0.80000000  0.00000000  0.40000000  1.0
  Pd  Nb1  1  0.60000000  0.60000000  0.00000000  1.0
  Pd  Nb1  1  0.20000000  0.00000000  0.00000000  1.0
  Pd  Nb1  1  0.80000000  0.20000000  0.20000000  1.0
  Pd  Nb1  1  0.60000000  0.80000000  0.60000000  1.0
  Pd  Nb1  1  0.00000000  0.80000000  0.00000000  1.0
  Pd  Nb1  1  0.80000000  0.20000000  0.40000000  1.0
  Pd  Nb1  1  0.60000000  0.20000000  0.80000000  1.0
  Pd  Nb1  1  0.40000000  0.00000000  0.20000000  1.0
  Pd  Nb1  1  0.00000000  0.60000000  0.40000000  1.0
  Pd  Nb1  1  0.20000000  0.60000000  0.00000000  1.0
  Pd  Nb1  1  0.00000000  0.00000000  0.80000000  1.0
  Pd  Nb1  1  0.80000000  0.00000000  0.60000000  1.0
  Pd  Nb1  1  0.20000000  0.40000000  0.00000000  1.0
  Pd  Nb1  1  0.40000000  0.60000000  0.80000000  1.0
  Pd  Nb1  1  0.40000000  0.60000000  0.60000000  1.0
  Pd  Nb1  1  0.80000000  0.80000000  0.80000000  1.0
  Pd  Nb1  1  0.60000000  0.40000000  0.00000000  1.0
  Pd  Nb1  1  0.80000000  0.40000000  0.00000000  1.0
  Pd  Nb1  1  0.80000000  0.00000000  0.80000000  1.0
  Pd  Nb1  1  0.60000000  0.60000000  0.80000000  1.0
  Pd  Nb1  1  0.40000000  0.80000000  0.80000000  1.0
  Pd  Nb1  1  0.60000000  0.00000000  0.20000000  1.0
  Pd  Nb1  1  0.40000000  0.20000000  0.00000000  1.0
  Pd  Nb1  1  0.60000000  0.00000000  0.60000000  1.0
  Pd  Nb1  1  0.80000000  0.60000000  0.40000000  1.0
  Pd  Nb1  1  0.20000000  0.20000000  0.80000000  1.0
  Pd  Nb1  1  0.80000000  0.40000000  0.60000000  1.0
  Pd  Nb1  1  0.60000000  0.60000000  0.40000000  1.0
  Pd  Nb1  1  0.40000000  0.80000000  0.60000000  1.0
  Pd  Nb1  1  0.60000000  0.00000000  0.40000000  1.0
  Pd  Nb1  1  0.40000000  0.80000000  0.00000000  1.0
  Pd  Nb1  1  0.80000000  0.80000000  0.00000000  1.0
  Pd  Nb1  1  0.40000000  0.80000000  0.20000000  1.0
  Rh  Nb1  1  0.60000000  0.80000000  0.00000000  1.0
  Rh  Nb1  1  0.00000000  0.80000000  0.20000000  1.0
  Rh  Nb1  1  0.60000000  0.20000000  0.20000000  1.0
  Rh  Nb1  1  0.60000000  0.60000000  0.60000000  1.0
  Rh  Nb1  1  0.60000000  0.40000000  0.60000000  1.0
  Rh  Nb1  1  0.40000000  0.00000000  0.00000000  1.0
  Rh  Nb1  1  0.00000000  0.00000000  0.00000000  1.0
  Rh  Nb1  1  0.20000000  0.00000000  0.20000000  1.0
  Rh  Nb1  1  0.40000000  0.20000000  0.40000000  1.0
  Rh  Nb1  1  0.40000000  0.00000000  0.80000000  1.0
  Rh  Nb1  1  0.80000000  0.60000000  0.20000000  1.0
  Rh  Nb1  1  0.20000000  0.40000000  0.80000000  1.0
  Rh  Nb1  1  0.60000000  0.40000000  0.20000000  1.0
  Rh  Nb1  1  0.20000000  0.40000000  0.60000000  1.0
  Rh  Nb1  1  0.80000000  0.60000000  0.60000000  1.0
  Rh  Nb1  1  0.20000000  0.00000000  0.60000000  1.0
  Rh  Nb1  1  0.20000000  0.20000000  0.40000000  1.0
  Rh  Nb1  1  0.20000000  0.80000000  0.20000000  1.0
  Rh  Nb1  1  0.80000000  0.20000000  0.00000000  1.0
  Rh  Nb1  1  0.20000000  0.40000000  0.40000000  1.0
  Rh  Nb1  1  0.20000000  0.60000000  0.20000000  1.0
  Rh  Nb1  1  0.20000000  0.80000000  0.40000000  1.0
  Rh  Nb1  1  0.00000000  0.40000000  0.00000000  1.0
  Rh  Nb1  1  0.60000000  0.00000000  0.80000000  1.0
  Rh  Nb1  1  0.40000000  0.40000000  0.00000000  1.0
  Rh  Nb1  1  0.60000000  0.40000000  0.80000000  1.0
  Rh  Nb1  1  0.00000000  0.40000000  0.20000000  1.0
  Rh  Nb1  1  0.00000000  0.00000000  0.20000000  1.0
  Rh  Nb1  1  0.80000000  0.00000000  0.00000000  1.0
  Rh  Nb1  1  0.80000000  0.80000000  0.60000000  1.0
  Rh  Nb1  1  0.40000000  0.40000000  0.60000000  1.0
  Rh  Nb1  1  0.20000000  0.60000000  0.60000000  1.0
  Rh  Nb1  1  0.20000000  0.00000000  0.40000000  1.0
  Rh  Nb1  1  0.60000000  0.20000000  0.00000000  1.0
  Rh  Nb1  1  0.40000000  0.20000000  0.60000000  1.0
  Rh  Nb1  1  0.00000000  0.20000000  0.40000000  1.0
  Rh  Nb1  1  0.40000000  0.60000000  0.20000000  1.0
  Rh  Nb1  1  0.80000000  0.20000000  0.80000000  1.0
  Rh  Nb1  1  0.80000000  0.80000000  0.20000000  1.0
  Rh  Nb1  1  0.20000000  0.80000000  0.60000000  1.0
  Rh  Nb1  1  0.40000000  0.00000000  0.40000000  1.0
  Rh  Nb1  1  0.20000000  0.40000000  0.20000000  1.0
  Rh  Nb1  1  0.80000000  0.60000000  0.80000000  1.0
  Rh  Nb1  1  0.00000000  0.20000000  0.00000000  1.0
  Rh  Nb1  1  0.60000000  0.80000000  0.80000000  1.0
  Rh  Nb1  1  0.40000000  0.60000000  0.00000000  1.0
  Rh  Nb1  1  0.80000000  0.20000000  0.60000000  1.0
  Rh  Nb1  1  0.80000000  0.80000000  0.40000000  1.0
  Rh  Nb1  1  0.00000000  0.80000000  0.60000000  1.0
  Rh  Nb1  1  0.00000000  0.00000000  0.40000000  1.0

















































































































































































































































































































































































































































