# generated using pymatgen
data_V35Zn35O128
_symmetry_space_group_name_H-M   'P 1'
_cell_length_a   16.81214491
_cell_length_b   16.77187684
_cell_length_c   16.97082013
_cell_angle_alpha   89.89485769
_cell_angle_beta   90.01791459
_cell_angle_gamma   90.25944904
_symmetry_Int_Tables_number   1
_chemical_formula_structural   V35Zn35O128
_chemical_formula_sum   'V70 Zn70 O256'
_cell_volume   4785.22558097
_cell_formula_units_Z   2
loop_
 _symmetry_equiv_pos_site_id
 _symmetry_equiv_pos_as_xyz
  1  'x, y, z'
loop_
 _atom_site_type_symbol
 _atom_site_label
 _atom_site_symmetry_multiplicity
 _atom_site_fract_x
 _atom_site_fract_y
 _atom_site_fract_z
 _atom_site_occupancy
  V  V0  1  0.10109632  0.12458517  0.00619982  1
  V  V1  1  0.14204213  0.37335412  0.75018341  1
  V  V2  1  0.86599463  0.00440680  0.37633186  1
  V  V3  1  0.00858565  0.75776769  0.75313035  1
  V  V4  1  0.61713033  0.25205840  0.37719110  1
  V  V5  1  0.62606614  0.50203607  0.62173607  1
  V  V6  1  0.23600861  0.88056145  0.62816221  1
  V  V7  1  0.88265839  0.12066788  0.25026354  1
  V  V8  1  0.38241971  0.75259669  0.64543023  1
  V  V9  1  0.11497590  0.25530133  0.36689184  1
  V  V10  1  0.87201657  0.37071909  -0.00114735  1
  V  V11  1  0.85056638  0.50261819  0.38358959  1
  V  V12  1  0.75500574  0.28554139  0.49474836  1
  V  V13  1  0.25620142  0.87813789  0.12101897  1
  V  V14  1  0.49997859  0.24782027  0.76512083  1
  V  V15  1  0.74757633  0.64214538  0.88043153  1
  V  V16  1  0.87036696  0.26270593  0.62815665  1
  V  V17  1  0.24482534  0.12736011  0.39083731  1
  V  V18  1  0.25447098  0.52470820  0.75312177  1
  V  V19  1  0.49637643  0.74336690  0.25033388  1
  V  V20  1  0.76392086  0.87193488  0.10280499  1
  V  V21  1  0.62441283  0.00963363  0.12535266  1
  V  V22  1  0.74129110  0.87448625  0.62105896  1
  V  V23  1  0.12626654  0.86691567  0.25647298  1
  V  V24  1  0.86915002  0.73342558  0.61343030  1
  V  V25  1  0.87175781  0.87065953  0.49734000  1
  V  V26  1  0.13109800  0.49852236  0.13288050  1
  V  V27  1  0.12587175  0.24550995  0.88467703  1
  V  V28  1  0.63037733  0.86867012  0.76146461  1
  V  V29  1  0.89702868  0.25438120  0.14005437  1
  V  V30  1  0.26294153  0.61384987  0.36298208  1
  V  V31  1  0.37673206  0.74190918  0.12503154  1
  V  V32  1  0.00708809  0.86776034  0.38274922  1
  V  V33  1  -0.01112256  0.73865809  0.24454363  1
  V  V34  1  0.22060655  0.00430764  0.74487975  1
  V  V35  1  0.61216322  0.36341541  0.24758648  1
  V  V36  1  0.63646028  0.88149589  0.25589592  1
  V  V37  1  0.00387472  0.39140859  0.35088854  1
  V  V38  1  0.49860000  0.00090948  0.49860072  1
  V  V39  1  0.38638479  0.14301119  0.25123583  1
  V  V40  1  0.87830151  0.62157208  0.76194258  1
  V  V41  1  0.74790868  0.36379045  0.13508584  1
  V  V42  1  0.25706686  0.12034444  0.88930088  1
  V  V43  1  0.50368253  0.87249367  0.87326388  1
  V  V44  1  0.50305647  0.47338559  -0.01222924  1
  V  V45  1  0.61058208  0.37700970  0.76264465  1
  V  V46  1  0.61675344  0.63835678  -0.00334720  1
  V  V47  1  0.64868074  0.11862263  0.49749483  1
  V  V48  1  0.39844707  0.38890363  0.49515587  1
  V  V49  1  0.25868080  0.35790418  0.11634885  1
  V  V50  1  0.11409088  0.00543354  0.12970523  1
  V  V51  1  0.50115919  0.12778213  0.61880498  1
  V  V52  1  0.00495455  0.12663205  0.61439906  1
  V  V53  1  0.84493641  0.61581001  0.24163507  1
  V  V54  1  -0.00274560  0.51373712  0.00285211  1
  V  V55  1  0.37445758  0.87300347  0.50261794  1
  V  V56  1  0.49279357  0.87326406  0.36963593  1
  V  V57  1  0.73705502  0.11284563  0.83902956  1
  V  V58  1  0.50049051  0.62235606  0.64006558  1
  V  V59  1  0.24381204  0.27156484  0.50912191  1
  V  V60  1  0.62907025  0.50177565  0.12016899  1
  V  V61  1  0.25768110  0.00287651  0.26435688  1
  V  V62  1  0.37363251  0.50067391  0.87455078  1
  V  V63  1  0.37552932  0.11242258  0.74892254  1
  V  V64  1  0.15571749  0.62728163  -0.00274594  1
  V  V65  1  0.00107151  0.37673950  0.87848283  1
  V  V66  1  0.00750016  0.61459431  0.60675921  1
  V  V67  1  0.74912993  0.49397122  0.75868561  1
  V  V68  1  0.38854034  0.88764963  0.00165375  1
  V  V69  1  0.24357690  0.73838683  0.49733923  1
  Zn  Zn70  1  -0.00418259  0.25148654  0.75124906  1
  Zn  Zn71  1  0.13200312  0.49707858  0.61617327  1
  Zn  Zn72  1  0.64724248  0.13814963  -0.00227583  1
  Zn  Zn73  1  0.36724351  0.25736312  0.62721983  1
  Zn  Zn74  1  0.25826557  0.49178937  0.24760618  1
  Zn  Zn75  1  0.67697008  0.03651314  0.66979916  1
  Zn  Zn76  1  0.18581690  0.18693391  0.19284931  1
  Zn  Zn77  1  0.17911697  0.18718738  0.68792454  1
  Zn  Zn78  1  0.19189455  0.68245753  0.18779526  1
  Zn  Zn79  1  0.18581198  0.69076378  0.68124518  1
  Zn  Zn80  1  0.70425712  0.18730011  0.20306940  1
  Zn  Zn81  1  0.68593174  0.21030388  0.67552257  1
  Zn  Zn82  1  0.68059797  0.69760380  0.18249097  1
  Zn  Zn83  1  0.68601627  0.68829714  0.68930117  1
  Zn  Zn84  1  0.31324399  0.32041761  0.31357017  1
  Zn  Zn85  1  0.32110894  0.30689902  0.82514268  1
  Zn  Zn86  1  0.31455045  0.80670318  0.31655373  1
  Zn  Zn87  1  0.31289714  0.83327928  0.81467706  1
  Zn  Zn88  1  0.81574394  0.31931301  0.31742894  1
  Zn  Zn89  1  0.80465521  0.30781987  0.81644956  1
  Zn  Zn90  1  0.80933375  0.79455896  0.32136034  1
  Zn  Zn91  1  0.82178731  0.81498980  0.80269305  1
  Zn  Zn92  1  0.18971646  0.43864692  0.42520911  1
  Zn  Zn93  1  0.19057308  0.44256029  0.93904201  1
  Zn  Zn94  1  0.18042951  0.94152555  0.44952077  1
  Zn  Zn95  1  0.18325158  0.94658925  0.94013849  1
  Zn  Zn96  1  0.64254954  0.47574917  0.41219282  1
  Zn  Zn97  1  0.69068067  0.43737170  0.93673616  1
  Zn  Zn98  1  0.68542451  0.93245406  0.43930315  1
  Zn  Zn99  1  0.69250312  0.94914828  0.94005678  1
  Zn  Zn100  1  0.31597329  0.06408413  0.07677050  1
  Zn  Zn101  1  0.31598887  0.06069536  0.56753356  1
  Zn  Zn102  1  0.32114706  0.55136953  0.06080919  1
  Zn  Zn103  1  0.32061778  0.56089024  0.57230009  1
  Zn  Zn104  1  0.79782561  0.06894707  0.09304923  1
  Zn  Zn105  1  0.84534116  0.05389037  0.57395903  1
  Zn  Zn106  1  0.81090537  0.56105620  0.05795235  1
  Zn  Zn107  1  0.81060235  0.45407035  0.56750942  1
  Zn  Zn108  1  0.44698071  0.41057125  0.15549471  1
  Zn  Zn109  1  0.42873881  0.43645077  0.68618525  1
  Zn  Zn110  1  0.44080659  0.95239847  0.18868948  1
  Zn  Zn111  1  0.44961037  0.93532179  0.68332267  1
  Zn  Zn112  1  0.93618397  0.45350972  0.18474222  1
  Zn  Zn113  1  0.93981688  0.43662561  0.69025987  1
  Zn  Zn114  1  0.93403036  0.93062428  0.19678815  1
  Zn  Zn115  1  0.95160347  0.93060558  0.67270442  1
  Zn  Zn116  1  0.05894092  0.05976743  0.32624662  1
  Zn  Zn117  1  -0.08401825  0.08568699  0.78321450  1
  Zn  Zn118  1  0.07997574  0.57458365  0.32458761  1
  Zn  Zn119  1  0.06828416  0.56181336  0.81631960  1
  Zn  Zn120  1  0.56801040  0.06203392  0.31878015  1
  Zn  Zn121  1  0.56171252  0.05175735  0.81624968  1
  Zn  Zn122  1  0.53915662  0.54452863  0.28541738  1
  Zn  Zn123  1  0.56015803  0.57178791  0.81626592  1
  Zn  Zn124  1  0.42718938  0.19106074  0.43660554  1
  Zn  Zn125  1  0.49781778  0.03798456  0.99703956  1
  Zn  Zn126  1  0.45684341  0.57693851  0.44753279  1
  Zn  Zn127  1  0.43122706  0.68966862  0.94118481  1
  Zn  Zn128  1  0.93372202  0.19829407  0.43886635  1
  Zn  Zn129  1  0.83157047  0.18985648  0.95423495  1
  Zn  Zn130  1  0.93534505  0.67846097  0.42802131  1
  Zn  Zn131  1  1.03354005  0.70703424  0.92927837  1
  Zn  Zn132  1  0.07070003  0.31792632  0.06364889  1
  Zn  Zn133  1  0.06279422  0.31377527  0.56143204  1
  Zn  Zn134  1  0.07401255  0.80032742  0.08323569  1
  Zn  Zn135  1  0.05915745  0.80158856  0.56532909  1
  Zn  Zn136  1  0.53518908  0.26066967  -0.02594425  1
  Zn  Zn137  1  0.56590505  0.31812208  0.56775682  1
  Zn  Zn138  1  0.56620795  0.81879286  0.07381454  1
  Zn  Zn139  1  0.52846915  0.75803985  0.51540914  1
  O  O140  1  0.12567865  0.11435540  0.12020104  1
  O  O141  1  0.10606268  0.12753386  0.62335989  1
  O  O142  1  0.14153546  0.61348383  0.10949970  1
  O  O143  1  0.11178299  0.61964240  0.62420737  1
  O  O144  1  0.64860052  0.10954096  0.14092700  1
  O  O145  1  0.62273486  0.12789138  0.60816373  1
  O  O146  1  0.63646939  0.60864842  0.11094870  1
  O  O147  1  0.61653652  0.61492419  0.63453539  1
  O  O148  1  0.37074103  0.37340575  0.39719847  1
  O  O149  1  0.37581328  0.39399178  0.87222874  1
  O  O150  1  0.38415418  0.87375669  0.38608375  1
  O  O151  1  0.38137034  0.87949043  0.89549624  1
  O  O152  1  0.89105638  0.39364273  0.36875517  1
  O  O153  1  0.88776604  0.36505358  0.88936696  1
  O  O154  1  0.87773201  0.86764546  0.38578796  1
  O  O155  1  0.87177573  0.91937041  0.83149067  1
  O  O156  1  0.23802616  0.01039992  0.37074365  1
  O  O157  1  0.23532976  0.01238949  0.85849201  1
  O  O158  1  0.25827758  0.50340000  0.36347077  1
  O  O159  1  0.26117425  0.50217829  0.86740748  1
  O  O160  1  0.76651938  -0.01083678  0.37916724  1
  O  O161  1  0.73642273  0.01035169  0.85545276  1
  O  O162  1  0.75124598  0.49222199  0.37342984  1
  O  O163  1  0.74593664  0.51202037  0.86206786  1
  O  O164  1  0.24587843  0.49288436  0.12616766  1
  O  O165  1  0.24760858  0.50835476  0.64721170  1
  O  O166  1  0.24402008  0.99202612  0.14466610  1
  O  O167  1  0.24843904  0.99151133  0.63233866  1
  O  O168  1  0.73591218  0.48087408  0.10958186  1
  O  O169  1  0.73540591  0.50503477  0.64386986  1
  O  O170  1  0.73993619  0.98046579  0.13255294  1
  O  O171  1  0.76510797  0.98045754  0.62114425  1
  O  O172  1  0.00113311  0.38322263  0.25268337  1
  O  O173  1  0.00485767  0.38081564  0.77016056  1
  O  O174  1  0.00538245  0.86254689  0.26135626  1
  O  O175  1  0.01142424  0.85588250  0.72745926  1
  O  O176  1  0.51383179  0.35887814  0.23343105  1
  O  O177  1  0.50143955  0.36329840  0.75171796  1
  O  O178  1  0.49773675  0.88116818  0.26316459  1
  O  O179  1  0.50157227  0.87599971  0.76930765  1
  O  O180  1  0.48378767  0.12037449  0.26998825  1
  O  O181  1  0.49849626  0.13249681  0.74365658  1
  O  O182  1  0.50787724  0.64505347  0.24470501  1
  O  O183  1  0.50593554  0.63753682  0.74069136  1
  O  O184  1  0.98255083  0.13166752  0.27630894  1
  O  O185  1  0.99398771  0.13878616  0.72988446  1
  O  O186  1  1.01281790  0.64075439  0.25655776  1
  O  O187  1  0.98540591  0.62120052  0.75149534  1
  O  O188  1  0.35248678  0.26407353  -0.02077541  1
  O  O189  1  0.35819234  0.25880238  0.50136952  1
  O  O190  1  0.37799911  0.76879389  0.01939138  1
  O  O191  1  0.36291329  0.76566010  0.51808823  1
  O  O192  1  0.88565454  0.26464273  0.02062266  1
  O  O193  1  0.85845023  0.26484999  0.49888436  1
  O  O194  1  0.95699632  0.90043116  -0.01113482  1
  O  O195  1  0.87613153  0.74783588  0.50811620  1
  O  O196  1  0.13731065  0.25840973  0.49109722  1
  O  O197  1  0.11850375  0.23558590  0.99821583  1
  O  O198  1  0.14425964  0.75570434  0.50580807  1
  O  O199  1  0.11820096  0.72917657  1.00872990  1
  O  O200  1  0.64020557  0.24521247  0.49525563  1
  O  O201  1  0.64457357  0.25424107  1.00335349  1
  O  O202  1  0.64392383  0.72109325  0.48436251  1
  O  O203  1  0.62106016  0.73665071  1.01419688  1
  O  O204  1  0.40234592  0.23449847  0.02332770  1
  O  O205  1  0.50297347  0.23632109  0.62718134  1
  O  O206  1  0.48550388  0.76245221  0.13819659  1
  O  O207  1  0.48525202  0.75868426  0.63152291  1
  O  O208  1  0.99608915  0.26069628  0.13247443  1
  O  O209  1  0.98671191  0.25245656  0.62176912  1
  O  O210  1  0.99029228  0.75731862  0.14520095  1
  O  O211  1  0.99113440  0.73200713  0.63122553  1
  O  O212  1  0.00855255  0.27189703  0.38741169  1
  O  O213  1  0.01464569  0.26383612  0.87556827  1
  O  O214  1  -0.00501077  0.75990708  0.36434513  1
  O  O215  1  -0.02133109  0.76194514  0.85218949  1
  O  O216  1  0.51847863  0.24900397  0.38816382  1
  O  O217  1  0.49887696  0.24520856  0.86201658  1
  O  O218  1  0.49904421  0.76610168  0.36139111  1
  O  O219  1  0.49566298  0.77210908  0.89119039  1
  O  O220  1  0.25410137  0.12357034  0.49134745  1
  O  O221  1  0.26063326  0.11354066  0.98916862  1
  O  O222  1  0.25374977  0.63900763  0.51760859  1
  O  O223  1  0.25497476  0.62391684  0.99292674  1
  O  O224  1  0.74644637  0.11456376  0.50558426  1
  O  O225  1  0.75935332  0.11247969  0.99903498  1
  O  O226  1  0.68017298  0.76044713  0.42602293  1
  O  O227  1  0.74547777  0.62105578  0.98423520  1
  O  O228  1  0.23911004  0.37652506  0.01449636  1
  O  O229  1  0.25006499  0.37361238  0.50487533  1
  O  O230  1  0.25796852  0.88950931  0.01844559  1
  O  O231  1  0.25627398  0.87709652  0.51216342  1
  O  O232  1  0.76851091  0.37693078  0.00018651  1
  O  O233  1  0.74182444  0.38427894  0.49854009  1
  O  O234  1  0.75459089  0.87718410  0.00210338  1
  O  O235  1  0.76263448  0.86857723  0.50626538  1
  O  O236  1  0.12741547  0.51335382  0.23250487  1
  O  O237  1  0.14218443  0.48915110  0.76172896  1
  O  O238  1  0.13068643  0.99205059  0.24549728  1
  O  O239  1  0.12534520  1.00523536  0.73951020  1
  O  O240  1  0.61775261  0.48354858  0.22644970  1
  O  O241  1  0.62908266  0.49360115  0.75153695  1
  O  O242  1  0.62277457  0.98931525  0.24713544  1
  O  O243  1  0.60883792  0.97579959  0.73649897  1
  O  O244  1  0.35927549  -0.00028965  0.25831545  1
  O  O245  1  0.38230279  0.01130384  0.74583041  1
  O  O246  1  0.38769108  0.49726966  0.22529060  1
  O  O247  1  0.36377010  0.50230940  0.75869955  1
  O  O248  1  0.87723448  0.01040094  0.26184405  1
  O  O249  1  0.88618837  -0.03260778  0.76899454  1
  O  O250  1  0.86739010  0.51037322  0.25597105  1
  O  O251  1  0.85928093  0.51091086  0.74352944  1
  O  O252  1  0.11915693  0.36634695  0.36492234  1
  O  O253  1  0.12158721  0.36834688  0.87318050  1
  O  O254  1  0.11438392  0.87604978  0.37011621  1
  O  O255  1  0.16096195  0.84101660  0.88406925  1
  O  O256  1  0.62274003  0.36981684  0.35500760  1
  O  O257  1  0.62406287  0.37783970  0.86150649  1
  O  O258  1  0.61010508  0.88253282  0.36483088  1
  O  O259  1  0.62176154  0.87264904  0.86727559  1
  O  O260  1  0.37265980  0.12316306  0.15179152  1
  O  O261  1  0.38361311  0.13040161  0.63306263  1
  O  O262  1  0.36993165  0.64278583  0.11847706  1
  O  O263  1  0.38459305  0.64172075  0.63428753  1
  O  O264  1  0.88124055  0.13781309  0.14139126  1
  O  O265  1  0.86825482  0.15750049  0.61893659  1
  O  O266  1  0.86386860  0.61636843  0.14215530  1
  O  O267  1  0.88070760  0.63045069  0.62881872  1
  O  O268  1  0.23631133  0.25780556  0.12333047  1
  O  O269  1  0.24484686  0.24612987  0.61108373  1
  O  O270  1  0.26202100  0.77011521  0.13719638  1
  O  O271  1  0.25726231  0.76515585  0.62427712  1
  O  O272  1  0.76506120  0.26020502  0.12789542  1
  O  O273  1  0.75653642  0.26653518  0.60740297  1
  O  O274  1  0.74413980  0.77358972  0.12773509  1
  O  O275  1  0.76420388  0.75513789  0.62753092  1
  O  O276  1  0.23718040  0.24469625  0.38651450  1
  O  O277  1  0.23854418  0.23116188  0.86886481  1
  O  O278  1  0.25887432  0.74078530  0.39239495  1
  O  O279  1  0.22080105  0.79143894  0.88125411  1
  O  O280  1  0.74153172  0.26530786  0.38978063  1
  O  O281  1  0.75154610  0.22749816  0.87367502  1
  O  O282  1  0.74100575  0.72061661  0.39216682  1
  O  O283  1  0.76095023  0.74177329  0.87057825  1
  O  O284  1  0.00556910  0.11825054  0.00323901  1
  O  O285  1  -0.00803120  0.13760690  0.51402813  1
  O  O286  1  -0.01473773  0.61224066  -0.00770545  1
  O  O287  1  -0.00154173  0.62445202  0.50853872  1
  O  O288  1  0.53104428  0.14784852  0.00271379  1
  O  O289  1  0.49701264  0.11827032  0.50388063  1
  O  O290  1  0.51623563  0.61973539  -0.00512015  1
  O  O291  1  0.50254824  0.64605005  0.53034431  1
  O  O292  1  0.49925844  0.37384407  0.49362075  1
  O  O293  1  0.50778409  0.37347485  0.98942274  1
  O  O294  1  0.49641387  0.87166760  0.48922241  1
  O  O295  1  0.49273379  0.87898267  1.00435370  1
  O  O296  1  1.03876789  0.41258942  0.49930718  1
  O  O297  1  0.99778360  0.38166565  0.99257094  1
  O  O298  1  0.99041715  0.85878975  0.48913672  1
  O  O299  1  1.02076338  0.86170217  0.98426312  1
  O  O300  1  0.42617931  0.49824132  0.29281328  1
  O  O301  1  0.49844380  0.49771973  0.88249493  1
  O  O302  1  0.50202177  0.99049713  0.39103977  1
  O  O303  1  0.50868292  0.98356984  0.89239708  1
  O  O304  1  1.01093450  0.49221417  0.36741259  1
  O  O305  1  1.00821777  0.48686899  0.89014299  1
  O  O306  1  0.98568625  0.97480282  0.37015620  1
  O  O307  1  1.04293537  0.96150135  0.87684498  1
  O  O308  1  0.01603092  -0.00876551  0.13596821  1
  O  O309  1  -0.04312185  0.02877131  0.62381837  1
  O  O310  1  0.01505147  0.49945830  0.11044933  1
  O  O311  1  0.00065669  0.51309521  0.63061135  1
  O  O312  1  0.51764006  0.00501256  0.12456442  1
  O  O313  1  0.50309121  0.01311953  0.61256563  1
  O  O314  1  0.51907411  0.48600758  0.10317993  1
  O  O315  1  0.50526634  0.51477087  0.63698011  1
  O  O316  1  0.25866223  0.37686849  0.23156991  1
  O  O317  1  0.24249691  0.36847333  0.75506678  1
  O  O318  1  0.24441621  0.88472973  0.25515373  1
  O  O319  1  0.24767981  0.89361276  0.73980994  1
  O  O320  1  0.74600585  0.37337381  0.23732371  1
  O  O321  1  0.74006049  0.38838501  0.75826223  1
  O  O322  1  0.73512204  0.86501937  0.26716654  1
  O  O323  1  0.73850324  0.87087883  0.73631547  1
  O  O324  1  0.25081246  0.11291760  0.25928908  1
  O  O325  1  0.25436447  0.11293075  0.74347062  1
  O  O326  1  0.26133992  0.62515128  0.25941181  1
  O  O327  1  0.24572876  0.62357945  0.75708144  1
  O  O328  1  0.78300413  0.14117315  0.27078021  1
  O  O329  1  0.73234965  0.12129368  0.73455586  1
  O  O330  1  0.74494739  0.62819140  0.24960860  1
  O  O331  1  0.75433557  0.62222209  0.76046608  1
  O  O332  1  0.35201908  0.13203157  0.36704797  1
  O  O333  1  0.35643213  0.12507175  0.86109170  1
  O  O334  1  0.36273924  0.62053328  0.39290818  1
  O  O335  1  0.38379763  0.60571090  0.88270702  1
  O  O336  1  0.87891905  0.10560276  0.38692518  1
  O  O337  1  0.84914338  0.11883156  0.86240317  1
  O  O338  1  0.87303729  0.60932772  0.36117030  1
  O  O339  1  0.86425261  0.62317098  0.86145766  1
  O  O340  1  0.13194493  0.39230027  0.12455578  1
  O  O341  1  0.11687972  0.37823245  0.65019189  1
  O  O342  1  0.13867028  0.88426902  0.13398222  1
  O  O343  1  0.13725555  0.87235374  0.62102829  1
  O  O344  1  0.63928339  0.36886412  0.13286741  1
  O  O345  1  0.61440608  0.39237989  0.64371893  1
  O  O346  1  0.63221668  0.88744312  0.13949007  1
  O  O347  1  0.64373448  0.87213516  0.61238105  1
  O  O348  1  0.12074584  0.24268573  0.26863477  1
  O  O349  1  0.12228156  0.26131974  0.76182156  1
  O  O350  1  0.12143880  0.76246976  0.24120095  1
  O  O351  1  0.10625757  0.73179238  0.75283875  1
  O  O352  1  0.63135169  0.25293259  0.26605195  1
  O  O353  1  0.61183563  0.26566042  0.74402791  1
  O  O354  1  0.60522007  0.77077136  0.23971495  1
  O  O355  1  0.61877772  0.77099743  0.73680174  1
  O  O356  1  0.37853837  0.24347337  0.25782566  1
  O  O357  1  0.38734137  0.24238295  0.74818526  1
  O  O358  1  0.38502268  0.75639236  0.24025246  1
  O  O359  1  0.36632483  0.76247868  0.74389157  1
  O  O360  1  0.88206302  0.25486508  0.24262262  1
  O  O361  1  0.87225517  0.26901852  0.73242716  1
  O  O362  1  0.88019956  0.72823129  0.25877325  1
  O  O363  1  0.88099214  0.73667183  0.73585833  1
  O  O364  1  0.38782105  0.49576954  0.50609259  1
  O  O365  1  0.39559582  0.49512640  0.99343518  1
  O  O366  1  0.38617844  0.98596985  0.50958740  1
  O  O367  1  0.38548076  0.99298255  1.01475174  1
  O  O368  1  0.86544261  0.50803138  0.48296168  1
  O  O369  1  0.88920603  0.48451735  1.01072125  1
  O  O370  1  0.87968529  0.97751874  0.48908852  1
  O  O371  1  0.98226055  0.98675754  0.90897977  1
  O  O372  1  0.12864866  0.00972022  0.01925362  1
  O  O373  1  0.09459493  -0.01025715  0.49969926  1
  O  O374  1  0.11875808  0.51445242  0.00555551  1
  O  O375  1  0.10251496  0.46565366  0.50343793  1
  O  O376  1  0.62663902  0.00823057  0.01763608  1
  O  O377  1  0.62079881  0.01394570  0.49467201  1
  O  O378  1  0.61842560  0.50181589  0.00036243  1
  O  O379  1  0.63156816  0.49451606  0.52496574  1
  O  O380  1  0.36144446  0.36112713  0.11011994  1
  O  O381  1  0.38375128  0.37087163  0.60616041  1
  O  O382  1  0.36710201  0.88078592  0.12340161  1
  O  O383  1  0.37082042  0.87103135  0.62318470  1
  O  O384  1  0.87037537  0.37091174  0.12191761  1
  O  O385  1  0.87950562  0.37485175  0.61593457  1
  O  O386  1  0.86385939  0.88321587  0.12424482  1
  O  O387  1  0.87745375  0.85860770  0.60911608  1
  O  O388  1  0.13370208  0.13514418  0.37838493  1
  O  O389  1  0.13235712  0.12862697  0.89838168  1
  O  O390  1  0.15975725  0.61881169  0.38978126  1
  O  O391  1  0.11898839  0.62653144  0.89632557  1
  O  O392  1  0.62971442  0.13798585  0.38879124  1
  O  O393  1  0.63550542  0.12500161  0.86924983  1
  O  O394  1  0.55075846  0.54024707  0.39350121  1
  O  O395  1  0.63595064  0.63168999  0.88466060  1
