# generated using pymatgen
data_V35Zn35O128
_symmetry_space_group_name_H-M   'P 1'
_cell_length_a   16.90407389
_cell_length_b   16.91681035
_cell_length_c   17.01351193
_cell_angle_alpha   90.03249474
_cell_angle_beta   90.35127847
_cell_angle_gamma   90.18206144
_symmetry_Int_Tables_number   1
_chemical_formula_structural   V35Zn35O128
_chemical_formula_sum   'V70 Zn70 O256'
_cell_volume   4865.11827924
_cell_formula_units_Z   2
loop_
 _symmetry_equiv_pos_site_id
 _symmetry_equiv_pos_as_xyz
  1  'x, y, z'
loop_
 _atom_site_type_symbol
 _atom_site_label
 _atom_site_symmetry_multiplicity
 _atom_site_fract_x
 _atom_site_fract_y
 _atom_site_fract_z
 _atom_site_occupancy
  V  V0  1  0.64182387  0.73686155  0.36994803  1
  V  V1  1  0.37910724  0.23925954  0.12881157  1
  V  V2  1  0.64422638  0.24230091  0.37151204  1
  V  V3  1  0.87722702  0.12579435  0.25570575  1
  V  V4  1  0.62443459  0.49700987  0.12008344  1
  V  V5  1  0.88149519  0.74928339  0.12452490  1
  V  V6  1  0.23083167  0.25163668  0.48840910  1
  V  V7  1  0.11735545  0.86753016  0.24571653  1
  V  V8  1  0.60896682  0.89720282  0.77317350  1
  V  V9  1  0.00805706  -0.00296043  0.00580120  1
  V  V10  1  0.24792360  0.13494111  0.88032786  1
  V  V11  1  0.49310615  -0.00085932  0.49037074  1
  V  V12  1  0.00861558  0.12708281  0.62441972  1
  V  V13  1  0.10828871  0.38409311  0.72413773  1
  V  V14  1  0.63579711  0.24172371  0.87602032  1
  V  V15  1  0.87874899  0.88059881  0.00399403  1
  V  V16  1  0.14011066  0.88054281  0.75662821  1
  V  V17  1  0.24995881  0.73115797  0.00933498  1
  V  V18  1  0.00822099  0.51101681  0.51176214  1
  V  V19  1  0.49541318  0.36429003  0.88072808  1
  V  V20  1  0.39155120  0.48670267  0.36449614  1
  V  V21  1  0.13262809  0.72519688  0.88256245  1
  V  V22  1  0.01179246  0.86207612  0.87832330  1
  V  V23  1  0.50320863  0.63530550  0.12709243  1
  V  V24  1  0.13135516  0.14097316  0.00193343  1
  V  V25  1  -0.00136075  0.12937255  0.13011849  1
  V  V26  1  0.01663852  0.26087618  0.26144944  1
  V  V27  1  0.49557501  0.00307952  0.02077274  1
  V  V28  1  0.74773456  0.74656677  -0.00990969  1
  V  V29  1  0.87906341  0.62987691  0.25047697  1
  V  V30  1  0.35641459  0.49097421  0.86636114  1
  V  V31  1  0.26056880  0.37584601  0.61870208  1
  V  V32  1  0.86117171  0.52640643  0.88417880  1
  V  V33  1  -0.01086385  0.35309963  0.90188728  1
  V  V34  1  0.37597020  0.10885020  0.26145205  1
  V  V35  1  0.26268092  0.87022554  0.12843052  1
  V  V36  1  0.62493780  0.87743472  0.25106020  1
  V  V37  1  0.19759081  0.44511671  0.30210479  1
  V  V38  1  0.50285875  0.24406484  0.25130468  1
  V  V39  1  0.49762462  0.87118353  0.37490692  1
  V  V40  1  0.75195409  0.50376434  0.25120744  1
  V  V41  1  0.87707356  0.36340646  0.50115487  1
  V  V42  1  0.39720778  0.35964844  0.49644435  1
  V  V43  1  0.11415499  0.74576511  0.37660977  1
  V  V44  1  0.88703156  0.00052766  0.85354669  1
  V  V45  1  0.62220324  0.12330287  0.01547317  1
  V  V46  1  0.63624989  -0.00022489  0.62701789  1
  V  V47  1  0.24489950  0.36630929  0.12878772  1
  V  V48  1  0.37607133  -0.00327182  0.87394552  1
  V  V49  1  0.49560267  0.49398186  0.00485881  1
  V  V50  1  0.00108173  0.87722284  0.39293682  1
  V  V51  1  0.76109352  0.36748603  0.10738172  1
  V  V52  1  0.37423250  0.63743239  0.24083132  1
  V  V53  1  0.58289522  0.73301297  0.89437832  1
  V  V54  1  0.87753837  -0.00355273  0.38465597  1
  V  V55  1  0.37118424  0.65810289  0.71724968  1
  V  V56  1  0.00589539  0.61851709  0.11073529  1
  V  V57  1  0.62519389  0.37173153  0.25181582  1
  V  V58  1  0.64352085  0.12523608  0.49388645  1
  V  V59  1  0.49155043  0.24627656  0.73926420  1
  V  V60  1  0.74839940  0.88944737  0.12500312  1
  V  V61  1  0.36283166  0.12332127  0.74254462  1
  V  V62  1  0.89274592  0.49176466  0.36579860  1
  V  V63  1  0.36550369  0.35932344  0.00461543  1
  V  V64  1  0.51326473  0.51096759  0.50562555  1
  V  V65  1  0.61818802  0.39069923  0.74799050  1
  V  V66  1  0.25619048  0.63623090  0.37400004  1
  V  V67  1  0.13415335  -0.00283590  0.13263582  1
  V  V68  1  0.23783387  0.11290584  0.37561467  1
  V  V69  1  0.13021090  0.49864667  0.10896860  1
  Zn  Zn70  1  0.38293303  0.85992573  -0.00740805  1
  Zn  Zn71  1  0.75100026  0.00827844  0.25266334  1
  Zn  Zn72  1  0.49576784  0.12817091  0.61191636  1
  Zn  Zn73  1  0.76845623  0.75729811  0.49107952  1
  Zn  Zn74  1  0.76002994  0.39250095  0.62180660  1
  Zn  Zn75  1  0.13417106  0.62506823  0.52577675  1
  Zn  Zn76  1  0.19257605  0.18287847  0.19539652  1
  Zn  Zn77  1  0.19433035  0.21406979  0.69178448  1
  Zn  Zn78  1  0.18861716  0.68445320  0.19107305  1
  Zn  Zn79  1  0.19355662  0.67005092  0.71376029  1
  Zn  Zn80  1  0.69851019  0.19142861  0.18511926  1
  Zn  Zn81  1  0.66874229  0.21727297  0.66577400  1
  Zn  Zn82  1  0.69179548  0.69174642  0.18198494  1
  Zn  Zn83  1  0.69636024  0.74642686  0.73478195  1
  Zn  Zn84  1  0.31528546  0.30112085  0.31512978  1
  Zn  Zn85  1  0.30639500  0.31224543  0.80921048  1
  Zn  Zn86  1  0.31357275  0.81744086  0.30508792  1
  Zn  Zn87  1  0.30996834  0.80610713  0.81777032  1
  Zn  Zn88  1  0.81900463  0.31412155  0.29900014  1
  Zn  Zn89  1  0.79100769  0.36196809  0.83398508  1
  Zn  Zn90  1  0.81715109  0.81680610  0.30880356  1
  Zn  Zn91  1  0.78939214  0.86074815  0.82680868  1
  Zn  Zn92  1  0.20671108  0.45305265  0.46882905  1
  Zn  Zn93  1  0.17915364  0.41227036  0.93939885  1
  Zn  Zn94  1  0.18336298  0.93758160  0.44675991  1
  Zn  Zn95  1  0.19962028  0.93957230  0.94336222  1
  Zn  Zn96  1  0.69334364  0.44032018  0.42989013  1
  Zn  Zn97  1  0.68175187  0.44441179  0.93377256  1
  Zn  Zn98  1  0.69815465  0.93596917  0.43693985  1
  Zn  Zn99  1  0.69733769  0.97894760  0.94053748  1
  Zn  Zn100  1  0.31191412  0.06159989  0.06414074  1
  Zn  Zn101  1  0.32367326  0.07751546  0.54109666  1
  Zn  Zn102  1  0.31489271  0.54969468  0.06659986  1
  Zn  Zn103  1  0.32918297  0.55892369  0.55355687  1
  Zn  Zn104  1  0.81633095  0.08102003  0.04968711  1
  Zn  Zn105  1  0.81661225  0.05978431  0.56482107  1
  Zn  Zn106  1  0.81076849  0.56175931  0.06056107  1
  Zn  Zn107  1  0.83141939  0.57391404  0.55907733  1
  Zn  Zn108  1  0.43808211  0.42958051  0.18785662  1
  Zn  Zn109  1  0.44290480  0.43788076  0.68112227  1
  Zn  Zn110  1  0.44134188  0.93691718  0.19154561  1
  Zn  Zn111  1  0.43870103  0.94619343  0.68083201  1
  Zn  Zn112  1  0.94189090  0.43775269  0.17898582  1
  Zn  Zn113  1  0.91991429  0.45033153  0.67774906  1
  Zn  Zn114  1  0.93990859  0.94075198  0.19145360  1
  Zn  Zn115  1  0.99496868  0.92336056  0.68120718  1
  Zn  Zn116  1  0.06281133  0.05455162  0.31147143  1
  Zn  Zn117  1  0.06743183  0.06015022  0.82229415  1
  Zn  Zn118  1  0.06198280  0.57104892  0.29936202  1
  Zn  Zn119  1  0.09133328  0.52173793  0.83860573  1
  Zn  Zn120  1  0.56547207  0.06020965  0.30783564  1
  Zn  Zn121  1  0.55465173  0.06512846  0.81440187  1
  Zn  Zn122  1  0.56180168  0.55967886  0.30290459  1
  Zn  Zn123  1  0.53105315  0.56423870  0.81334949  1
  Zn  Zn124  1  0.45077546  0.18370238  0.42422216  1
  Zn  Zn125  1  0.43772906  0.18019315  0.93637733  1
  Zn  Zn126  1  0.45720549  0.68151456  0.41647841  1
  Zn  Zn127  1  0.41739632  0.67075122  0.94790938  1
  Zn  Zn128  1  0.94853488  0.18874361  0.42830123  1
  Zn  Zn129  1  0.92323696  0.18579643  0.93797923  1
  Zn  Zn130  1  0.93107969  0.67985231  0.44524311  1
  Zn  Zn131  1  0.93226951  0.68616487  0.93642122  1
  Zn  Zn132  1  0.05515048  0.31492467  0.07468789  1
  Zn  Zn133  1  0.06075151  0.32832876  0.55099396  1
  Zn  Zn134  1  0.06821194  0.80478833  0.06230463  1
  Zn  Zn135  1  0.15226256  0.79798449  0.58305658  1
  Zn  Zn136  1  0.56642216  0.30584274  0.06427306  1
  Zn  Zn137  1  0.59377959  0.33234006  0.55254862  1
  Zn  Zn138  1  0.56515689  0.82224852  0.06035112  1
  Zn  Zn139  1  0.61497140  0.83023736  0.53552378  1
  O  O140  1  0.12432405  0.11517388  0.12071306  1
  O  O141  1  0.11343356  0.13720139  0.62914371  1
  O  O142  1  0.11532463  0.61489498  0.13126759  1
  O  O143  1  -0.04009649  0.68566262  0.65296822  1
  O  O144  1  0.62958598  0.13364492  0.11360640  1
  O  O145  1  0.62064648  0.12530113  0.60669441  1
  O  O146  1  0.61081477  0.61251045  0.13421864  1
  O  O147  1  0.65971617  0.69613996  0.63217097  1
  O  O148  1  0.37870756  0.38149505  0.37873156  1
  O  O149  1  0.37779025  0.36818692  0.88826945  1
  O  O150  1  0.39798779  0.86551457  0.36612379  1
  O  O151  1  0.36073548  0.89352637  0.87904061  1
  O  O152  1  0.87672818  0.39026104  0.36829023  1
  O  O153  1  0.89818121  0.38409442  0.86180938  1
  O  O154  1  0.89185887  0.87949049  0.37348874  1
  O  O155  1  0.89764165  0.87519046  0.89094650  1
  O  O156  1  0.25088967  0.01310532  0.39129580  1
  O  O157  1  0.26243048  0.01819135  0.88514020  1
  O  O158  1  0.26250991  0.50461569  0.36644709  1
  O  O159  1  0.25763939  0.46750446  0.87639769  1
  O  O160  1  0.77272400  -0.01065035  0.36943691  1
  O  O161  1  0.78466016  -0.02677001  0.86546805  1
  O  O162  1  0.75983348  0.50262469  0.35498242  1
  O  O163  1  0.76595965  0.48065390  0.86590102  1
  O  O164  1  0.23908897  0.48581218  0.12668596  1
  O  O165  1  0.25481167  0.47571791  0.58558432  1
  O  O166  1  0.24274922  0.98439663  0.12030278  1
  O  O167  1  0.28626432  0.92097196  0.58862820  1
  O  O168  1  0.73741351  0.49705147  0.12628750  1
  O  O169  1  0.81648140  0.49551294  0.63603624  1
  O  O170  1  0.76306652  0.98988353  0.12072851  1
  O  O171  1  0.73657660  1.01030902  0.62518162  1
  O  O172  1  -0.00529407  0.35726168  0.23758526  1
  O  O173  1  0.00722967  0.38231495  0.71684156  1
  O  O174  1  0.01470661  0.87110407  0.25002733  1
  O  O175  1  0.00558388  0.85963307  0.77873073  1
  O  O176  1  0.51742270  0.36318661  0.24205521  1
  O  O177  1  0.49179699  0.35967352  0.76376171  1
  O  O178  1  0.51754656  0.88157125  0.25684655  1
  O  O179  1  0.51030321  0.88729852  0.74720630  1
  O  O180  1  0.48728863  0.12883285  0.25403025  1
  O  O181  1  0.48746907  0.13595081  0.74793807  1
  O  O182  1  0.48844001  0.62159829  0.23614867  1
  O  O183  1  0.46183963  0.62256263  0.75018192  1
  O  O184  1  1.00383312  0.12752925  0.24096821  1
  O  O185  1  1.01001075  0.12688514  0.72926357  1
  O  O186  1  0.98488430  0.62408275  0.23165835  1
  O  O187  1  0.98371063  0.68027772  0.72099588  1
  O  O188  1  0.38242834  0.25187528  0.01359229  1
  O  O189  1  0.39272166  0.25897557  0.48944001  1
  O  O190  1  0.35497809  0.74839138  0.00391316  1
  O  O191  1  0.41051386  0.75867284  0.51745209  1
  O  O192  1  0.85059427  0.18357770  0.01737834  1
  O  O193  1  0.88197451  0.26626042  0.47628589  1
  O  O194  1  0.86878748  0.76168654  0.00725964  1
  O  O195  1  0.84171514  0.67738864  0.51665729  1
  O  O196  1  0.13214328  0.26257647  0.48925893  1
  O  O197  1  0.12240716  0.23843113  1.01192311  1
  O  O198  1  0.13598632  0.75256303  0.47390495  1
  O  O199  1  0.13771370  0.74793204  0.99376561  1
  O  O200  1  0.61958590  0.23805248  0.47611552  1
  O  O201  1  0.61949856  0.23424679  0.98722100  1
  O  O202  1  0.63291720  0.73542965  0.47322330  1
  O  O203  1  0.63612364  0.76658856  0.98658941  1
  O  O204  1  0.49027946  0.25022571  0.13581012  1
  O  O205  1  0.50306481  0.24817267  0.63965914  1
  O  O206  1  0.50878048  0.73298392  0.11339898  1
  O  O207  1  0.46067177  0.76757014  0.57038641  1
  O  O208  1  0.99910858  0.23108457  0.13068606  1
  O  O209  1  1.00194022  0.23277397  0.62370310  1
  O  O210  1  0.99057910  0.73843746  0.11867652  1
  O  O211  1  0.88824823  0.83532478  0.57857059  1
  O  O212  1  0.01381022  0.24942545  0.36076331  1
  O  O213  1  -0.00536794  0.25328493  0.88543586  1
  O  O214  1  0.00846639  0.75569816  0.37883405  1
  O  O215  1  0.01772579  0.75601479  0.89703577  1
  O  O216  1  0.51641160  0.24852503  0.35553663  1
  O  O217  1  0.50213957  0.25359464  0.87093189  1
  O  O218  1  0.52052540  0.76518205  0.37184437  1
  O  O219  1  0.48640641  0.75357025  0.91089892  1
  O  O220  1  0.24982135  0.14025941  0.48880180  1
  O  O221  1  0.23650595  0.12571170  1.00096805  1
  O  O222  1  0.24903893  0.61448237  0.47401445  1
  O  O223  1  0.24987880  0.63214610  1.02019197  1
  O  O224  1  0.74218762  0.12757242  0.50318241  1
  O  O225  1  0.71825600  0.08976683  0.98612171  1
  O  O226  1  0.67802635  0.62462429  0.61491366  1
  O  O227  1  0.74855156  0.64799352  1.00635730  1
  O  O228  1  0.25548231  0.36580624  0.01388621  1
  O  O229  1  0.27032228  0.35661725  0.49255077  1
  O  O230  1  0.25640743  0.86877688  0.01731076  1
  O  O231  1  0.23960725  0.86971719  0.53462215  1
  O  O232  1  0.73972431  0.37852497  0.00936100  1
  O  O233  1  0.77707392  0.39512944  0.49272059  1
  O  O234  1  0.76216831  0.87677438  0.01183008  1
  O  O235  1  0.72763060  0.85867785  0.51266834  1
  O  O236  1  0.13302522  0.49991032  0.24318974  1
  O  O237  1  0.14008643  0.47981273  0.74723279  1
  O  O238  1  0.12560306  0.98416853  0.24095369  1
  O  O239  1  0.11926241  0.98055017  0.76129362  1
  O  O240  1  0.63170148  0.49008125  0.24118295  1
  O  O241  1  0.60509778  0.48569284  0.77822343  1
  O  O242  1  0.63616436  0.98586923  0.25415312  1
  O  O243  1  0.61768003  1.00648696  0.73463352  1
  O  O244  1  0.37749432  0.01039673  0.25181629  1
  O  O245  1  0.37687880  0.01415565  0.76093975  1
  O  O246  1  0.38235078  0.49937043  0.26147514  1
  O  O247  1  0.38095860  0.48111825  0.76958877  1
  O  O248  1  0.87976184  0.00809311  0.26030724  1
  O  O249  1  0.90840059  -0.01806146  0.75850432  1
  O  O250  1  0.87198142  0.50802078  0.25061568  1
  O  O251  1  0.91434537  0.52456512  0.77735829  1
  O  O252  1  0.14625223  0.39753780  0.37007170  1
  O  O253  1  0.08350482  0.40285881  0.87521566  1
  O  O254  1  0.12043096  0.86680278  0.36596870  1
  O  O255  1  0.12111004  0.87402782  0.87916710  1
  O  O256  1  0.63733885  0.36059818  0.35924469  1
  O  O257  1  0.61026048  0.36287575  0.87389034  1
  O  O258  1  0.62913330  0.86745507  0.36006715  1
  O  O259  1  0.62009705  0.92357347  0.86879726  1
  O  O260  1  0.36066341  0.13400622  0.14215164  1
  O  O261  1  0.37152373  0.11351757  0.63878589  1
  O  O262  1  0.38339135  0.61607086  0.13657907  1
  O  O263  1  0.36243534  0.64262563  0.61613318  1
  O  O264  1  0.89617216  0.10718005  0.14190717  1
  O  O265  1  0.90406285  0.12068017  0.62501017  1
  O  O266  1  0.88602643  0.62911929  0.12530792  1
  O  O267  1  0.72305317  0.58037473  0.71007976  1
  O  O268  1  0.26026795  0.25971593  0.13710404  1
  O  O269  1  0.24992754  0.26073608  0.60071463  1
  O  O270  1  0.23956585  0.76011585  0.11797691  1
  O  O271  1  0.15058126  0.68874862  0.61607750  1
  O  O272  1  0.75465110  0.26838403  0.12665992  1
  O  O273  1  0.69511645  0.30088279  0.59655453  1
  O  O274  1  0.76097422  0.76272035  0.11308226  1
  O  O275  1  0.82273151  0.74399274  0.69963271  1
  O  O276  1  0.25212215  0.23870894  0.38398081  1
  O  O277  1  0.25568469  0.23634031  0.87834917  1
  O  O278  1  0.25492785  0.73883864  0.37103459  1
  O  O279  1  0.24155574  0.74482638  0.89562739  1
  O  O280  1  0.74308990  0.24823301  0.36228991  1
  O  O281  1  0.73312962  0.26386546  0.86859927  1
  O  O282  1  0.74751804  0.75173488  0.37049209  1
  O  O283  1  0.75872277  0.76406478  0.89129560  1
  O  O284  1  0.01481316  0.11456610  0.01502402  1
  O  O285  1  0.00807466  0.13076309  0.52073823  1
  O  O286  1  -0.00180398  0.62486167  0.01247625  1
  O  O287  1  0.01520461  0.61553797  0.48496869  1
  O  O288  1  0.51071455  0.11613832  -0.00277698  1
  O  O289  1  0.50982568  0.11151486  0.49099814  1
  O  O290  1  0.48378007  0.60407292  0.02110275  1
  O  O291  1  0.50811638  0.61002878  0.48555909  1
  O  O292  1  0.49868801  0.37853140  0.49976314  1
  O  O293  1  0.49110738  0.37273730  0.99844827  1
  O  O294  1  0.51790727  0.88739970  0.48305834  1
  O  O295  1  0.49056874  0.89422839  1.01421337  1
  O  O296  1  0.98803969  0.39809605  0.49867004  1
  O  O297  1  0.98532022  0.36501926  1.00151407  1
  O  O298  1  1.01134241  0.87384963  0.48772658  1
  O  O299  1  0.99850147  0.88002390  1.00383162  1
  O  O300  1  0.49466801  0.49888719  0.37479614  1
  O  O301  1  0.48528390  0.48116140  0.89127329  1
  O  O302  1  0.50979873  0.98816145  0.38141067  1
  O  O303  1  0.47953724  1.00747636  0.88102783  1
  O  O304  1  0.99319413  0.50030305  0.35901822  1
  O  O305  1  0.96974370  0.52374554  0.84170686  1
  O  O306  1  0.99764037  0.98378311  0.37318723  1
  O  O307  1  1.00216983  0.98540756  0.88999620  1
  O  O308  1  0.01410316  0.00386277  0.12250452  1
  O  O309  1  0.01435486  0.02381430  0.62336676  1
  O  O310  1  0.01525127  0.50875868  0.12447147  1
  O  O311  1  -0.01092332  0.51987224  0.60786403  1
  O  O312  1  0.48740897  0.01230455  0.11909642  1
  O  O313  1  0.50756398  0.00585874  0.60453966  1
  O  O314  1  0.50830327  0.49421574  0.12108824  1
  O  O315  1  0.48879946  0.50752335  0.60324978  1
  O  O316  1  0.25291180  0.37520244  0.24655037  1
  O  O317  1  0.27484396  0.37280748  0.71708051  1
  O  O318  1  0.23945606  0.86958245  0.23570068  1
  O  O319  1  0.23905860  0.87430170  0.75294542  1
  O  O320  1  0.74524229  0.38535396  0.23649925  1
  O  O321  1  0.72236399  0.37703378  0.74008078  1
  O  O322  1  0.75263190  0.88027033  0.23397811  1
  O  O323  1  0.70935318  0.85993490  0.74365972  1
  O  O324  1  0.26313710  0.12577408  0.26569697  1
  O  O325  1  0.25835108  0.13525462  0.75513111  1
  O  O326  1  0.26545494  0.62343958  0.25583476  1
  O  O327  1  0.28216807  0.62232197  0.75771383  1
  O  O328  1  0.77319809  0.12433308  0.24180327  1
  O  O329  1  0.77474134  0.16623561  0.71449604  1
  O  O330  1  0.76683307  0.61410081  0.22949382  1
  O  O331  1  0.71344079  0.62994436  0.76423556  1
  O  O332  1  0.37108294  0.12431705  0.36456416  1
  O  O333  1  0.36670036  0.12068703  0.86478403  1
  O  O334  1  0.37161478  0.61825199  0.36224025  1
  O  O335  1  0.36646211  0.58851228  0.89190987  1
  O  O336  1  0.89417563  0.10864781  0.36346554  1
  O  O337  1  0.89457092  0.09978126  0.86602031  1
  O  O338  1  0.88209443  0.62033415  0.35203574  1
  O  O339  1  0.85321520  0.62779225  0.87933188  1
  O  O340  1  0.13137025  0.38705375  0.12198167  1
  O  O341  1  0.14177311  0.37352031  0.62173648  1
  O  O342  1  0.12832043  0.87676298  0.13469820  1
  O  O343  1  0.09912591  0.86364413  0.65922187  1
  O  O344  1  0.63274561  0.37997316  0.13079768  1
  O  O345  1  0.58626092  0.39550992  0.65358687  1
  O  O346  1  0.64117900  0.87480285  0.13327307  1
  O  O347  1  0.61746402  0.89890828  0.62632380  1
  O  O348  1  0.11516858  0.25160481  0.23843164  1
  O  O349  1  0.14467118  0.29192166  0.75864730  1
  O  O350  1  0.12978651  0.76061367  0.25977366  1
  O  O351  1  0.13643139  0.75474029  0.78213183  1
  O  O352  1  0.62424851  0.24977442  0.25375846  1
  O  O353  1  0.60778243  0.25830939  0.76054866  1
  O  O354  1  0.63818982  0.76829639  0.25100789  1
  O  O355  1  0.60467417  0.77474107  0.80267236  1
  O  O356  1  0.38690211  0.24465007  0.24562573  1
  O  O357  1  0.38274046  0.23721411  0.75225224  1
  O  O358  1  0.37750169  0.73604821  0.24713031  1
  O  O359  1  0.36948155  0.75901488  0.73676689  1
  O  O360  1  0.89196672  0.23056172  0.25857502  1
  O  O361  1  0.82724282  0.21405021  0.73671614  1
  O  O362  1  0.86764220  0.73765363  0.23709919  1
  O  O363  1  0.86281670  0.78568802  0.74780889  1
  O  O364  1  0.39026143  0.49089736  0.47940964  1
  O  O365  1  0.37898665  0.47560617  1.00400742  1
  O  O366  1  0.39315194  1.00029547  0.49597588  1
  O  O367  1  0.38355530  1.00996652  0.99129381  1
  O  O368  1  0.89193592  0.51010241  0.47265983  1
  O  O369  1  0.87619130  0.51072529  0.98281187  1
  O  O370  1  0.87735254  1.00844391  0.48389425  1
  O  O371  1  0.89185159  0.99241568  1.00458195  1
  O  O372  1  0.12020760  -0.00137763  0.01288042  1
  O  O373  1  0.13186715  0.00251912  0.51940771  1
  O  O374  1  0.13088172  0.50071027  0.01092094  1
  O  O375  1  0.11363637  0.50695793  0.50345564  1
  O  O376  1  0.60228214  0.00699099  0.00717633  1
  O  O377  1  0.62791078  0.01365463  0.50289698  1
  O  O378  1  0.60870386  0.49293736  0.00885022  1
  O  O379  1  0.61274443  0.48359824  0.49573143  1
  O  O380  1  0.36641918  0.36322704  0.12236336  1
  O  O381  1  0.37587489  0.37509081  0.60132778  1
  O  O382  1  0.36351203  0.87266784  0.13529140  1
  O  O383  1  0.34783801  0.88364202  0.61802294  1
  O  O384  1  0.85857738  0.39182955  0.11883019  1
  O  O385  1  0.87876637  0.35698696  0.60426104  1
  O  O386  1  0.87364751  0.86933950  0.12177838  1
  O  O387  1  0.89438099  0.89739773  0.61876743  1
  O  O388  1  0.13846043  0.11973883  0.36550460  1
  O  O389  1  0.12938974  0.12207943  0.89548806  1
  O  O390  1  0.13891812  0.63902211  0.35824042  1
  O  O391  1  0.12059351  0.62622895  0.87560264  1
  O  O392  1  0.63148782  0.13074208  0.37843156  1
  O  O393  1  0.62489711  0.13963766  0.86759559  1
  O  O394  1  0.62869153  0.64014278  0.34612606  1
  O  O395  1  0.59286550  0.63420873  0.88340842  1
