# generated using pymatgen
data_V35Zn35O128
_symmetry_space_group_name_H-M   'P 1'
_cell_length_a   16.84629219
_cell_length_b   16.83247011
_cell_length_c   16.86326043
_cell_angle_alpha   90.05901045
_cell_angle_beta   90.06412007
_cell_angle_gamma   90.09165019
_symmetry_Int_Tables_number   1
_chemical_formula_structural   V35Zn35O128
_chemical_formula_sum   'V70 Zn70 O256'
_cell_volume   4781.81389493
_cell_formula_units_Z   2
loop_
 _symmetry_equiv_pos_site_id
 _symmetry_equiv_pos_as_xyz
  1  'x, y, z'
loop_
 _atom_site_type_symbol
 _atom_site_label
 _atom_site_symmetry_multiplicity
 _atom_site_fract_x
 _atom_site_fract_y
 _atom_site_fract_z
 _atom_site_occupancy
  V  V0  1  0.13387471  0.87831694  0.26461970  1
  V  V1  1  0.37295761  0.38286678  0.49257934  1
  V  V2  1  0.25490328  0.75230889  -0.00449213  1
  V  V3  1  0.36903796  0.13716687  0.26453747  1
  V  V4  1  0.73167883  0.00103623  0.74366089  1
  V  V5  1  0.48490481  0.88025839  0.87418624  1
  V  V6  1  -0.00123490  -0.00319003  0.47967299  1
  V  V7  1  0.10716953  0.10920589  0.00595451  1
  V  V8  1  0.12779522  0.62306425  0.00130821  1
  V  V9  1  0.49422336  0.75283649  0.24296265  1
  V  V10  1  0.75604040  0.37203999  0.60797942  1
  V  V11  1  0.22930770  -0.01432198  0.73286945  1
  V  V12  1  0.51307382  -0.00069767  0.50432182  1
  V  V13  1  0.00547867  0.75440695  0.74520399  1
  V  V14  1  0.50137910  0.62414405  0.62654963  1
  V  V15  1  -0.00389468  0.88993484  0.86957305  1
  V  V16  1  0.24307843  0.24579098  0.49694048  1
  V  V17  1  0.87672764  0.75343268  0.62131049  1
  V  V18  1  0.88586760  0.11885812  0.75147871  1
  V  V19  1  0.26543140  0.51565026  0.75615569  1
  V  V20  1  0.87057676  0.36623119  -0.00412644  1
  V  V21  1  0.36697006  0.74594006  0.63597348  1
  V  V22  1  0.36862537  0.11129175  0.74722604  1
  V  V23  1  -0.00565466  0.64313541  0.12136342  1
  V  V24  1  0.75472433  0.49749842  0.75182314  1
  V  V25  1  0.36739355  0.87766787  0.51356687  1
  V  V26  1  0.73434385  0.13044825  0.87169172  1
  V  V27  1  0.13136939  0.26080788  0.88067994  1
  V  V28  1  0.11852067  0.24959815  0.35940375  1
  V  V29  1  0.00254567  0.48937308  0.00962024  1
  V  V30  1  0.50715522  0.74790894  0.75272791  1
  V  V31  1  0.11419246  0.12529937  0.51755583  1
  V  V32  1  0.23976314  0.88116621  0.12243509  1
  V  V33  1  0.00144299  0.48621381  0.49974632  1
  V  V34  1  0.12091324  0.50235040  0.63282400  1
  V  V35  1  0.88605044  0.24936662  0.61785538  1
  V  V36  1  0.26551726  0.61127012  0.37195731  1
  V  V37  1  0.00458893  0.26754939  0.76010156  1
  V  V38  1  0.24575144  0.37630304  0.63588302  1
  V  V39  1  0.63378798  0.74177878  0.38304173  1
  V  V40  1  0.37254810  0.25003102  0.62755014  1
  V  V41  1  0.87589752  0.87525373  0.48285878  1
  V  V42  1  0.63838583  0.76236291  0.87907831  1
  V  V43  1  0.11875542  0.62783922  0.49230262  1
  V  V44  1  0.49536472  0.50319691  0.48852205  1
  V  V45  1  0.88552261  0.23783779  0.12271336  1
  V  V46  1  0.51081863  0.12224587  0.62399759  1
  V  V47  1  0.74454609  0.88092040  0.62260697  1
  V  V48  1  0.88547975  0.62607529  0.74394270  1
  V  V49  1  0.72241241  0.25167472  -0.00675994  1
  V  V50  1  0.62431340  0.89181194  0.26054884  1
  V  V51  1  0.74561714  0.87843151  0.12871900  1
  V  V52  1  0.86935188  0.63075265  0.25852781  1
  V  V53  1  0.75675571  0.62828292  0.88332633  1
  V  V54  1  0.24699821  0.11485737  0.87993024  1
  V  V55  1  0.88529092  0.86973342  0.00412456  1
  V  V56  1  0.62337608  0.61830795  0.01281716  1
  V  V57  1  0.25041445  0.74766003  0.49348987  1
  V  V58  1  0.73520784  0.12617208  0.38095731  1
  V  V59  1  0.01708993  0.74707192  0.27629085  1
  V  V60  1  0.86741564  0.49531711  0.37409093  1
  V  V61  1  0.88707530  0.49483546  0.87444625  1
  V  V62  1  0.35767959  0.24176284  0.10731563  1
  V  V63  1  0.35498052  0.00311066  0.38134345  1
  V  V64  1  0.62171682  0.37594221  0.75615642  1
  V  V65  1  0.23701791  0.48665571  0.23901951  1
  V  V66  1  0.64269066  0.51903292  0.60563858  1
  V  V67  1  0.12270941  0.75181748  0.87219318  1
  V  V68  1  0.00269966  0.37541881  0.34626707  1
  V  V69  1  0.42673574  0.91993224  0.05018753  1
  Zn  Zn70  1  0.72880543  0.24987123  0.49013465  1
  Zn  Zn71  1  0.50509438  0.25212772  0.75471648  1
  Zn  Zn72  1  0.49722092  0.87276048  0.38346314  1
  Zn  Zn73  1  0.38504987  0.60140194  0.22536008  1
  Zn  Zn74  1  0.77559614  0.01499365  0.25534119  1
  Zn  Zn75  1  0.37774076  0.74225537  0.11968566  1
  Zn  Zn76  1  0.19306392  0.17986747  0.18319201  1
  Zn  Zn77  1  0.18478300  0.18888876  0.69204183  1
  Zn  Zn78  1  0.19109806  0.68108895  0.18490384  1
  Zn  Zn79  1  0.18324868  0.68330340  0.68458929  1
  Zn  Zn80  1  0.73568724  0.21088279  0.20267040  1
  Zn  Zn81  1  0.69342117  0.19320033  0.68919465  1
  Zn  Zn82  1  0.68974863  0.70362464  0.19423540  1
  Zn  Zn83  1  0.69374163  0.69337288  0.68989562  1
  Zn  Zn84  1  0.30489042  0.31540168  0.31211077  1
  Zn  Zn85  1  0.31103080  0.30957186  0.81474657  1
  Zn  Zn86  1  0.31330686  0.81847857  0.31597776  1
  Zn  Zn87  1  0.30776034  0.81420734  0.81116063  1
  Zn  Zn88  1  0.84150742  0.27709645  0.33413446  1
  Zn  Zn89  1  0.81405336  0.30975592  0.81168325  1
  Zn  Zn90  1  0.80506829  0.80622534  0.29487073  1
  Zn  Zn91  1  0.81755514  0.81782032  0.80629943  1
  Zn  Zn92  1  0.18516158  0.43422816  0.43325703  1
  Zn  Zn93  1  0.21263778  0.44221098  0.94825616  1
  Zn  Zn94  1  0.18550744  0.93261997  0.45759067  1
  Zn  Zn95  1  0.18721832  0.93700827  0.92923809  1
  Zn  Zn96  1  0.68354305  0.55899875  0.43255015  1
  Zn  Zn97  1  0.68815437  0.44020254  0.93758122  1
  Zn  Zn98  1  0.69636461  0.94010789  0.43251565  1
  Zn  Zn99  1  0.72760028  0.93602485  0.93697838  1
  Zn  Zn100  1  0.31378935  0.06477364  0.06914391  1
  Zn  Zn101  1  0.30636138  0.06363370  0.56393821  1
  Zn  Zn102  1  0.31258372  0.55181098  0.06196611  1
  Zn  Zn103  1  0.30964732  0.56579548  0.56812484  1
  Zn  Zn104  1  0.81467496  0.05278750  0.05441863  1
  Zn  Zn105  1  0.81375246  0.06620780  0.55911834  1
  Zn  Zn106  1  0.80060450  0.56442910  0.07636019  1
  Zn  Zn107  1  0.82290992  0.56119451  0.56248802  1
  Zn  Zn108  1  0.40486499  0.41464816  0.17856210  1
  Zn  Zn109  1  0.43760924  0.44301737  0.68297828  1
  Zn  Zn110  1  0.46861702  0.98056015  0.22464769  1
  Zn  Zn111  1  0.44452563  0.93293855  0.68876936  1
  Zn  Zn112  1  0.90052505  0.44730795  0.17545163  1
  Zn  Zn113  1  0.93951560  0.43453047  0.68550824  1
  Zn  Zn114  1  0.94851823  0.91577433  0.19062225  1
  Zn  Zn115  1  0.94265682  0.93581897  0.67954923  1
  Zn  Zn116  1  0.11611899  0.04923459  0.33626165  1
  Zn  Zn117  1  0.06572297  0.06899784  0.80768353  1
  Zn  Zn118  1  0.06344168  0.56380865  0.31301050  1
  Zn  Zn119  1  0.06648946  0.56433722  0.81751457  1
  Zn  Zn120  1  0.55353228  0.08328627  0.32562557  1
  Zn  Zn121  1  0.55835168  0.05938493  0.80914495  1
  Zn  Zn122  1  0.54867365  0.57193335  0.31070233  1
  Zn  Zn123  1  0.57533567  0.57202945  0.80582903  1
  Zn  Zn124  1  0.44028717  0.18847640  0.44501835  1
  Zn  Zn125  1  0.42239350  0.19450157  0.92770644  1
  Zn  Zn126  1  0.44134210  0.69124944  0.43807396  1
  Zn  Zn127  1  0.45465033  0.68862292  0.94699132  1
  Zn  Zn128  1  0.94148487  0.17821498  0.43343135  1
  Zn  Zn129  1  0.93823544  0.17747530  0.92795127  1
  Zn  Zn130  1  0.93452082  0.68617701  0.43920140  1
  Zn  Zn131  1  0.93480458  0.69347353  0.93580188  1
  Zn  Zn132  1  0.05110305  0.29120654  0.05403819  1
  Zn  Zn133  1  0.06288255  0.31343456  0.56737375  1
  Zn  Zn134  1  0.06583313  0.81842344  0.05735448  1
  Zn  Zn135  1  0.05597223  0.81355944  0.55107594  1
  Zn  Zn136  1  0.53419832  0.29424877  0.07235079  1
  Zn  Zn137  1  0.55504103  0.32905210  0.57937637  1
  Zn  Zn138  1  0.57860753  0.81063303  0.06247916  1
  Zn  Zn139  1  0.56192260  0.81019142  0.56236987  1
  O  O140  1  0.13278534  0.12966492  0.10290169  1
  O  O141  1  0.11960190  0.12793860  0.61663710  1
  O  O142  1  0.10892735  0.63107358  0.11009125  1
  O  O143  1  0.13187738  0.60831377  0.60865520  1
  O  O144  1  0.62556718  0.05742102  0.08153278  1
  O  O145  1  0.60901891  0.13489924  0.63240170  1
  O  O146  1  0.65673337  0.63931443  0.10775585  1
  O  O147  1  0.61366176  0.62527905  0.63566433  1
  O  O148  1  0.37081270  0.37011382  0.39431478  1
  O  O149  1  0.41098760  0.34540755  0.86333758  1
  O  O150  1  0.37164724  0.88462592  0.39589440  1
  O  O151  1  0.38525964  0.87486807  0.87434972  1
  O  O152  1  0.88950841  0.38439902  0.36673798  1
  O  O153  1  0.87597396  0.38425789  0.88017444  1
  O  O154  1  0.86010528  0.86976169  0.38548705  1
  O  O155  1  0.89046035  0.87247625  0.87754473  1
  O  O156  1  0.25479427  0.00597768  0.39367054  1
  O  O157  1  0.24455198  0.01086572  0.85636290  1
  O  O158  1  0.25346303  0.50748454  0.37369773  1
  O  O159  1  0.23713430  0.49796071  0.85069955  1
  O  O160  1  0.75725290  0.02079176  0.37946534  1
  O  O161  1  0.74272384  0.01394985  0.85378651  1
  O  O162  1  0.76845843  0.49557843  0.38359402  1
  O  O163  1  0.76439622  0.50747881  0.86711274  1
  O  O164  1  0.23277383  0.51559372  0.14204597  1
  O  O165  1  0.24058707  0.49548703  0.63418976  1
  O  O166  1  0.25522510  0.97974944  0.12163379  1
  O  O167  1  0.24761946  0.99644691  0.63288157  1
  O  O168  1  0.79360526  0.48015644  0.14432105  1
  O  O169  1  0.76115545  0.48492450  0.63682985  1
  O  O170  1  0.76555936  0.98451464  0.13826304  1
  O  O171  1  0.75558807  0.99381476  0.63261145  1
  O  O172  1  -0.00461060  0.38551262  0.24917142  1
  O  O173  1  0.00084211  0.36778804  0.75605031  1
  O  O174  1  0.01898999  0.85621039  0.25456705  1
  O  O175  1  -0.00412384  0.86643038  0.75927006  1
  O  O176  1  0.53414837  0.43320896  0.21258514  1
  O  O177  1  0.51976043  0.37623892  0.72576341  1
  O  O178  1  0.50902224  0.87144824  0.26121489  1
  O  O179  1  0.49964905  0.86188848  0.76246491  1
  O  O180  1  0.47206677  0.09814876  0.24840723  1
  O  O181  1  0.48663800  0.12760449  0.74297482  1
  O  O182  1  0.49164047  0.64532619  0.24790902  1
  O  O183  1  0.49952143  0.63713165  0.74405368  1
  O  O184  1  0.94247153  0.06300710  0.22475859  1
  O  O185  1  0.98922145  0.13746684  0.75437724  1
  O  O186  1  1.00668016  0.63604157  0.24043051  1
  O  O187  1  0.99144099  0.63306614  0.75206787  1
  O  O188  1  0.35836838  0.24360551  0.00688521  1
  O  O189  1  0.36505857  0.25653009  0.50764578  1
  O  O190  1  0.35610275  0.73761831  -0.01727241  1
  O  O191  1  0.37023772  0.75739272  0.51141493  1
  O  O192  1  0.88540559  0.25968456  -0.00494608  1
  O  O193  1  0.89146537  0.24892583  0.51863735  1
  O  O194  1  0.86762411  0.76957535  -0.00929840  1
  O  O195  1  0.88377198  0.76343967  0.50680770  1
  O  O196  1  0.12431795  0.24126697  0.50234634  1
  O  O197  1  0.11981343  0.23247739  0.98375547  1
  O  O198  1  0.13373598  0.73564420  0.51255397  1
  O  O199  1  0.12747574  0.74197440  0.99203072  1
  O  O200  1  0.59520420  0.26130789  0.48676323  1
  O  O201  1  0.62467551  0.27176768  0.99790042  1
  O  O202  1  0.61771184  0.75028491  0.48314138  1
  O  O203  1  0.62909214  0.73914790  0.98327721  1
  O  O204  1  0.51436873  0.17089057  0.06350941  1
  O  O205  1  0.48902800  0.23946029  0.62522860  1
  O  O206  1  0.50184214  0.76406590  0.13836297  1
  O  O207  1  0.49532916  0.74431308  0.63304109  1
  O  O208  1  0.98598317  0.24379617  0.13275362  1
  O  O209  1  0.99228161  0.25822725  0.64084057  1
  O  O210  1  0.99775103  0.74391329  0.12334278  1
  O  O211  1  0.99170252  0.75921752  0.63380332  1
  O  O212  1  0.00534882  0.26544688  0.36963493  1
  O  O213  1  0.01261713  0.25125194  0.86708724  1
  O  O214  1  0.01759268  0.74122841  0.37533956  1
  O  O215  1  0.00478709  0.75543773  0.86316847  1
  O  O216  1  0.54368699  0.25541892  0.42653315  1
  O  O217  1  0.46786396  0.28338028  0.86497206  1
  O  O218  1  0.50731258  0.75384072  0.36796624  1
  O  O219  1  0.51370074  0.75849005  0.87133119  1
  O  O220  1  0.23482225  0.13792390  0.50684567  1
  O  O221  1  0.25406721  0.11492189  0.98057269  1
  O  O222  1  0.24525468  0.62696652  0.49192685  1
  O  O223  1  0.23121265  0.63372014  1.00144670  1
  O  O224  1  0.75474936  0.13462592  0.49118656  1
  O  O225  1  0.74388139  0.13311096  0.97839340  1
  O  O226  1  0.71430062  0.58073907  0.53947710  1
  O  O227  1  0.76604685  0.62381402  0.98561171  1
  O  O228  1  0.18925700  0.37885673  0.07431575  1
  O  O229  1  0.25679358  0.37114151  0.51018939  1
  O  O230  1  0.23842972  0.86081884  0.00547158  1
  O  O231  1  0.25582561  0.86084986  0.50899535  1
  O  O232  1  0.76126050  0.36052183  -0.01579125  1
  O  O233  1  0.75333159  0.37420701  0.50969676  1
  O  O234  1  0.73432230  0.86208597  0.02862340  1
  O  O235  1  0.76628988  0.88837134  0.51306108  1
  O  O236  1  0.13811635  0.49823586  0.26379421  1
  O  O237  1  0.12106284  0.50767617  0.73426219  1
  O  O238  1  0.12819492  0.97982555  0.25170004  1
  O  O239  1  0.13035884  1.00312859  0.74248548  1
  O  O240  1  0.57563932  0.49709888  0.21525122  1
  O  O241  1  0.64020149  0.50113303  0.73451130  1
  O  O242  1  0.60340508  0.99082753  0.26186307  1
  O  O243  1  0.63301256  1.00120569  0.73790477  1
  O  O244  1  0.36537213  -0.01189377  0.28084041  1
  O  O245  1  0.37142012  0.00954530  0.74217465  1
  O  O246  1  0.36017614  0.49216497  0.24089397  1
  O  O247  1  0.36578889  0.50074809  0.74667220  1
  O  O248  1  0.89607413  0.00038199  0.26059097  1
  O  O249  1  0.88275011  0.01743429  0.73543172  1
  O  O250  1  0.88792718  0.51616617  0.26877250  1
  O  O251  1  0.87547571  0.50560451  0.75391581  1
  O  O252  1  0.11142685  0.36505003  0.37428845  1
  O  O253  1  0.14681742  0.35854913  0.89518467  1
  O  O254  1  0.14535973  0.87182297  0.36437705  1
  O  O255  1  0.10790411  0.86272429  0.88225610  1
  O  O256  1  0.62212386  0.36973455  0.33311393  1
  O  O257  1  0.61952884  0.39759391  0.85449360  1
  O  O258  1  0.62420255  0.86890468  0.37141251  1
  O  O259  1  0.64140933  0.86354445  0.88540982  1
  O  O260  1  0.37065626  0.13985291  0.13829870  1
  O  O261  1  0.37794949  0.13093708  0.63194617  1
  O  O262  1  0.37320466  0.62873539  0.11520156  1
  O  O263  1  0.38585339  0.63826515  0.62231069  1
  O  O264  1  0.86673419  0.13869210  0.10606789  1
  O  O265  1  0.86658341  0.14367351  0.63847378  1
  O  O266  1  0.88947765  0.62453324  0.14341688  1
  O  O267  1  0.87070164  0.63749732  0.63325784  1
  O  O268  1  0.26519220  0.26259609  0.13909919  1
  O  O269  1  0.25110698  0.25737214  0.61871660  1
  O  O270  1  0.24847404  0.75206179  0.10684693  1
  O  O271  1  0.26345953  0.74016775  0.61909436  1
  O  O272  1  0.74968205  0.24364968  0.09149415  1
  O  O273  1  0.75548735  0.26086164  0.61705073  1
  O  O274  1  0.77176571  0.78626767  0.17355605  1
  O  O275  1  0.76490050  0.76725743  0.63627803  1
  O  O276  1  0.22972213  0.26350478  0.38877236  1
  O  O277  1  0.23723131  0.23257929  0.86064821  1
  O  O278  1  0.25777707  0.73904527  0.38922967  1
  O  O279  1  0.23564001  0.75753882  0.88345322  1
  O  O280  1  0.73792251  0.24732300  0.37566625  1
  O  O281  1  0.74736037  0.24145387  0.87829573  1
  O  O282  1  0.73353694  0.75211061  0.37001781  1
  O  O283  1  0.74459722  0.74255051  0.86097914  1
  O  O284  1  0.00591692  0.11526105  -0.00574392  1
  O  O285  1  0.00449200  0.11278606  0.50547201  1
  O  O286  1  -0.00380679  0.62290618  0.01101906  1
  O  O287  1  0.01493486  0.61682617  0.49345657  1
  O  O288  1  0.50804882  0.14155480  -0.00850539  1
  O  O289  1  0.49492968  0.11269807  0.51591095  1
  O  O290  1  0.52223854  0.62701245  0.01397325  1
  O  O291  1  0.49210263  0.61207619  0.50995928  1
  O  O292  1  0.48148458  0.38929251  0.51148967  1
  O  O293  1  0.50944053  0.40545563  1.00900481  1
  O  O294  1  0.48893173  0.88702178  0.50952554  1
  O  O295  1  0.49765000  0.86374144  0.98835653  1
  O  O296  1  1.00156139  0.38540631  0.49739533  1
  O  O297  1  0.99820459  0.38500984  1.00038265  1
  O  O298  1  0.98928264  0.88293043  0.48224923  1
  O  O299  1  0.99191559  0.87767700  0.98915295  1
  O  O300  1  0.49725672  0.50427418  0.38880417  1
  O  O301  1  0.47894467  0.52446450  0.87489946  1
  O  O302  1  0.48763506  1.00072475  0.39805419  1
  O  O303  1  0.51006492  0.97840705  0.87138922  1
  O  O304  1  1.00183308  0.48733195  0.38286458  1
  O  O305  1  0.99200606  0.50817801  0.88676423  1
  O  O306  1  1.00497051  1.00827055  0.38164618  1
  O  O307  1  1.00423720  0.98836426  0.86562175  1
  O  O308  1  -0.01159311  0.03231788  0.16933967  1
  O  O309  1  0.02915941  -0.03157512  0.60415999  1
  O  O310  1  -0.00724565  0.50568304  0.11045213  1
  O  O311  1  0.00938990  0.49461285  0.61284404  1
  O  O312  1  0.48720056  -0.03303699  0.11471276  1
  O  O313  1  0.49829684  0.01155504  0.62090723  1
  O  O314  1  0.47093253  0.45861821  0.04456517  1
  O  O315  1  0.51355775  0.51196779  0.62034389  1
  O  O316  1  0.24927901  0.38413192  0.24473556  1
  O  O317  1  0.25389751  0.38023302  0.73939930  1
  O  O318  1  0.24098231  0.85850312  0.23367492  1
  O  O319  1  0.24506508  0.88674038  0.75181714  1
  O  O320  1  0.67501456  0.39628050  0.29090496  1
  O  O321  1  0.74315153  0.38391810  0.75093509  1
  O  O322  1  0.73410724  0.89953187  0.26279086  1
  O  O323  1  0.75936654  0.89355561  0.73928550  1
  O  O324  1  0.26800160  0.12205526  0.25271389  1
  O  O325  1  0.25701796  0.11394400  0.74704644  1
  O  O326  1  0.25463750  0.62094873  0.26457245  1
  O  O327  1  0.25264637  0.61585491  0.74514334  1
  O  O328  1  0.73422360  0.12133237  0.26682847  1
  O  O329  1  0.75588647  0.11664317  0.74990996  1
  O  O330  1  0.77107921  0.63589286  0.25059553  1
  O  O331  1  0.76209515  0.61540786  0.75527315  1
  O  O332  1  0.37657483  0.11473032  0.37770964  1
  O  O333  1  0.36187442  0.12919006  0.85530381  1
  O  O334  1  0.36620135  0.62309080  0.37875797  1
  O  O335  1  0.42369126  0.57375881  0.89180787  1
  O  O336  1  0.85696272  0.16297537  0.36336925  1
  O  O337  1  0.86092177  0.12939115  0.85566592  1
  O  O338  1  0.88111323  0.61264231  0.37029106  1
  O  O339  1  0.87387139  0.61959098  0.86364896  1
  O  O340  1  0.12731779  0.36986340  0.11484289  1
  O  O341  1  0.13396527  0.39081949  0.61787755  1
  O  O342  1  0.13421414  0.87255463  0.13121210  1
  O  O343  1  0.08980899  0.91303580  0.60641609  1
  O  O344  1  0.60720375  0.31184354  0.17043136  1
  O  O345  1  0.64416687  0.39055381  0.62664753  1
  O  O346  1  0.63592290  0.87261611  0.14682483  1
  O  O347  1  0.64563199  0.86793150  0.61868544  1
  O  O348  1  0.12929648  0.23975804  0.26181692  1
  O  O349  1  0.11304589  0.24885611  0.76013879  1
  O  O350  1  0.11979760  0.74918469  0.24974192  1
  O  O351  1  0.11547293  0.74121195  0.75620978  1
  O  O352  1  0.62012791  0.24849883  0.21278155  1
  O  O353  1  0.62729309  0.27013810  0.74786713  1
  O  O354  1  0.61330490  0.76158962  0.26166273  1
  O  O355  1  0.61885698  0.74503789  0.76548047  1
  O  O356  1  0.38214994  0.23749093  0.27477965  1
  O  O357  1  0.36974823  0.23931757  0.73527843  1
  O  O358  1  0.38915701  0.76214912  0.24952512  1
  O  O359  1  0.38018913  0.75231612  0.74007126  1
  O  O360  1  0.84458033  0.26085359  0.21742518  1
  O  O361  1  0.88778261  0.24712547  0.74699222  1
  O  O362  1  0.89953444  0.73674231  0.26869086  1
  O  O363  1  0.88532712  0.74430502  0.74281816  1
  O  O364  1  0.37791490  0.49107308  0.50806380  1
  O  O365  1  0.30888527  0.45796502  1.00370152  1
  O  O366  1  0.37456686  0.99247970  0.50204746  1
  O  O367  1  0.37715243  0.99283102  1.00255997  1
  O  O368  1  0.89420940  0.50867414  0.48864893  1
  O  O369  1  0.88470881  0.48612028  0.99225251  1
  O  O370  1  0.89206258  0.99179988  0.50615792  1
  O  O371  1  0.83611113  0.96624612  0.98195689  1
  O  O372  1  0.12767965  0.01036295  -0.00666302  1
  O  O373  1  0.11654254  0.01799839  0.48824484  1
  O  O374  1  0.11097204  0.51413028  -0.00806743  1
  O  O375  1  0.11629096  0.50539624  0.50318369  1
  O  O376  1  0.61689857  0.02273037  0.01752666  1
  O  O377  1  0.61119435  -0.00849040  0.49978881  1
  O  O378  1  0.64096095  0.51720492  0.00365738  1
  O  O379  1  0.60391057  0.49069603  0.50190012  1
  O  O380  1  0.43398302  0.31607413  0.13387541  1
  O  O381  1  0.36566185  0.36657191  0.61944051  1
  O  O382  1  0.35963395  0.86114634  0.10795553  1
  O  O383  1  0.38102079  0.85940780  0.62273802  1
  O  O384  1  0.87877043  0.35908201  0.10029686  1
  O  O385  1  0.86410905  0.36314114  0.63269472  1
  O  O386  1  0.88016074  0.87941575  0.10934374  1
  O  O387  1  0.87148264  0.86880326  0.61534643  1
  O  O388  1  0.11452013  0.14622700  0.38978245  1
  O  O389  1  0.13463442  0.12861054  0.88125260  1
  O  O390  1  0.13858983  0.62092835  0.38966061  1
  O  O391  1  0.11315418  0.63851089  0.89067996  1
  O  O392  1  0.63209029  0.12768407  0.38847396  1
  O  O393  1  0.63379460  0.13168076  0.85862256  1
  O  O394  1  0.62797849  0.63183629  0.36665467  1
  O  O395  1  0.63976992  0.62873782  0.88497492  1
