# generated using pymatgen
data_V35Zn35O128
_symmetry_space_group_name_H-M   'P 1'
_cell_length_a   16.89059412
_cell_length_b   16.85410396
_cell_length_c   16.90536417
_cell_angle_alpha   89.93974363
_cell_angle_beta   89.96556516
_cell_angle_gamma   90.41562893
_symmetry_Int_Tables_number   1
_chemical_formula_structural   V35Zn35O128
_chemical_formula_sum   'V70 Zn70 O256'
_cell_volume   4812.41838894
_cell_formula_units_Z   2
loop_
 _symmetry_equiv_pos_site_id
 _symmetry_equiv_pos_as_xyz
  1  'x, y, z'
loop_
 _atom_site_type_symbol
 _atom_site_label
 _atom_site_symmetry_multiplicity
 _atom_site_fract_x
 _atom_site_fract_y
 _atom_site_fract_z
 _atom_site_occupancy
  V  V0  1  0.12997322  0.84608172  0.74515603  1
  V  V1  1  0.62666425  0.00870569  0.10038558  1
  V  V2  1  0.87330306  0.37072778  0.00297963  1
  V  V3  1  0.87551399  0.00520681  0.84947203  1
  V  V4  1  0.01087681  0.36440106  0.36746740  1
  V  V5  1  0.51834646  0.75201184  0.25883757  1
  V  V6  1  0.89255446  0.13272963  0.25103714  1
  V  V7  1  0.73678818  0.62655048  0.37713485  1
  V  V8  1  0.75536974  -0.00406043  0.24697257  1
  V  V9  1  0.61657440  0.27015666  0.36643482  1
  V  V10  1  0.90098612  0.24883950  0.12803773  1
  V  V11  1  0.74343845  0.75030698  0.50221570  1
  V  V12  1  0.00733426  0.36799163  0.86517720  1
  V  V13  1  0.73599957  0.38429363  0.64022537  1
  V  V14  1  0.13552093  -0.01921367  0.12594979  1
  V  V15  1  -0.00193208  0.00306011  0.00344123  1
  V  V16  1  0.24381747  0.63774165  0.38873379  1
  V  V17  1  0.12800709  0.62136540  -0.01927758  1
  V  V18  1  0.87859833  0.50203949  0.38214556  1
  V  V19  1  0.49339737  0.87698730  0.89042508  1
  V  V20  1  0.57780581  0.93256415  0.29829759  1
  V  V21  1  0.88300159  0.74598542  0.63269571  1
  V  V22  1  0.49682992  0.49182092  -0.00419927  1
  V  V23  1  0.73876295  0.49607420  0.25097244  1
  V  V24  1  0.87776235  0.49945635  0.87056295  1
  V  V25  1  0.88216962  0.00163624  0.37730517  1
  V  V26  1  0.76325870  0.73907833  0.00041007  1
  V  V27  1  0.03282983  0.08961767  0.61285579  1
  V  V28  1  -0.00174338  0.75228718  0.23139197  1
  V  V29  1  0.00460268  0.50194483  0.01982506  1
  V  V30  1  0.23945626  0.49886053  0.74981386  1
  V  V31  1  0.25880612  0.37487661  0.61310378  1
  V  V32  1  0.30452937  0.00029127  0.21801745  1
  V  V33  1  0.24696787  0.00002083  0.75607862  1
  V  V34  1  0.61943993  0.88105182  0.76025564  1
  V  V35  1  0.38083456  0.14036015  0.75637995  1
  V  V36  1  0.00439482  0.86364241  0.37188244  1
  V  V37  1  0.26649896  0.25930746  -0.01655075  1
  V  V38  1  0.38838260  0.62943184  0.74349901  1
  V  V39  1  0.50910093  0.37140697  0.85722911  1
  V  V40  1  0.47932762  0.25719511  0.24706353  1
  V  V41  1  0.74508667  0.25282631  0.49453188  1
  V  V42  1  0.36569851  0.50315887  0.87707074  1
  V  V43  1  0.27476551  0.10518063  0.39161315  1
  V  V44  1  0.24525686  0.75340672  -0.01154295  1
  V  V45  1  0.36536463  0.76211016  0.12553412  1
  V  V46  1  0.74948776  0.87948270  0.63651156  1
  V  V47  1  0.37654762  0.49358586  0.38193729  1
  V  V48  1  0.50667483  0.63254426  0.11749580  1
  V  V49  1  0.37025999  0.62433103  0.25321886  1
  V  V50  1  0.62532925  0.74475294  0.88387274  1
  V  V51  1  0.70594896  0.57001743  0.82914787  1
  V  V52  1  0.37705989  0.75661606  0.61256139  1
  V  V53  1  0.11631755  0.49902485  0.60316316  1
  V  V54  1  0.73835544  0.12221742  0.37312987  1
  V  V55  1  0.49827966  0.49079402  0.50995875  1
  V  V56  1  0.76317786  0.87614774  0.11087373  1
  V  V57  1  0.24643644  0.23896813  0.50348457  1
  V  V58  1  0.87020238  0.88046689  0.49981137  1
  V  V59  1  0.87142145  0.63050229  0.23518133  1
  V  V60  1  0.00542998  0.86258000  0.87350512  1
  V  V61  1  0.24141187  0.36253953  0.14261077  1
  V  V62  1  0.62267809  0.49891233  0.11827217  1
  V  V63  1  0.87864065  0.37597988  0.50481544  1
  V  V64  1  0.88259367  0.62790498  0.75758017  1
  V  V65  1  0.49410216  0.12796490  0.61714196  1
  V  V66  1  0.61701346  0.62268417  0.52369575  1
  V  V67  1  0.87864614  0.24178383  0.64771450  1
  V  V68  1  0.62487212  0.00495368  0.60808018  1
  V  V69  1  0.73958874  0.35988290  0.12762486  1
  Zn  Zn70  1  0.12910908  0.13964250  0.01389145  1
  Zn  Zn71  1  0.57633243  0.81148858  0.43207622  1
  Zn  Zn72  1  0.01954485  0.63115193  0.63627653  1
  Zn  Zn73  1  0.67639066  0.19718308  -0.02781403  1
  Zn  Zn74  1  0.46421430  0.12168142  0.13209817  1
  Zn  Zn75  1  0.37663374  0.01552111  0.88554278  1
  Zn  Zn76  1  0.28058282  0.18546589  0.19887159  1
  Zn  Zn77  1  0.20262252  0.17343531  0.67858612  1
  Zn  Zn78  1  0.20686169  0.72855587  0.23746846  1
  Zn  Zn79  1  0.20214830  0.68039560  0.68252643  1
  Zn  Zn80  1  0.62793825  0.14061396  0.22908232  1
  Zn  Zn81  1  0.68989496  0.19129026  0.67003870  1
  Zn  Zn82  1  0.69375173  0.68693712  0.18071478  1
  Zn  Zn83  1  0.68597443  0.69699480  0.69503511  1
  Zn  Zn84  1  0.30344157  0.30012956  0.33503948  1
  Zn  Zn85  1  0.32073823  0.32341712  0.80602498  1
  Zn  Zn86  1  0.32593337  0.82265625  0.31839464  1
  Zn  Zn87  1  0.30926612  0.80941288  0.80922934  1
  Zn  Zn88  1  0.81353822  0.31252482  0.31103546  1
  Zn  Zn89  1  0.80830722  0.18963913  0.84006151  1
  Zn  Zn90  1  0.80677117  0.81236130  0.31282302  1
  Zn  Zn91  1  0.81591644  0.81563505  0.82153991  1
  Zn  Zn92  1  0.19228962  0.44582478  0.43010232  1
  Zn  Zn93  1  0.18684172  0.42669192  0.94538522  1
  Zn  Zn94  1  0.16980374  0.95307610  0.32516505  1
  Zn  Zn95  1  0.18559483  0.93743941  0.93162944  1
  Zn  Zn96  1  0.68526599  0.44172114  0.44558718  1
  Zn  Zn97  1  0.69995567  0.33504461  0.83514143  1
  Zn  Zn98  1  0.49955745  0.98935451  0.47865422  1
  Zn  Zn99  1  0.69607844  0.93978228  0.93370981  1
  Zn  Zn100  1  0.29131590  0.07871794  0.05539328  1
  Zn  Zn101  1  0.30996086  0.04906790  0.57609725  1
  Zn  Zn102  1  0.31572373  0.56891202  0.06374383  1
  Zn  Zn103  1  0.30973753  0.56948980  0.56258677  1
  Zn  Zn104  1  0.81038298  0.07516531  0.05960985  1
  Zn  Zn105  1  0.80971240  0.06424236  0.56047928  1
  Zn  Zn106  1  0.80657576  0.55357796  0.05570764  1
  Zn  Zn107  1  0.80656060  0.56342731  0.56789224  1
  Zn  Zn108  1  0.43812608  0.44160731  0.19481298  1
  Zn  Zn109  1  0.42732967  0.43419643  0.68449145  1
  Zn  Zn110  1  0.44633201  0.94429765  0.06961469  1
  Zn  Zn111  1  0.43106451  0.94376947  0.69611070  1
  Zn  Zn112  1  0.93086867  0.43758143  0.19526317  1
  Zn  Zn113  1  0.94020699  0.43608124  0.68492440  1
  Zn  Zn114  1  0.94377728  0.94163580  0.18674994  1
  Zn  Zn115  1  0.94653228  0.93237266  0.69046869  1
  Zn  Zn116  1  0.10450459  0.12410793  0.22450085  1
  Zn  Zn117  1  0.04452922  0.05595968  0.79718983  1
  Zn  Zn118  1  0.05237021  0.57985820  0.32190838  1
  Zn  Zn119  1  0.05901732  0.55741538  0.81414796  1
  Zn  Zn120  1  0.44967403  0.06588470  0.30536576  1
  Zn  Zn121  1  0.54402606  0.04827211  0.79517247  1
  Zn  Zn122  1  0.55526002  0.55972031  0.31194749  1
  Zn  Zn123  1  0.54122414  0.51951301  0.76906388  1
  Zn  Zn124  1  0.43638988  0.19387195  0.44967650  1
  Zn  Zn125  1  0.46188310  0.19593738  0.94377964  1
  Zn  Zn126  1  0.43795657  0.68553684  0.44069316  1
  Zn  Zn127  1  0.43221150  0.68873640  0.93486919  1
  Zn  Zn128  1  0.94073318  0.18921130  0.44585999  1
  Zn  Zn129  1  0.94582444  0.18186596  0.94165021  1
  Zn  Zn130  1  0.92126921  0.69658584  0.43128087  1
  Zn  Zn131  1  0.94198292  0.68293475  0.94778591  1
  Zn  Zn132  1  0.07575352  0.31900256  0.06113216  1
  Zn  Zn133  1  0.06640811  0.30917391  0.56484893  1
  Zn  Zn134  1  0.06270251  0.81193104  0.05532890  1
  Zn  Zn135  1  0.05836907  0.88549293  0.56558688  1
  Zn  Zn136  1  0.55401640  0.30474238  0.06576497  1
  Zn  Zn137  1  0.56244388  0.31372811  0.55796961  1
  Zn  Zn138  1  0.57925059  0.81811303  0.06643788  1
  Zn  Zn139  1  0.52525699  0.83110304  0.59867802  1
  O  O140  1  0.14426815  0.09878647  0.12025584  1
  O  O141  1  0.13162286  0.11493250  0.61089975  1
  O  O142  1  0.14056816  0.54428949  0.18211254  1
  O  O143  1  0.13161286  0.60585963  0.63038474  1
  O  O144  1  0.64651288  0.10847355  0.12142632  1
  O  O145  1  0.61843163  0.11171379  0.62786768  1
  O  O146  1  0.61185970  0.61746092  0.13006747  1
  O  O147  1  0.62916185  0.62577478  0.62246785  1
  O  O148  1  0.36280098  0.39609174  0.37373816  1
  O  O149  1  0.39296034  0.39832177  0.86649276  1
  O  O150  1  0.38212095  0.88831019  0.40241875  1
  O  O151  1  0.39579208  0.85941388  0.87387405  1
  O  O152  1  0.87360168  0.38861663  0.38153593  1
  O  O153  1  0.88095113  0.39152237  0.88949401  1
  O  O154  1  0.86873572  0.88097074  0.38574390  1
  O  O155  1  0.89674016  0.88816443  0.85863926  1
  O  O156  1  0.22101230  0.01925685  0.40835502  1
  O  O157  1  0.26540787  -0.00889551  0.87058855  1
  O  O158  1  0.26849616  0.52160254  0.38296106  1
  O  O159  1  0.26033849  0.48775794  0.86691817  1
  O  O160  1  0.76417617  0.01382368  0.36659323  1
  O  O161  1  0.77914587  -0.01113472  0.87438146  1
  O  O162  1  0.75193655  0.50598861  0.36797477  1
  O  O163  1  0.76853066  0.50978981  0.88837427  1
  O  O164  1  0.28876629  0.47348362  0.13214964  1
  O  O165  1  0.24129517  0.49331331  0.62794120  1
  O  O166  1  0.25172089  0.98280086  0.12347608  1
  O  O167  1  0.25726425  0.98800461  0.65410613  1
  O  O168  1  0.73851901  0.49766132  0.13333774  1
  O  O169  1  0.74984225  0.48408741  0.62348203  1
  O  O170  1  0.75137520  0.99551841  0.12869355  1
  O  O171  1  0.73777374  0.99111784  0.61977747  1
  O  O172  1  -0.00709057  0.38145083  0.26907365  1
  O  O173  1  -0.00531317  0.38069194  0.76582470  1
  O  O174  1  -0.01526464  0.86124285  0.26038867  1
  O  O175  1  0.02006773  0.87399696  0.75725749  1
  O  O176  1  0.48853685  0.35919555  0.25174958  1
  O  O177  1  0.51184685  0.40496067  0.75585856  1
  O  O178  1  0.51509267  0.86144550  0.24863622  1
  O  O179  1  0.51635482  0.87449809  0.76400377  1
  O  O180  1  0.50860707  0.13973359  0.24253250  1
  O  O181  1  0.49286293  0.12532428  0.73346308  1
  O  O182  1  0.49548227  0.63645254  0.24217203  1
  O  O183  1  0.48912716  0.61534994  0.75085641  1
  O  O184  1  0.99074546  0.12616929  0.24903813  1
  O  O185  1  1.00308229  0.11345414  0.70789901  1
  O  O186  1  0.97927831  0.63613318  0.25318921  1
  O  O187  1  0.98730477  0.62355749  0.75024651  1
  O  O188  1  0.36700134  0.24862439  -0.00927211  1
  O  O189  1  0.34553961  0.26344613  0.47026640  1
  O  O190  1  0.35621982  0.73339529  0.01728808  1
  O  O191  1  0.37859902  0.74876698  0.51071903  1
  O  O192  1  0.88623332  0.25617138  0.02001389  1
  O  O193  1  0.86246420  0.26741824  0.49215868  1
  O  O194  1  0.86350145  0.74683061  -0.00125546  1
  O  O195  1  0.86343264  0.75231882  0.51491506  1
  O  O196  1  0.14428771  0.25485185  0.49707606  1
  O  O197  1  0.13765569  0.25255537  0.99761764  1
  O  O198  1  0.08297330  0.70308701  0.49248956  1
  O  O199  1  0.13233200  0.73005860  1.00827490  1
  O  O200  1  0.63816721  0.25443795  0.48501309  1
  O  O201  1  0.57019502  0.22112273  0.99162691  1
  O  O202  1  0.63408507  0.73649063  0.50219661  1
  O  O203  1  0.63774310  0.75358740  0.98967360  1
  O  O204  1  0.48503107  0.24822875  0.14236711  1
  O  O205  1  0.50577107  0.22790521  0.60605215  1
  O  O206  1  0.50202460  0.74173971  0.12857812  1
  O  O207  1  0.48338054  0.73576463  0.63712986  1
  O  O208  1  0.99913370  0.25446583  0.13091871  1
  O  O209  1  0.97750014  0.26322943  0.62541013  1
  O  O210  1  0.98847201  0.76188578  0.13232023  1
  O  O211  1  0.98232075  0.74633258  0.62338614  1
  O  O212  1  -0.00227509  0.26455335  0.37968365  1
  O  O213  1  -0.01186477  0.26977066  0.88430244  1
  O  O214  1  -0.01276197  0.75903447  0.36308787  1
  O  O215  1  -0.00596592  0.76307815  0.88251951  1
  O  O216  1  0.51302619  0.24579066  0.37555979  1
  O  O217  1  0.48921629  0.27437511  0.85659637  1
  O  O218  1  0.50498592  0.74616886  0.36230612  1
  O  O219  1  0.51811176  0.75567839  0.88801289  1
  O  O220  1  0.26491604  0.13099805  0.50655409  1
  O  O221  1  0.24197958  0.14722822  0.98421749  1
  O  O222  1  0.25092689  0.63992845  0.48816174  1
  O  O223  1  0.22922296  0.62255931  1.01501311  1
  O  O224  1  0.76170982  0.13814882  0.48061444  1
  O  O225  1  0.75597109  0.12113420  0.97529757  1
  O  O226  1  0.73741469  0.62845465  0.49760934  1
  O  O227  1  0.74794025  0.63911563  1.01045363  1
  O  O228  1  0.24904378  0.36663522  0.01555065  1
  O  O229  1  0.24516171  0.37445790  0.50913403  1
  O  O230  1  0.23912872  0.85235836  -0.00275649  1
  O  O231  1  0.33958056  0.90956428  0.46559700  1
  O  O232  1  0.77081618  0.38632953  0.02394306  1
  O  O233  1  0.75712861  0.36988137  0.50222657  1
  O  O234  1  0.75857127  0.87208068  0.00783883  1
  O  O235  1  0.75866549  0.86370124  0.51492159  1
  O  O236  1  0.11716189  0.50386254  0.23927736  1
  O  O237  1  0.13868105  0.49952694  0.75452913  1
  O  O238  1  0.12074244  1.00204896  0.23241555  1
  O  O239  1  0.14630575  1.01493642  0.76712887  1
  O  O240  1  0.63171053  0.50329031  0.24115326  1
  O  O241  1  0.65329504  0.50926029  0.77096845  1
  O  O242  1  0.63891238  1.00277590  0.24647792  1
  O  O243  1  0.63403589  0.98359367  0.76495428  1
  O  O244  1  0.40159577  -0.01630384  0.23410386  1
  O  O245  1  0.37090338  0.00917363  0.76307112  1
  O  O246  1  0.38890081  0.51916993  0.26665656  1
  O  O247  1  0.37103752  0.50784101  0.75980510  1
  O  O248  1  0.87264084  0.01531690  0.25267871  1
  O  O249  1  0.87855742  0.00308978  0.74843727  1
  O  O250  1  0.86230763  0.51097836  0.26180134  1
  O  O251  1  0.87689109  0.50672482  0.76504620  1
  O  O252  1  0.10853256  0.38797488  0.37973515  1
  O  O253  1  0.10622866  0.38262864  0.87982934  1
  O  O254  1  0.10335092  0.87479825  0.37856104  1
  O  O255  1  0.11374091  0.87401373  0.86315058  1
  O  O256  1  0.62764768  0.36949509  0.37349634  1
  O  O257  1  0.60742645  0.38132549  0.88134964  1
  O  O258  1  0.63605996  0.87830140  0.35744455  1
  O  O259  1  0.62069292  0.86814455  0.87457127  1
  O  O260  1  0.34756659  0.10348386  0.15270437  1
  O  O261  1  0.38845027  0.11455111  0.63507208  1
  O  O262  1  0.38843061  0.63172564  0.13695383  1
  O  O263  1  0.37318473  0.63008270  0.63781084  1
  O  O264  1  0.87461985  0.14021799  0.13775187  1
  O  O265  1  0.85630192  0.14414022  0.62593359  1
  O  O266  1  0.86675184  0.61772574  0.13778055  1
  O  O267  1  0.87027536  0.63551699  0.63447427  1
  O  O268  1  0.26418277  0.26283093  0.11339654  1
  O  O269  1  0.24684784  0.26132519  0.61482899  1
  O  O270  1  0.26448065  0.75539194  0.13950279  1
  O  O271  1  0.27595228  0.75152484  0.63649048  1
  O  O272  1  0.74384300  0.26287460  0.12512691  1
  O  O273  1  0.75936239  0.26323299  0.61376195  1
  O  O274  1  0.74282727  0.76563835  0.11320539  1
  O  O275  1  0.75343969  0.75788306  0.62002329  1
  O  O276  1  0.23927518  0.20557530  0.38042201  1
  O  O277  1  0.25304393  0.27899470  0.88417417  1
  O  O278  1  0.24997454  0.74017235  0.34824027  1
  O  O279  1  0.25623299  0.74087274  0.89122646  1
  O  O280  1  0.74085471  0.24426823  0.37340944  1
  O  O281  1  0.74859822  0.26199195  0.90356573  1
  O  O282  1  0.75815571  0.73976432  0.39124447  1
  O  O283  1  0.74428167  0.75797712  0.89150156  1
  O  O284  1  0.01951893  0.10898251  -0.00980763  1
  O  O285  1  -0.01221211  0.12943205  0.52879089  1
  O  O286  1  0.01516251  0.61417361  0.00412096  1
  O  O287  1  0.02504635  0.65478141  0.49544075  1
  O  O288  1  0.45631627  0.09608100  0.01498389  1
  O  O289  1  0.48652826  0.10315770  0.51288707  1
  O  O290  1  0.49443796  0.62221089  0.01577266  1
  O  O291  1  0.51645927  0.62583397  0.50152387  1
  O  O292  1  0.50486840  0.39125123  0.49778977  1
  O  O293  1  0.49482583  0.39095685  1.00295950  1
  O  O294  1  0.51804559  0.87805743  0.49882511  1
  O  O295  1  0.50225595  0.87287243  0.99549502  1
  O  O296  1  0.98094712  0.37550280  0.49127119  1
  O  O297  1  0.99328299  0.38879671  1.00166522  1
  O  O298  1  0.98302573  0.86378209  0.48498199  1
  O  O299  1  1.01007242  0.88779900  0.98242086  1
  O  O300  1  0.48627535  0.50996545  0.38736608  1
  O  O301  1  0.49856749  0.50134599  0.89060490  1
  O  O302  1  0.51894164  0.98976113  0.36047924  1
  O  O303  1  0.49758180  0.98216889  0.87823934  1
  O  O304  1  0.98073167  0.50485461  0.37598513  1
  O  O305  1  0.99000880  0.49446807  0.88554204  1
  O  O306  1  0.98179433  0.97877304  0.36547361  1
  O  O307  1  0.99283505  0.99578553  0.88002846  1
  O  O308  1  0.01506566  -0.00847756  0.11071027  1
  O  O309  1  0.01421574  -0.01600107  0.60900484  1
  O  O310  1  -0.00555551  0.49834722  0.11839164  1
  O  O311  1  0.01081750  0.50613081  0.62410410  1
  O  O312  1  0.52467933  0.00585023  0.12613247  1
  O  O313  1  0.51810154  0.00115936  0.63296409  1
  O  O314  1  0.50223206  0.50993550  0.12142627  1
  O  O315  1  0.49083819  0.50038224  0.61012378  1
  O  O316  1  0.25620044  0.35568931  0.24365647  1
  O  O317  1  0.25789694  0.38993890  0.73260258  1
  O  O318  1  0.26675054  0.91306112  0.27124110  1
  O  O319  1  0.23373437  0.88077460  0.76398069  1
  O  O320  1  0.75764965  0.38522064  0.23654024  1
  O  O321  1  0.74917472  0.37186764  0.73970355  1
  O  O322  1  0.75835193  0.89068677  0.24375152  1
  O  O323  1  0.74649168  0.86931380  0.74029209  1
  O  O324  1  0.26973862  0.07854813  0.28043378  1
  O  O325  1  0.27038983  0.11594099  0.74983380  1
  O  O326  1  0.27010899  0.62457239  0.24189670  1
  O  O327  1  0.26308921  0.60235045  0.74802533  1
  O  O328  1  0.75719793  0.11807544  0.26246783  1
  O  O329  1  0.71969634  0.13238668  0.77463186  1
  O  O330  1  0.75515766  0.61924955  0.25705160  1
  O  O331  1  0.76150567  0.62728679  0.76083004  1
  O  O332  1  0.37926176  0.10300336  0.38957433  1
  O  O333  1  0.40073252  0.13150198  0.85846526  1
  O  O334  1  0.36711783  0.63217759  0.36364544  1
  O  O335  1  0.37893441  0.61012497  0.86666541  1
  O  O336  1  0.87953614  0.12208583  0.36450671  1
  O  O337  1  0.88826893  0.11246831  0.86706917  1
  O  O338  1  0.86046293  0.61325390  0.37823819  1
  O  O339  1  0.88495242  0.61327333  0.87139017  1
  O  O340  1  0.14076565  0.37894787  0.13295675  1
  O  O341  1  0.13082579  0.39191263  0.62046307  1
  O  O342  1  0.12684290  0.87950943  0.12484413  1
  O  O343  1  0.13039473  0.86054797  0.64297090  1
  O  O344  1  0.63378902  0.37997137  0.11752130  1
  O  O345  1  0.63735147  0.36578623  0.62554476  1
  O  O346  1  0.64519229  0.89530134  0.12144877  1
  O  O347  1  0.62849308  0.88473981  0.64301082  1
  O  O348  1  0.17762688  0.20491649  0.24636389  1
  O  O349  1  0.13112327  0.22669658  0.77579884  1
  O  O350  1  0.09705180  0.74039713  0.24231189  1
  O  O351  1  0.13432508  0.74655750  0.75278143  1
  O  O352  1  0.61631630  0.25354341  0.26361470  1
  O  O353  1  0.63048906  0.23218526  0.76933565  1
  O  O354  1  0.61673331  0.74188131  0.24736852  1
  O  O355  1  0.63606735  0.76422826  0.77219136  1
  O  O356  1  0.37960878  0.23749682  0.26803716  1
  O  O357  1  0.36939618  0.23942975  0.74347902  1
  O  O358  1  0.38994508  0.74680239  0.24059259  1
  O  O359  1  0.37424978  0.72928714  0.76107660  1
  O  O360  1  0.87507569  0.24111805  0.24294414  1
  O  O361  1  0.86384164  0.24706704  0.74584123  1
  O  O362  1  0.86868270  0.73521726  0.25005736  1
  O  O363  1  0.86811161  0.74364565  0.74017525  1
  O  O364  1  0.38674702  0.51302029  0.49192018  1
  O  O365  1  0.38407805  0.51110711  0.98733804  1
  O  O366  1  0.37349051  0.97457806  0.50198962  1
  O  O367  1  0.39541981  1.03269320  1.00587635  1
  O  O368  1  0.86425896  0.49166711  0.48992742  1
  O  O369  1  0.88868240  0.49772003  0.99771927  1
  O  O370  1  0.86843887  0.98960231  0.49285581  1
  O  O371  1  0.89724416  1.00888556  1.00652417  1
  O  O372  1  0.12590411  -0.00291256  0.01079789  1
  O  O373  1  0.08574901  0.07204488  0.42713123  1
  O  O374  1  0.11378947  0.50873918  0.00166066  1
  O  O375  1  0.12383082  0.50639817  0.50458792  1
  O  O376  1  0.63056594  0.00550187  -0.00004560  1
  O  O377  1  0.62348000  0.00187418  0.51103102  1
  O  O378  1  0.60698363  0.50515399  0.01504911  1
  O  O379  1  0.61362219  0.51426217  0.50004581  1
  O  O380  1  0.34978611  0.41577392  0.12170988  1
  O  O381  1  0.35945914  0.37825154  0.61513038  1
  O  O382  1  0.38526711  0.85966189  0.11875325  1
  O  O383  1  0.39732263  0.86010819  0.63040690  1
  O  O384  1  0.87215448  0.35984068  0.12745564  1
  O  O385  1  0.86670058  0.37289014  0.61397673  1
  O  O386  1  0.86171782  0.88271595  0.12880143  1
  O  O387  1  0.87064642  0.86546171  0.62228930  1
  O  O388  1  0.08766031  0.13015424  0.38316044  1
  O  O389  1  0.11228122  0.18140769  0.83120894  1
  O  O390  1  0.14651732  0.61881156  0.36497116  1
  O  O391  1  0.12876582  0.62191255  0.88229730  1
  O  O392  1  0.63994232  0.12671939  0.37053066  1
  O  O393  1  0.64893739  0.16293620  0.81059767  1
  O  O394  1  0.63561778  0.62100366  0.37542771  1
  O  O395  1  0.63709118  0.63678354  0.87363800  1
