# generated using pymatgen
data_V35Zn35O128
_symmetry_space_group_name_H-M   'P 1'
_cell_length_a   16.96076890
_cell_length_b   16.84296574
_cell_length_c   16.88642189
_cell_angle_alpha   90.23620162
_cell_angle_beta   89.76822910
_cell_angle_gamma   90.23738778
_symmetry_Int_Tables_number   1
_chemical_formula_structural   V35Zn35O128
_chemical_formula_sum   'V70 Zn70 O256'
_cell_volume   4823.81669405
_cell_formula_units_Z   2
loop_
 _symmetry_equiv_pos_site_id
 _symmetry_equiv_pos_as_xyz
  1  'x, y, z'
loop_
 _atom_site_type_symbol
 _atom_site_label
 _atom_site_symmetry_multiplicity
 _atom_site_fract_x
 _atom_site_fract_y
 _atom_site_fract_z
 _atom_site_occupancy
  V  V0  1  0.26033773  0.50054675  0.24765885  1
  V  V1  1  0.50531812  0.48105726  -0.00317707  1
  V  V2  1  0.85976348  0.74258595  0.62320599  1
  V  V3  1  0.39473110  0.24269072  0.61342252  1
  V  V4  1  0.37437591  0.87330347  0.01042991  1
  V  V5  1  0.12933535  0.62168937  0.01107890  1
  V  V6  1  0.14223681  0.88024795  0.74901914  1
  V  V7  1  0.25012708  0.87534888  0.12793537  1
  V  V8  1  0.36615173  0.72421425  0.12723277  1
  V  V9  1  0.00987918  0.49270335  0.01635086  1
  V  V10  1  0.01384287  0.37328350  0.38139982  1
  V  V11  1  0.36996441  0.13091836  0.24838405  1
  V  V12  1  0.74351820  0.25803535  0.50974679  1
  V  V13  1  0.77525943  0.13345892  0.85538724  1
  V  V14  1  0.11386545  0.12885938  0.50078273  1
  V  V15  1  0.50706262  0.73863221  0.24410286  1
  V  V16  1  0.62136497  0.87734027  0.24364118  1
  V  V17  1  0.87589905  0.11420700  0.25520121  1
  V  V18  1  0.87338790  0.38051521  0.50180192  1
  V  V19  1  0.11981873  0.36924094  0.74943695  1
  V  V20  1  0.37483189  0.47607626  0.86707239  1
  V  V21  1  0.13179560  0.75032730  0.88105189  1
  V  V22  1  0.35862520  0.25975877  0.11458440  1
  V  V23  1  0.63462231  0.74521930  0.89430574  1
  V  V24  1  0.11369298  0.25277373  0.87345289  1
  V  V25  1  0.86675338  0.61925400  0.76272015  1
  V  V26  1  0.62768198  0.38030686  0.23984343  1
  V  V27  1  0.74830018  0.38485635  0.11463297  1
  V  V28  1  0.89556824  0.48569414  0.88160355  1
  V  V29  1  0.00611353  0.25431732  0.25711570  1
  V  V30  1  0.25074886  0.34822604  0.61965400  1
  V  V31  1  0.24713209  0.13100651  0.38333170  1
  V  V32  1  0.26255721  0.62029891  0.37832709  1
  V  V33  1  0.14925849  -0.00434838  0.61865033  1
  V  V34  1  0.59187118  0.24030462  0.87032472  1
  V  V35  1  0.13149425  0.38030639  0.23463130  1
  V  V36  1  0.87412234  0.25806425  0.11821491  1
  V  V37  1  0.75421467  0.11769170  0.37716712  1
  V  V38  1  0.37923614  0.38541368  0.49784202  1
  V  V39  1  0.00404043  0.75598202  0.75368799  1
  V  V40  1  -0.00292536  0.73540305  0.24268278  1
  V  V41  1  0.00340160  0.62273032  0.62747090  1
  V  V42  1  0.62302813  0.24828286  0.36963828  1
  V  V43  1  0.26165203  0.62067173  0.86392556  1
  V  V44  1  0.25153857  0.13726856  0.87424127  1
  V  V45  1  0.00198435  0.12611937  0.12490661  1
  V  V46  1  0.74159002  0.89559646  0.62955684  1
  V  V47  1  0.62168383  0.11026546  0.50402619  1
  V  V48  1  0.61556307  0.50271371  0.61449141  1
  V  V49  1  0.87968195  0.88639405  0.51244775  1
  V  V50  1  0.50562104  0.10007758  0.62288040  1
  V  V51  1  0.88915219  0.24662953  0.63734911  1
  V  V52  1  0.13220096  0.00020074  0.12795338  1
  V  V53  1  0.37985156  0.87926464  0.50860787  1
  V  V54  1  0.52274824  0.61228274  0.11471579  1
  V  V55  1  0.85650128  0.75896090  0.08570893  1
  V  V56  1  0.62158629  0.87659796  0.74783663  1
  V  V57  1  0.13863974  0.50540076  0.62963367  1
  V  V58  1  0.49777278  0.87386073  0.87572971  1
  V  V59  1  0.36967997  0.11563459  0.74220336  1
  V  V60  1  0.24836059  0.75900749  0.50648138  1
  V  V61  1  0.37859797  -0.01212477  0.36592491  1
  V  V62  1  0.50898139  0.12691086  0.12680661  1
  V  V63  1  0.00032797  -0.01436179  -0.00517538  1
  V  V64  1  0.00387890  0.50590039  0.50060502  1
  V  V65  1  0.35961778  -0.00718182  0.87329876  1
  V  V66  1  0.11713849  0.73910737  0.38143334  1
  V  V67  1  0.12325042  0.87863970  0.26068855  1
  V  V68  1  0.49633891  0.38134712  0.37093939  1
  V  V69  1  0.58542258  0.37401968  0.75268875  1
  Zn  Zn70  1  0.13609797  0.13359254  0.01091938  1
  Zn  Zn71  1  0.48338504  0.72929152  0.75978445  1
  Zn  Zn72  1  0.74073792  0.47655001  0.73813749  1
  Zn  Zn73  1  0.72760000  0.24199732  -0.00322799  1
  Zn  Zn74  1  0.94527978  0.02786552  0.43432777  1
  Zn  Zn75  1  0.51386198  0.01305836  -0.00084290  1
  Zn  Zn76  1  0.19072047  0.18792056  0.19988868  1
  Zn  Zn77  1  0.18129329  0.17600934  0.68906500  1
  Zn  Zn78  1  0.19149726  0.68729369  0.19616316  1
  Zn  Zn79  1  0.19224433  0.68899076  0.68935208  1
  Zn  Zn80  1  0.69611484  0.18777600  0.18912359  1
  Zn  Zn81  1  0.68093016  0.19415821  0.69501205  1
  Zn  Zn82  1  0.65421182  0.73462736  0.10960986  1
  Zn  Zn83  1  0.66863202  0.67919006  0.70284034  1
  Zn  Zn84  1  0.30898417  0.31116224  0.31322986  1
  Zn  Zn85  1  0.32145175  0.30933560  0.79162994  1
  Zn  Zn86  1  0.30949913  0.80708461  0.30691142  1
  Zn  Zn87  1  0.31334790  0.79565514  0.81282565  1
  Zn  Zn88  1  0.83712426  0.35656409  0.29103058  1
  Zn  Zn89  1  0.80883104  0.31559077  0.81925493  1
  Zn  Zn90  1  0.81159388  0.81961800  0.24238071  1
  Zn  Zn91  1  0.80288246  0.80053892  0.80823107  1
  Zn  Zn92  1  0.19123883  0.43744257  0.44487812  1
  Zn  Zn93  1  0.19308688  0.43756097  0.93519147  1
  Zn  Zn94  1  0.19550246  0.94467232  0.43431766  1
  Zn  Zn95  1  0.18285911  0.93367744  0.94470420  1
  Zn  Zn96  1  0.68311909  0.43391024  0.43606516  1
  Zn  Zn97  1  0.68068303  0.41764438  0.92046235  1
  Zn  Zn98  1  0.74525317  0.90074950  0.39845360  1
  Zn  Zn99  1  0.66970766  0.97437783  0.89163147  1
  Zn  Zn100  1  0.31509186  0.06332641  0.06021498  1
  Zn  Zn101  1  0.31416060  0.06057739  0.54915407  1
  Zn  Zn102  1  0.29485266  0.53592698  0.04841983  1
  Zn  Zn103  1  0.31341141  0.57151475  0.55293720  1
  Zn  Zn104  1  0.80708042  0.03849543  -0.00878617  1
  Zn  Zn105  1  0.80612459  0.07152555  0.57305891  1
  Zn  Zn106  1  0.82507629  0.56563840  0.06287115  1
  Zn  Zn107  1  0.81077227  0.55559464  0.57252260  1
  Zn  Zn108  1  0.43868209  0.43623032  0.18784807  1
  Zn  Zn109  1  0.44776385  0.55041235  0.69503771  1
  Zn  Zn110  1  0.44729056  0.94173738  0.19283505  1
  Zn  Zn111  1  0.40750591  0.89681137  0.70767865  1
  Zn  Zn112  1  0.94041696  0.45759480  0.19717460  1
  Zn  Zn113  1  0.93605840  0.43232939  0.68873597  1
  Zn  Zn114  1  0.94563362  0.93171904  0.18793664  1
  Zn  Zn115  1  0.92906110  0.92863860  0.69950872  1
  Zn  Zn116  1  0.06544025  0.06082896  0.31428019  1
  Zn  Zn117  1  0.06755390  0.05754188  0.81139454  1
  Zn  Zn118  1  0.06690964  0.55996982  0.31534331  1
  Zn  Zn119  1  0.06831437  0.56343802  0.80913917  1
  Zn  Zn120  1  0.55354177  0.06260307  0.31227991  1
  Zn  Zn121  1  0.55314543  0.06073662  0.80868041  1
  Zn  Zn122  1  0.55590106  0.55768294  0.30353793  1
  Zn  Zn123  1  0.56541217  0.55858489  0.82798953  1
  Zn  Zn124  1  0.44109776  0.18212312  0.43273696  1
  Zn  Zn125  1  0.42850914  0.18838234  0.94774635  1
  Zn  Zn126  1  0.42308239  0.71597758  0.41731993  1
  Zn  Zn127  1  0.44119195  0.68763657  0.94849663  1
  Zn  Zn128  1  0.93530028  0.19860912  0.44154683  1
  Zn  Zn129  1  0.94059798  0.18449700  0.93765182  1
  Zn  Zn130  1  0.89965440  0.74876382  0.40022121  1
  Zn  Zn131  1  0.94990258  0.68311407  0.94188690  1
  Zn  Zn132  1  0.06876901  0.31028895  0.06039989  1
  Zn  Zn133  1  0.05960535  0.31316316  0.56731657  1
  Zn  Zn134  1  0.06035171  0.80682424  0.06834960  1
  Zn  Zn135  1  0.06333555  0.81478314  0.56504442  1
  Zn  Zn136  1  0.55042254  0.29923678  0.06277944  1
  Zn  Zn137  1  0.56415901  0.32712275  0.56623076  1
  Zn  Zn138  1  0.60475116  0.87632507  0.03359459  1
  Zn  Zn139  1  0.56500671  0.92078399  0.54445833  1
  O  O140  1  0.11955035  0.11902129  0.13308042  1
  O  O141  1  0.12427329  0.10547608  0.61612147  1
  O  O142  1  0.13599503  0.63660751  0.10935481  1
  O  O143  1  0.11816079  0.61151990  0.63641566  1
  O  O144  1  0.60832510  0.13928869  0.13623659  1
  O  O145  1  0.61328417  0.12779666  0.61622514  1
  O  O146  1  0.62174156  0.62188660  0.11154516  1
  O  O147  1  0.63172232  0.60507315  0.62808364  1
  O  O148  1  0.38619518  0.36484890  0.38594772  1
  O  O149  1  0.36499431  0.37622551  0.87013444  1
  O  O150  1  0.37003291  0.88240602  0.37156861  1
  O  O151  1  0.37350501  0.88005861  0.88514334  1
  O  O152  1  0.89412071  0.36562681  0.39662297  1
  O  O153  1  0.88765257  0.38751513  0.88034216  1
  O  O154  1  0.85687812  0.86161803  0.41205609  1
  O  O155  1  0.87386313  0.88962948  0.85344341  1
  O  O156  1  0.26579688  0.01416137  0.37738823  1
  O  O157  1  0.25720581  -0.00047724  0.87520692  1
  O  O158  1  0.24300477  0.51530028  0.37924874  1
  O  O159  1  0.26320096  0.51261111  0.87028147  1
  O  O160  1  0.74951708  0.01747692  0.38359382  1
  O  O161  1  0.76795529  0.02377369  0.88074795  1
  O  O162  1  0.71009425  0.53417444  0.37051242  1
  O  O163  1  0.77447532  0.52248789  0.91076780  1
  O  O164  1  0.24555704  0.50911017  0.15065016  1
  O  O165  1  0.23800495  0.50598021  0.61626009  1
  O  O166  1  0.23983882  0.99312559  0.12041155  1
  O  O167  1  0.24695429  1.00052156  0.62466505  1
  O  O168  1  0.75753484  0.48412417  0.11297855  1
  O  O169  1  0.73942557  0.49339951  0.62932397  1
  O  O170  1  0.73191330  1.01883658  0.15209305  1
  O  O171  1  0.75284281  0.99373801  0.63961367  1
  O  O172  1  0.01676182  0.37371824  0.26099484  1
  O  O173  1  0.02148900  0.37275559  0.74151169  1
  O  O174  1  0.02102323  0.86032748  0.24399999  1
  O  O175  1  0.00744247  0.85896498  0.74661529  1
  O  O176  1  0.50973507  0.37044063  0.26338713  1
  O  O177  1  0.49022520  0.37223689  0.74340066  1
  O  O178  1  0.50831243  0.85290902  0.23762742  1
  O  O179  1  0.51296506  0.87948369  0.75814778  1
  O  O180  1  0.48205743  0.12123613  0.24203853  1
  O  O181  1  0.48734031  0.11193730  0.72905235  1
  O  O182  1  0.50428014  0.62187987  0.22798526  1
  O  O183  1  0.51229133  0.62398029  0.75243445  1
  O  O184  1  0.99483855  0.13493944  0.24829103  1
  O  O185  1  0.98240262  0.08161064  0.72953140  1
  O  O186  1  1.00719277  0.63575582  0.25598505  1
  O  O187  1  0.99412669  0.63027301  0.74148787  1
  O  O188  1  0.36383333  0.25129141  0.01315529  1
  O  O189  1  0.37745067  0.24117818  0.51096669  1
  O  O190  1  0.37820150  0.76441319  0.01872905  1
  O  O191  1  0.35937514  0.76430601  0.49351412  1
  O  O192  1  0.89263390  0.25116168  0.01985186  1
  O  O193  1  0.86233359  0.25693304  0.51084795  1
  O  O194  1  0.89612014  0.76846179  -0.00764838  1
  O  O195  1  0.88040294  0.75759832  0.52339871  1
  O  O196  1  0.11551744  0.22782612  0.51046972  1
  O  O197  1  0.12744285  0.24929678  0.97932779  1
  O  O198  1  0.13319537  0.76403664  0.48646937  1
  O  O199  1  0.11609761  0.74103575  0.98495075  1
  O  O200  1  0.63463624  0.25888279  0.49487914  1
  O  O201  1  0.61143985  0.25196756  0.97665357  1
  O  O202  1  0.62930276  0.87436984  0.42747487  1
  O  O203  1  0.61556734  0.76637978  0.99758838  1
  O  O204  1  0.47804243  0.23326147  0.12580018  1
  O  O205  1  0.49446679  0.24257412  0.61907612  1
  O  O206  1  0.48178504  0.71987723  0.12650697  1
  O  O207  1  0.50019719  0.70935496  0.59950192  1
  O  O208  1  1.00005457  0.24600496  0.13366324  1
  O  O209  1  0.98975690  0.24719870  0.62750718  1
  O  O210  1  0.99623844  0.74529150  0.14072601  1
  O  O211  1  1.00111714  0.73963026  0.63576785  1
  O  O212  1  0.00038702  0.25785179  0.36677715  1
  O  O213  1  0.01621565  0.24486874  0.86899064  1
  O  O214  1  0.01591200  0.74991473  0.37820244  1
  O  O215  1  0.01515177  0.74125267  0.85779011  1
  O  O216  1  0.51828795  0.25490758  0.38380285  1
  O  O217  1  0.49214205  0.23207836  0.86530498  1
  O  O218  1  0.50560869  0.72342501  0.34612822  1
  O  O219  1  0.49783076  0.76486180  0.88067951  1
  O  O220  1  0.23604966  0.12245252  0.49252950  1
  O  O221  1  0.24957655  0.11967307  0.97828263  1
  O  O222  1  0.25070538  0.64177310  0.48797643  1
  O  O223  1  0.23288451  0.61856997  0.98294728  1
  O  O224  1  0.73626977  0.13625260  0.49993742  1
  O  O225  1  0.75778967  0.13554358  0.97577699  1
  O  O226  1  0.78671051  0.63219207  0.47556646  1
  O  O227  1  0.76286948  0.58276741  0.95909265  1
  O  O228  1  0.27100066  0.42442112  0.01466794  1
  O  O229  1  0.26300194  0.37476062  0.51015479  1
  O  O230  1  0.26239199  0.87621555  0.01123767  1
  O  O231  1  0.25575985  0.86410844  0.49153527  1
  O  O232  1  0.73636417  0.36291379  0.01336222  1
  O  O233  1  0.76373724  0.36786760  0.48774309  1
  O  O234  1  0.74765912  0.97824272  0.09275458  1
  O  O235  1  0.75624598  0.87753456  0.52729834  1
  O  O236  1  0.12856061  0.48408504  0.25738312  1
  O  O237  1  0.12759220  0.48578027  0.73757793  1
  O  O238  1  0.12476308  0.98580858  0.24131986  1
  O  O239  1  0.12798545  0.98705336  0.74201533  1
  O  O240  1  0.62236964  0.47941525  0.24286336  1
  O  O241  1  0.61756361  0.48311797  0.75584495  1
  O  O242  1  0.61243057  0.97592736  0.26431217  1
  O  O243  1  0.63146426  0.97839055  0.77319290  1
  O  O244  1  0.37406198  0.00588785  0.25921349  1
  O  O245  1  0.37533421  -0.00148218  0.76416455  1
  O  O246  1  0.35966772  0.48929040  0.25588416  1
  O  O247  1  0.37940653  0.50160748  0.76953283  1
  O  O248  1  0.87705688  0.01644275  0.23907235  1
  O  O249  1  0.87887093  -0.04901038  0.80748496  1
  O  O250  1  0.86980844  0.46489714  0.27738812  1
  O  O251  1  0.87839364  0.50744692  0.76243989  1
  O  O252  1  0.11521530  0.37185006  0.38772758  1
  O  O253  1  0.13903189  0.36482421  0.85956154  1
  O  O254  1  0.13473356  0.87052872  0.36228411  1
  O  O255  1  0.13148398  0.86224631  0.86352053  1
  O  O256  1  0.62044981  0.36530932  0.36513307  1
  O  O257  1  0.59718909  0.35695841  0.86300613  1
  O  O258  1  0.58322734  0.85482697  0.36998402  1
  O  O259  1  0.61428120  0.86498596  0.86957695  1
  O  O260  1  0.36768496  0.12850312  0.13899130  1
  O  O261  1  0.38827228  0.12201761  0.61970619  1
  O  O262  1  0.35172190  0.62737585  0.11521839  1
  O  O263  1  0.39071762  0.62616046  0.62033889  1
  O  O264  1  0.88823992  0.14172319  0.14407895  1
  O  O265  1  0.86460456  0.14823248  0.62778190  1
  O  O266  1  0.86234825  0.65880290  0.11332616  1
  O  O267  1  0.88200992  0.63034971  0.63642881  1
  O  O268  1  0.25796737  0.24561617  0.13060529  1
  O  O269  1  0.24783581  0.24756729  0.61843220  1
  O  O270  1  0.26246336  0.75943053  0.13123529  1
  O  O271  1  0.23847846  0.74867535  0.60531000  1
  O  O272  1  0.76668212  0.24687837  0.11863557  1
  O  O273  1  0.74204640  0.25329440  0.61041825  1
  O  O274  1  0.75691368  0.76925885  0.07968504  1
  O  O275  1  0.76124512  0.73761626  0.63091776  1
  O  O276  1  0.25307134  0.23197852  0.37711838  1
  O  O277  1  0.25730850  0.23761435  0.86691330  1
  O  O278  1  0.24038848  0.73877461  0.37534619  1
  O  O279  1  0.23664718  0.74410941  0.87734489  1
  O  O280  1  0.73615962  0.23745720  0.39025206  1
  O  O281  1  0.74507044  0.23979368  0.87559723  1
  O  O282  1  0.74605087  0.66201690  0.26447913  1
  O  O283  1  0.73487397  0.75634417  0.88506752  1
  O  O284  1  0.00613599  0.12321667  0.01715618  1
  O  O285  1  0.00953540  0.11530676  0.48465373  1
  O  O286  1  0.02116611  0.61435012  -0.00456373  1
  O  O287  1  -0.00394612  0.60921493  0.51458391  1
  O  O288  1  0.48992314  0.12390575  0.01804048  1
  O  O289  1  0.51454261  0.12475935  0.50784857  1
  O  O290  1  0.49488212  0.61144099  0.01210805  1
  O  O291  1  0.45788082  0.65787874  0.56647079  1
  O  O292  1  0.48685194  0.36923325  0.49027529  1
  O  O293  1  0.49023091  0.38349873  1.01252741  1
  O  O294  1  0.47997675  0.86234229  0.50100104  1
  O  O295  1  0.48246398  0.88247647  0.99440069  1
  O  O296  1  0.99458996  0.38181117  0.50011067  1
  O  O297  1  1.01595941  0.39252514  1.00147707  1
  O  O298  1  0.97946041  0.88046911  0.52262462  1
  O  O299  1  1.01927230  0.88665137  1.00028192  1
  O  O300  1  0.50720255  0.48117191  0.37628734  1
  O  O301  1  0.48303792  0.49792029  0.88698993  1
  O  O302  1  0.47859800  1.00629083  0.37826839  1
  O  O303  1  0.48615004  0.98954069  0.87712501  1
  O  O304  1  1.00944601  0.49459249  0.39594831  1
  O  O305  1  0.99737066  0.50069142  0.87448436  1
  O  O306  1  0.99117680  0.98474299  0.34657796  1
  O  O307  1  1.01103989  1.01106490  0.89678344  1
  O  O308  1  0.01378886  0.00658002  0.12422983  1
  O  O309  1  -0.02041396  0.02984705  0.67024421  1
  O  O310  1  -0.00019507  0.50181209  0.11675661  1
  O  O311  1  0.00562256  0.50505091  0.62283564  1
  O  O312  1  0.49676331  0.01731979  0.12308409  1
  O  O313  1  0.50547654  0.00146065  0.61596564  1
  O  O314  1  0.49745965  0.50533000  0.11465070  1
  O  O315  1  0.51403204  0.49465513  0.62289146  1
  O  O316  1  0.23639395  0.38512637  0.26510773  1
  O  O317  1  0.24871992  0.37047719  0.72313220  1
  O  O318  1  0.23622669  0.86758732  0.23812259  1
  O  O319  1  0.23933760  0.86813053  0.74723440  1
  O  O320  1  0.73457482  0.36638753  0.23539936  1
  O  O321  1  0.74293804  0.40681473  0.82237846  1
  O  O322  1  0.71907833  0.85516124  0.29126251  1
  O  O323  1  0.73509236  0.86242255  0.73741736  1
  O  O324  1  0.25907218  0.12073521  0.26515517  1
  O  O325  1  0.26029460  0.11846691  0.75670800  1
  O  O326  1  0.24274392  0.61313743  0.26738051  1
  O  O327  1  0.25469877  0.63313956  0.76260874  1
  O  O328  1  0.77029098  0.13527088  0.26129524  1
  O  O329  1  0.74824436  0.12916539  0.75682519  1
  O  O330  1  0.78576919  0.60157996  0.25926717  1
  O  O331  1  0.76705408  0.62595614  0.75499217  1
  O  O332  1  0.36806516  0.11980425  0.36840034  1
  O  O333  1  0.36542622  0.11223830  0.86578722  1
  O  O334  1  0.36229895  0.62564300  0.37683086  1
  O  O335  1  0.35918446  0.64274888  0.88134432  1
  O  O336  1  0.87307444  0.12601591  0.36829002  1
  O  O337  1  0.87666529  0.14146583  0.85647004  1
  O  O338  1  0.83557881  0.63835455  0.41732977  1
  O  O339  1  0.88564746  0.62455537  0.86291052  1
  O  O340  1  0.13057206  0.37555459  0.13584494  1
  O  O341  1  0.13805062  0.37721218  0.62856867  1
  O  O342  1  0.13502831  0.87891546  0.12865282  1
  O  O343  1  0.12181310  0.88683899  0.63652957  1
  O  O344  1  0.63104692  0.35795259  0.13413669  1
  O  O345  1  0.62320007  0.38173669  0.64626677  1
  O  O346  1  0.63932432  0.86968855  0.14329511  1
  O  O347  1  0.63001303  0.88042153  0.63522587  1
  O  O348  1  0.11647067  0.26407210  0.24905124  1
  O  O349  1  0.13302082  0.25933338  0.75553506  1
  O  O350  1  0.11784499  0.75406195  0.26186708  1
  O  O351  1  0.11884164  0.75888407  0.75217614  1
  O  O352  1  0.63067860  0.24905980  0.26751155  1
  O  O353  1  0.61674842  0.26405047  0.75712500  1
  O  O354  1  0.60912985  0.74608772  0.22623826  1
  O  O355  1  0.61636686  0.76065633  0.76503359  1
  O  O356  1  0.37146804  0.23470151  0.25044972  1
  O  O357  1  0.37056607  0.22818050  0.72471412  1
  O  O358  1  0.38383009  0.75040037  0.23226084  1
  O  O359  1  0.39036285  0.78558139  0.73589899  1
  O  O360  1  0.89294669  0.25943627  0.24217515  1
  O  O361  1  0.86796514  0.27536112  0.73256569  1
  O  O362  1  0.89704569  0.75141338  0.28088770  1
  O  O363  1  0.88614047  0.74115399  0.74485100  1
  O  O364  1  0.37600519  0.48395958  0.50497066  1
  O  O365  1  0.38095561  0.50063777  0.98013385  1
  O  O366  1  0.37086768  0.98618439  0.48443398  1
  O  O367  1  0.37305000  0.99211574  0.98651937  1
  O  O368  1  0.88737610  0.48831733  0.50854425  1
  O  O369  1  0.90102452  0.50930118  0.99062011  1
  O  O370  1  0.87032532  0.99315107  0.51326166  1
  O  O371  1  0.90112084  0.99182519  1.01780946  1
  O  O372  1  0.12144704  0.00810030  0.01263815  1
  O  O373  1  0.12684722  -0.00307807  0.51542490  1
  O  O374  1  0.11967556  0.51071285  -0.00464301  1
  O  O375  1  0.11200859  0.49095804  0.52007854  1
  O  O376  1  0.62353298  -0.02064833  -0.00621835  1
  O  O377  1  0.62934747  0.01205541  0.50294750  1
  O  O378  1  0.60497548  0.48687417  -0.02127073  1
  O  O379  1  0.62468490  0.48614094  0.51402792  1
  O  O380  1  0.37565570  0.35664213  0.13913759  1
  O  O381  1  0.36651736  0.35292735  0.61099017  1
  O  O382  1  0.36892982  0.88618217  0.11703672  1
  O  O383  1  0.36436125  0.89246468  0.60561069  1
  O  O384  1  0.85991298  0.36557083  0.12959059  1
  O  O385  1  0.88074614  0.36680058  0.60896008  1
  O  O386  1  0.87238305  0.84954037  0.15002879  1
  O  O387  1  0.85997904  0.86417276  0.63261809  1
  O  O388  1  0.13646107  0.11429711  0.38710337  1
  O  O389  1  0.13907298  0.13847088  0.86081150  1
  O  O390  1  0.12841952  0.63690112  0.38079180  1
  O  O391  1  0.13586536  0.63681498  0.86925503  1
  O  O392  1  0.62621682  0.13124518  0.38664813  1
  O  O393  1  0.62011385  0.13844163  0.85906523  1
  O  O394  1  0.65641549  0.58824673  0.37017442  1
  O  O395  1  0.61819266  0.64640374  0.88440412  1
