# generated using pymatgen
data_V35Zn35O128
_symmetry_space_group_name_H-M   'P 1'
_cell_length_a   16.86962472
_cell_length_b   16.86572373
_cell_length_c   16.86834202
_cell_angle_alpha   89.77884467
_cell_angle_beta   89.86547429
_cell_angle_gamma   90.07414803
_symmetry_Int_Tables_number   1
_chemical_formula_structural   V35Zn35O128
_chemical_formula_sum   'V70 Zn70 O256'
_cell_volume   4799.30112894
_cell_formula_units_Z   2
loop_
 _symmetry_equiv_pos_site_id
 _symmetry_equiv_pos_as_xyz
  1  'x, y, z'
loop_
 _atom_site_type_symbol
 _atom_site_label
 _atom_site_symmetry_multiplicity
 _atom_site_fract_x
 _atom_site_fract_y
 _atom_site_fract_z
 _atom_site_occupancy
  V  V0  1  0.22102921  0.25425570  0.48996923  1
  V  V1  1  -0.00626538  0.11492764  0.63805061  1
  V  V2  1  -0.00090206  0.88782890  0.38290441  1
  V  V3  1  0.61476109  0.00340781  0.65395292  1
  V  V4  1  0.51197402  0.12064322  0.12928479  1
  V  V5  1  0.23863657  0.37372047  0.64079304  1
  V  V6  1  0.24762958  0.49543155  0.23389742  1
  V  V7  1  0.37922784  0.88033900  0.48571398  1
  V  V8  1  0.49081586  0.76286649  0.75941974  1
  V  V9  1  -0.00425549  0.74644725  0.25523114  1
  V  V10  1  0.00726591  0.12474744  0.10475865  1
  V  V11  1  0.63134782  0.50112316  0.62035568  1
  V  V12  1  0.73854635  0.89123172  0.10263730  1
  V  V13  1  0.38519367  0.88385965  -0.01502948  1
  V  V14  1  0.61019358  0.73824738  0.89580744  1
  V  V15  1  0.48401741  0.25507774  0.72488355  1
  V  V16  1  0.24645057  0.74390071  -0.00470238  1
  V  V17  1  0.87440083  0.62649884  0.72792521  1
  V  V18  1  0.75259018  0.63557298  0.37901741  1
  V  V19  1  0.76897635  0.11909113  0.89159948  1
  V  V20  1  -0.00563444  0.49798256  0.49687454  1
  V  V21  1  0.48345772  0.62956874  0.63539702  1
  V  V22  1  0.12642146  0.36381412  0.25131573  1
  V  V23  1  0.11283200  0.63420462  0.49945859  1
  V  V24  1  0.37054782  0.50112944  0.37372696  1
  V  V25  1  0.00878934  0.62201919  0.11563547  1
  V  V26  1  0.01372714  0.36734802  0.83937655  1
  V  V27  1  0.25880018  0.51998294  0.76025960  1
  V  V28  1  0.89026129  0.49549734  0.88658325  1
  V  V29  1  0.25018488  0.00822230  0.26312363  1
  V  V30  1  0.74030719  0.26225037  -0.00165537  1
  V  V31  1  0.36889796  0.37781099  0.00740668  1
  V  V32  1  0.10993059  0.10039539  0.49606847  1
  V  V33  1  0.51434438  0.50603450  -0.00053225  1
  V  V34  1  0.49995670  0.36114507  0.37464430  1
  V  V35  1  0.73390450  0.86573154  0.66459411  1
  V  V36  1  0.52323252  0.00378365  0.48676348  1
  V  V37  1  0.51620771  0.86504105  0.36954024  1
  V  V38  1  -0.00377729  0.23884879  0.25530383  1
  V  V39  1  0.49416989  0.50144108  0.50244539  1
  V  V40  1  0.37990769  0.24962599  0.13755564  1
  V  V41  1  0.62360400  0.64231749  0.49495086  1
  V  V42  1  0.12860093  0.89286327  0.74557693  1
  V  V43  1  0.37326589  0.63294441  0.23721346  1
  V  V44  1  0.84438614  0.87486294  0.49194136  1
  V  V45  1  0.88465745  0.26423373  0.10705573  1
  V  V46  1  0.49896034  0.36916539  0.88058484  1
  V  V47  1  0.26449030  0.87441516  0.12354082  1
  V  V48  1  0.87177747  0.61782153  0.24495964  1
  V  V49  1  0.25249124  0.22632887  -0.00321571  1
  V  V50  1  0.52064289  0.74935685  0.24803201  1
  V  V51  1  0.62423990  0.37446470  0.75665572  1
  V  V52  1  0.76801127  0.02735464  0.24597979  1
  V  V53  1  0.27407054  0.01643405  0.76305603  1
  V  V54  1  0.11450726  0.50567631  0.63435426  1
  V  V55  1  0.35795971  0.37248187  0.50640814  1
  V  V56  1  -0.00332052  -0.02460954  -0.00789298  1
  V  V57  1  0.26111617  0.74553631  0.50767385  1
  V  V58  1  0.25986753  0.88638981  0.62567808  1
  V  V59  1  0.38105556  0.12086796  0.27246671  1
  V  V60  1  0.24601353  0.63191021  0.37344699  1
  V  V61  1  0.52232189  0.61788934  0.12735578  1
  V  V62  1  0.12690214  0.86602841  0.24908131  1
  V  V63  1  0.74977724  0.50619549  0.76244346  1
  V  V64  1  0.86736156  0.36147533  0.50322572  1
  V  V65  1  0.68059578  0.42256612  0.19867372  1
  V  V66  1  0.74397361  0.12617239  0.40392169  1
  V  V67  1  0.86609830  0.23964041  0.64337721  1
  V  V68  1  0.00423582  0.74416181  0.73980606  1
  V  V69  1  0.77831970  0.71724163  -0.00031391  1
  Zn  Zn70  1  0.13394783  0.00736048  0.11597939  1
  Zn  Zn71  1  0.86315409  0.48728822  0.37254342  1
  Zn  Zn72  1  0.70233327  0.33398732  0.57859974  1
  Zn  Zn73  1  0.01107757  0.35629779  0.38744650  1
  Zn  Zn74  1  0.12832963  0.75417337  0.87645144  1
  Zn  Zn75  1  0.12439945  0.49970762  0.11113286  1
  Zn  Zn76  1  0.19311040  0.18718800  0.18036938  1
  Zn  Zn77  1  0.20431158  0.16087086  0.64980435  1
  Zn  Zn78  1  0.18650963  0.68797368  0.17769764  1
  Zn  Zn79  1  0.18763643  0.69024864  0.68475890  1
  Zn  Zn80  1  0.69775988  0.21255895  0.18648192  1
  Zn  Zn81  1  0.67782575  0.17246907  0.56826485  1
  Zn  Zn82  1  0.70336089  0.69664784  0.17526678  1
  Zn  Zn83  1  0.67056962  0.68297201  0.69697070  1
  Zn  Zn84  1  0.30891652  0.31030678  0.31640951  1
  Zn  Zn85  1  0.31218406  0.31775098  0.82151793  1
  Zn  Zn86  1  0.31019368  0.80969545  0.30957296  1
  Zn  Zn87  1  0.31758745  0.80743371  0.81781371  1
  Zn  Zn88  1  0.83167277  0.28440450  0.33040178  1
  Zn  Zn89  1  0.80783420  0.31471846  0.82154118  1
  Zn  Zn90  1  0.81869373  0.80963107  0.31544835  1
  Zn  Zn91  1  0.79781888  0.77934498  0.81913530  1
  Zn  Zn92  1  0.17961875  0.44685563  0.43457983  1
  Zn  Zn93  1  0.18697391  0.41895818  0.92261828  1
  Zn  Zn94  1  0.18311511  0.93015280  0.43450591  1
  Zn  Zn95  1  0.18824617  0.94498506  0.93430275  1
  Zn  Zn96  1  0.68826666  0.43864986  0.41803443  1
  Zn  Zn97  1  0.68884268  0.44279794  0.94093226  1
  Zn  Zn98  1  0.68874098  0.94976767  0.39092742  1
  Zn  Zn99  1  0.70017116  0.91829339  0.89106754  1
  Zn  Zn100  1  0.32372458  0.05880518  0.07241466  1
  Zn  Zn101  1  0.31465631  0.06516739  0.54574032  1
  Zn  Zn102  1  0.32436706  0.57023087  0.04012046  1
  Zn  Zn103  1  0.30339421  0.55915931  0.56809215  1
  Zn  Zn104  1  0.82394662  0.06812713  0.06633031  1
  Zn  Zn105  1  0.81036548  0.03836895  0.58329017  1
  Zn  Zn106  1  0.81412555  0.53326378  0.07461009  1
  Zn  Zn107  1  0.80631608  0.56551725  0.55221596  1
  Zn  Zn108  1  0.44598168  0.43466056  0.18940558  1
  Zn  Zn109  1  0.43267485  0.43825203  0.68880539  1
  Zn  Zn110  1  0.44287213  0.94254180  0.19411129  1
  Zn  Zn111  1  0.43734598  0.93257890  0.67078746  1
  Zn  Zn112  1  0.94506687  0.43623499  0.19198029  1
  Zn  Zn113  1  0.93017253  0.43312570  0.68105695  1
  Zn  Zn114  1  0.93897313  0.94215980  0.18362184  1
  Zn  Zn115  1  0.93929206  0.90705223  0.64998093  1
  Zn  Zn116  1  0.06936610  0.06393095  0.30995336  1
  Zn  Zn117  1  0.04071584  0.02867435  0.79148516  1
  Zn  Zn118  1  0.06444486  0.56068108  0.31420832  1
  Zn  Zn119  1  0.06113852  0.56780120  0.81875333  1
  Zn  Zn120  1  0.59677649  0.07950839  0.27892104  1
  Zn  Zn121  1  0.47335925  0.06169540  0.78358444  1
  Zn  Zn122  1  0.56462333  0.55861051  0.31409660  1
  Zn  Zn123  1  0.55931981  0.56750270  0.81822940  1
  Zn  Zn124  1  0.42394649  0.17419385  0.45981525  1
  Zn  Zn125  1  0.44996617  0.18506927  0.94873011  1
  Zn  Zn126  1  0.43850685  0.68536929  0.43203041  1
  Zn  Zn127  1  0.42411917  0.69131025  0.94302745  1
  Zn  Zn128  1  0.93504589  0.17079110  0.44118114  1
  Zn  Zn129  1  0.94098192  0.18703667  0.92594183  1
  Zn  Zn130  1  0.93235228  0.70388959  0.43998232  1
  Zn  Zn131  1  0.95603293  0.67806449  0.91690036  1
  Zn  Zn132  1  0.07838086  0.31193611  0.06773863  1
  Zn  Zn133  1  0.05152963  0.31179992  0.58772760  1
  Zn  Zn134  1  0.06342203  0.81073230  0.06935213  1
  Zn  Zn135  1  0.06851285  0.81753290  0.56684330  1
  Zn  Zn136  1  0.56004111  0.30888067  0.07122936  1
  Zn  Zn137  1  0.53203937  0.28349052  0.52704911  1
  Zn  Zn138  1  0.56202909  0.81315434  0.06897820  1
  Zn  Zn139  1  0.56025178  0.81752227  0.57517328  1
  O  O140  1  0.11331764  0.12575655  0.12710679  1
  O  O141  1  0.10152327  0.12908846  0.61233704  1
  O  O142  1  0.11575339  0.61892987  0.12356147  1
  O  O143  1  0.12997930  0.61569459  0.60886608  1
  O  O144  1  0.60520649  0.14584470  0.17562973  1
  O  O145  1  0.61473849  0.09964303  0.62398994  1
  O  O146  1  0.62068180  0.62132746  0.13581422  1
  O  O147  1  0.61271871  0.61576279  0.61350187  1
  O  O148  1  0.36960218  0.38571599  0.38711150  1
  O  O149  1  0.38921950  0.37788201  0.89517347  1
  O  O150  1  0.37718221  0.86424654  0.38335791  1
  O  O151  1  0.37531675  0.88210527  0.88409766  1
  O  O152  1  0.88737141  0.37362092  0.39037158  1
  O  O153  1  0.88293326  0.39336162  0.85886475  1
  O  O154  1  0.88903461  0.87240482  0.38210143  1
  O  O155  1  0.86882208  0.88954625  0.87409843  1
  O  O156  1  0.24887572  -0.00706423  0.36240571  1
  O  O157  1  0.26070747  0.00809281  0.86172961  1
  O  O158  1  0.25629959  0.51287135  0.37048434  1
  O  O159  1  0.23413418  0.49948715  0.85710433  1
  O  O160  1  0.77542597  0.03004101  0.36517868  1
  O  O161  1  0.73871290  0.02214744  0.88420527  1
  O  O162  1  0.75309870  0.52218201  0.37980516  1
  O  O163  1  0.76183948  0.50045559  0.86484647  1
  O  O164  1  0.25193965  0.50606556  0.13304991  1
  O  O165  1  0.23485908  0.49536331  0.63582709  1
  O  O166  1  0.25118465  0.98840281  0.13855751  1
  O  O167  1  0.26082834  0.98808018  0.61546140  1
  O  O168  1  0.75396065  0.47042210  0.14486057  1
  O  O169  1  0.73327983  0.50421084  0.62214423  1
  O  O170  1  0.75385906  0.99800990  0.13218434  1
  O  O171  1  0.72465614  0.99201263  0.65414794  1
  O  O172  1  0.01404243  0.36273961  0.25490636  1
  O  O173  1  0.00358270  0.36780319  0.73759619  1
  O  O174  1  0.00824726  0.86514544  0.24770784  1
  O  O175  1  0.02917183  0.91467206  0.74024202  1
  O  O176  1  0.48299801  0.36806445  0.27517728  1
  O  O177  1  0.50499829  0.38958139  0.76662794  1
  O  O178  1  0.49811970  0.85808778  0.25654141  1
  O  O179  1  0.49079108  0.86183795  0.74558774  1
  O  O180  1  0.48263947  0.11729989  0.26558216  1
  O  O181  1  0.49516389  0.15667380  0.72432743  1
  O  O182  1  0.49212368  0.62798243  0.24721277  1
  O  O183  1  0.49225237  0.60878869  0.73408021  1
  O  O184  1  1.00952397  0.13727543  0.24228006  1
  O  O185  1  1.00831840  0.12247225  0.73902128  1
  O  O186  1  0.99700796  0.63513542  0.25705796  1
  O  O187  1  0.98810422  0.63777886  0.73121542  1
  O  O188  1  0.37720590  0.25700377  0.01257342  1
  O  O189  1  0.34854004  0.27219911  0.50132171  1
  O  O190  1  0.35504632  0.76837979  0.00101734  1
  O  O191  1  0.36345046  0.74937379  0.49560045  1
  O  O192  1  0.88409681  0.25671372  0.00543892  1
  O  O193  1  0.87719060  0.26164034  0.50072422  1
  O  O194  1  0.87528117  0.73433574  -0.02239600  1
  O  O195  1  0.88310537  0.77796085  0.50809193  1
  O  O196  1  0.12145697  0.26934163  0.50038877  1
  O  O197  1  0.15482255  0.25325746  1.00889248  1
  O  O198  1  0.13177478  0.73749272  0.50615587  1
  O  O199  1  0.14238139  0.77302444  0.99625064  1
  O  O200  1  0.63790588  0.26327201  0.51619270  1
  O  O201  1  0.64142791  0.25204706  1.01279059  1
  O  O202  1  0.61190415  0.73911617  0.50324357  1
  O  O203  1  0.60582670  0.73434599  0.99765866  1
  O  O204  1  0.48677532  0.24468967  0.13575244  1
  O  O205  1  0.48481182  0.28692919  0.62877383  1
  O  O206  1  0.50317269  0.73302269  0.14160346  1
  O  O207  1  0.50199506  0.73568810  0.64021143  1
  O  O208  1  1.00321114  0.24481095  0.12762442  1
  O  O209  1  0.97760663  0.23422074  0.62304232  1
  O  O210  1  1.00775553  0.73539749  0.14311383  1
  O  O211  1  0.98587172  0.79704879  0.64822958  1
  O  O212  1  -0.00383932  0.24165582  0.35995243  1
  O  O213  1  -0.01024321  0.27501407  0.87518033  1
  O  O214  1  0.00254497  0.76188280  0.36079764  1
  O  O215  1  -0.02229122  0.78440757  0.82611086  1
  O  O216  1  0.48617558  0.26366561  0.40946660  1
  O  O217  1  0.50293629  0.26866428  0.87390891  1
  O  O218  1  0.49611650  0.74977876  0.35714911  1
  O  O219  1  0.49872299  0.73984257  0.87236413  1
  O  O220  1  0.22212499  0.14617142  0.51996128  1
  O  O221  1  0.25914549  0.12575509  1.00397888  1
  O  O222  1  0.24448591  0.63343656  0.49468104  1
  O  O223  1  0.24028425  0.64680092  1.02296243  1
  O  O224  1  0.74969297  0.10535283  0.50587565  1
  O  O225  1  0.76023359  0.13725951  0.99607904  1
  O  O226  1  0.73473604  0.63365230  0.49273278  1
  O  O227  1  0.76314803  0.61960859  1.01770234  1
  O  O228  1  0.26832494  0.38094891  -0.00043939  1
  O  O229  1  0.24622342  0.37893920  0.50394369  1
  O  O230  1  0.26020306  0.88173188  0.01486833  1
  O  O231  1  0.25661384  0.86194080  0.49912909  1
  O  O232  1  0.75309688  0.36282278  -0.01128969  1
  O  O233  1  0.76516225  0.38838808  0.49571197  1
  O  O234  1  0.74867092  0.89705470  0.00284948  1
  O  O235  1  0.74882238  0.87460685  0.46279404  1
  O  O236  1  0.14304935  0.50338787  0.25074967  1
  O  O237  1  0.12345478  0.51682959  0.73585518  1
  O  O238  1  0.13853419  0.99308086  0.24631123  1
  O  O239  1  0.15794368  0.99414533  0.74661694  1
  O  O240  1  0.63143979  0.48802835  0.25908474  1
  O  O241  1  0.63516231  0.50448134  0.74176112  1
  O  O242  1  0.66947607  0.98503257  0.27313863  1
  O  O243  1  0.57485201  1.00505928  0.74710040  1
  O  O244  1  0.36340880  0.01114172  0.25210247  1
  O  O245  1  0.37841447  0.00320036  0.74125153  1
  O  O246  1  0.36468549  0.50557347  0.25564570  1
  O  O247  1  0.35686474  0.49870651  0.74903786  1
  O  O248  1  0.86729367  0.00416070  0.24481781  1
  O  O249  1  0.88109837  -0.05842286  0.82377910  1
  O  O250  1  0.89021952  0.51502108  0.26289886  1
  O  O251  1  0.85489783  0.50291047  0.73482790  1
  O  O252  1  0.12190082  0.38590723  0.35859069  1
  O  O253  1  0.11477134  0.36861859  0.85181387  1
  O  O254  1  0.11571259  0.87770001  0.35681377  1
  O  O255  1  0.14673848  0.87072227  0.84742375  1
  O  O256  1  0.59779118  0.37897867  0.38970046  1
  O  O257  1  0.61349039  0.38871959  0.86551331  1
  O  O258  1  0.61341259  0.85711300  0.37462455  1
  O  O259  1  0.62115423  0.84327578  0.87886003  1
  O  O260  1  0.39215131  0.13242972  0.13737411  1
  O  O261  1  0.38991097  0.14296105  0.56406364  1
  O  O262  1  0.37997583  0.61935892  0.13761921  1
  O  O263  1  0.38580003  0.62311028  0.61411780  1
  O  O264  1  0.89975842  0.14276566  0.12002230  1
  O  O265  1  0.87610911  0.13119201  0.62786604  1
  O  O266  1  0.88478212  0.61574493  0.14292609  1
  O  O267  1  0.87096645  0.62000207  0.62829867  1
  O  O268  1  0.27236362  0.24173358  0.11460200  1
  O  O269  1  0.23230503  0.27215552  0.61894144  1
  O  O270  1  0.24449777  0.76976510  0.12136170  1
  O  O271  1  0.25222701  0.75449421  0.61046927  1
  O  O272  1  0.77415203  0.25113235  0.10878842  1
  O  O273  1  0.76228712  0.24372671  0.62200467  1
  O  O274  1  0.74871040  0.76386904  0.09303500  1
  O  O275  1  0.72678202  0.76662997  0.64262358  1
  O  O276  1  0.23937215  0.25576375  0.39167455  1
  O  O277  1  0.26829994  0.24812281  0.89706493  1
  O  O278  1  0.25037964  0.73800077  0.38398764  1
  O  O279  1  0.24845926  0.74496980  0.88766996  1
  O  O280  1  0.74849732  0.23622761  0.39465413  1
  O  O281  1  0.75577018  0.23917138  0.89114300  1
  O  O282  1  0.74490012  0.73562899  0.36365778  1
  O  O283  1  0.73505609  0.74325057  0.90477373  1
  O  O284  1  0.00973556  0.13139579  0.00354478  1
  O  O285  1  0.00373893  0.11443969  0.50695338  1
  O  O286  1  -0.00803922  0.62753223  0.01956199  1
  O  O287  1  0.00832662  0.62358129  0.49505989  1
  O  O288  1  0.52185518  0.13826386  0.03098892  1
  O  O289  1  0.51644884  0.10196700  0.47457378  1
  O  O290  1  0.49941690  0.61441427  0.02007380  1
  O  O291  1  0.50622181  0.61826771  0.50306792  1
  O  O292  1  0.47388347  0.38880511  0.49764846  1
  O  O293  1  0.50364832  0.38154573  0.99272158  1
  O  O294  1  0.48848440  0.85877527  0.48706687  1
  O  O295  1  0.48172140  0.86376550  1.00983283  1
  O  O296  1  0.99327081  0.38759145  0.50548280  1
  O  O297  1  1.04223325  0.40375927  0.99966643  1
  O  O298  1  1.01882608  0.87676001  0.48172256  1
  O  O299  1  0.98967572  0.87548916  1.01255072  1
  O  O300  1  0.48663527  0.49682798  0.38402299  1
  O  O301  1  0.50007993  0.50054460  0.89556545  1
  O  O302  1  0.50263829  0.96933245  0.38003586  1
  O  O303  1  0.51710141  1.00001580  0.92108740  1
  O  O304  1  1.00000428  0.50136226  0.39292295  1
  O  O305  1  0.99719692  0.48207516  0.86395239  1
  O  O306  1  1.00057361  0.98599711  0.36208473  1
  O  O307  1  1.00871482  0.99309763  0.89131727  1
  O  O308  1  0.00378208  0.01368535  0.11703169  1
  O  O309  1  -0.02357034  0.01377818  0.63183573  1
  O  O310  1  0.00544627  0.51725537  0.13789619  1
  O  O311  1  0.00881787  0.50052096  0.61622070  1
  O  O312  1  0.50751316  0.01876250  0.13995297  1
  O  O313  1  0.51325917  -0.01825461  0.59611521  1
  O  O314  1  0.50392777  0.51246030  0.12807782  1
  O  O315  1  0.50119516  0.50713311  0.61590435  1
  O  O316  1  0.24462598  0.38892700  0.25493483  1
  O  O317  1  0.24786887  0.37955254  0.74152649  1
  O  O318  1  0.24200229  0.87847877  0.24652348  1
  O  O319  1  0.26432994  0.88311773  0.73314510  1
  O  O320  1  0.74947826  0.36106408  0.27390189  1
  O  O321  1  0.73263364  0.38832178  0.75738589  1
  O  O322  1  0.78467843  0.86739637  0.21673333  1
  O  O323  1  0.74491363  0.86846689  0.76738713  1
  O  O324  1  0.25438391  0.11251069  0.24877190  1
  O  O325  1  0.25982491  0.11393445  0.73560356  1
  O  O326  1  0.25807254  0.61923297  0.25220571  1
  O  O327  1  0.24910915  0.62041350  0.74761601  1
  O  O328  1  0.75821719  0.12730969  0.23687652  1
  O  O329  1  0.71235017  0.13802300  0.77873534  1
  O  O330  1  0.76647681  0.63010636  0.25395573  1
  O  O331  1  0.75541963  0.61256897  0.74449810  1
  O  O332  1  0.36449935  0.13127553  0.36992524  1
  O  O333  1  0.44143060  0.09195353  0.88757559  1
  O  O334  1  0.36771523  0.61725727  0.36477573  1
  O  O335  1  0.36038770  0.60028363  0.93443169  1
  O  O336  1  0.84794076  0.16340640  0.36988905  1
  O  O337  1  0.86736733  0.11967663  0.86933449  1
  O  O338  1  0.86225176  0.63026516  0.37741297  1
  O  O339  1  0.89026924  0.59834370  0.84895479  1
  O  O340  1  0.12533468  0.38611107  0.14750199  1
  O  O341  1  0.13010348  0.39412262  0.62385331  1
  O  O342  1  0.13184116  0.88015761  0.14119690  1
  O  O343  1  0.14969893  0.87058941  0.63345701  1
  O  O344  1  0.61237888  0.38793904  0.13213665  1
  O  O345  1  0.61966048  0.39554582  0.63990064  1
  O  O346  1  0.63993048  0.87715743  0.12234164  1
  O  O347  1  0.63018095  0.88661421  0.63133795  1
  O  O348  1  0.12586958  0.25973538  0.24705353  1
  O  O349  1  0.13855079  0.19853314  0.82413464  1
  O  O350  1  0.12222221  0.76003469  0.24955696  1
  O  O351  1  0.11219425  0.75999021  0.74021092  1
  O  O352  1  0.68033458  0.31620358  0.24846749  1
  O  O353  1  0.60595520  0.27754528  0.74343380  1
  O  O354  1  0.61918280  0.74204269  0.24825410  1
  O  O355  1  0.59839667  0.73573392  0.76497356  1
  O  O356  1  0.36196689  0.23617021  0.24502057  1
  O  O357  1  0.38804965  0.27151513  0.75326586  1
  O  O358  1  0.37379242  0.73364151  0.24930589  1
  O  O359  1  0.39021390  0.73921792  0.76105233  1
  O  O360  1  0.89519713  0.25536177  0.23493451  1
  O  O361  1  0.86416632  0.25336289  0.74171838  1
  O  O362  1  0.88961667  0.73573983  0.25321738  1
  O  O363  1  0.86509200  0.72793045  0.74506315  1
  O  O364  1  0.37335899  0.50062340  0.49124711  1
  O  O365  1  0.39515594  0.47817261  1.02388441  1
  O  O366  1  0.38449909  0.98196871  0.49030011  1
  O  O367  1  0.37948337  0.98301049  1.01121209  1
  O  O368  1  0.88734345  0.49750919  0.50465513  1
  O  O369  1  0.88070214  0.49955908  0.98546663  1
  O  O370  1  0.87405088  0.97261136  0.51029099  1
  O  O371  1  0.89855301  1.00535526  1.00636994  1
  O  O372  1  0.11062167  -0.01305883  0.00508018  1
  O  O373  1  0.13054244  0.00227576  0.50511797  1
  O  O374  1  0.10321979  0.45904741  -0.00126475  1
  O  O375  1  0.11265990  0.51083136  0.50808831  1
  O  O376  1  0.57608345  0.01203313  -0.03906809  1
  O  O377  1  0.62168988  -0.01416929  0.48332948  1
  O  O378  1  0.61407069  0.49967422  0.00522091  1
  O  O379  1  0.61323101  0.50091866  0.51034231  1
  O  O380  1  0.38459782  0.35950727  0.12225155  1
  O  O381  1  0.35101312  0.39166707  0.61282344  1
  O  O382  1  0.36437958  0.87504842  0.13823594  1
  O  O383  1  0.36568954  0.86831963  0.60208703  1
  O  O384  1  0.89465299  0.36424352  0.12099498  1
  O  O385  1  0.87380629  0.36027706  0.61212857  1
  O  O386  1  0.84520777  0.86638525  0.15526985  1
  O  O387  1  0.83039933  0.88083855  0.61831812  1
  O  O388  1  0.11902321  0.12039313  0.39686212  1
  O  O389  1  0.12383258  0.14260846  0.86817742  1
  O  O390  1  0.13433692  0.61808030  0.39065688  1
  O  O391  1  0.06330116  0.66202949  0.87606968  1
  O  O392  1  0.64707241  0.12290259  0.37276185  1
  O  O393  1  0.65288556  0.13997623  0.82592373  1
  O  O394  1  0.62849102  0.62218720  0.38940970  1
  O  O395  1  0.62749980  0.63482300  0.87529244  1
