# generated using pymatgen
data_V35Zn35O128
_symmetry_space_group_name_H-M   'P 1'
_cell_length_a   16.82594379
_cell_length_b   16.85754794
_cell_length_c   16.93651395
_cell_angle_alpha   90.16472057
_cell_angle_beta   89.86754497
_cell_angle_gamma   89.79759867
_symmetry_Int_Tables_number   1
_chemical_formula_structural   V35Zn35O128
_chemical_formula_sum   'V70 Zn70 O256'
_cell_volume   4803.88039439
_cell_formula_units_Z   2
loop_
 _symmetry_equiv_pos_site_id
 _symmetry_equiv_pos_as_xyz
  1  'x, y, z'
loop_
 _atom_site_type_symbol
 _atom_site_label
 _atom_site_symmetry_multiplicity
 _atom_site_fract_x
 _atom_site_fract_y
 _atom_site_fract_z
 _atom_site_occupancy
  V  V0  1  0.72084240  0.71638253  0.49904938  1
  V  V1  1  0.13270142  0.50568540  0.12654870  1
  V  V2  1  0.62705918  0.75589547  0.88740217  1
  V  V3  1  0.75527060  0.25400008  0.50543440  1
  V  V4  1  0.88944670  0.74151798  0.62601524  1
  V  V5  1  0.61780791  0.37894564  0.73412320  1
  V  V6  1  0.24448436  0.25493006  0.50015178  1
  V  V7  1  0.23808589  0.13238359  0.36929065  1
  V  V8  1  0.49519677  0.74711539  0.25256647  1
  V  V9  1  0.50487193  0.37682018  0.34953836  1
  V  V10  1  0.25145946  0.36852600  0.12328481  1
  V  V11  1  0.62219824  0.24324005  0.36866373  1
  V  V12  1  0.37303829  0.88848411  0.49556271  1
  V  V13  1  0.50609777  0.62571846  0.11646777  1
  V  V14  1  0.62499911  0.89440999  0.73973220  1
  V  V15  1  0.27040998  0.87069742  0.10376262  1
  V  V16  1  0.25776303  -0.01286253  0.25906094  1
  V  V17  1  0.12182276  0.89617789  0.73017706  1
  V  V18  1  0.61034858  0.26174667  0.87316831  1
  V  V19  1  0.12271396  0.37660778  0.24943194  1
  V  V20  1  0.75429416  0.51054840  0.24217201  1
  V  V21  1  -0.00038055  0.36342482  0.37806692  1
  V  V22  1  0.00372810  0.00419025  0.52726648  1
  V  V23  1  0.35779905  0.61535688  0.25008508  1
  V  V24  1  0.12646005  0.12258299  0.52416944  1
  V  V25  1  0.24995744  0.37374664  0.62995532  1
  V  V26  1  0.49659738  0.88437120  0.37651095  1
  V  V27  1  0.63733629  0.61447863  -0.00223815  1
  V  V28  1  -0.00657305  0.50054060  0.00663690  1
  V  V29  1  -0.00366013  0.36677694  0.87344196  1
  V  V30  1  0.50887231  0.74471984  0.74104760  1
  V  V31  1  0.87126817  0.51432167  0.37251306  1
  V  V32  1  0.12496398  0.50974982  0.63208027  1
  V  V33  1  0.39279848  0.37272507  0.50729988  1
  V  V34  1  0.87116535  0.88333587  0.51321806  1
  V  V35  1  0.87665624  0.50902217  0.86497464  1
  V  V36  1  0.73794642  0.11877512  0.86071957  1
  V  V37  1  0.85444738  0.86749663  0.00893469  1
  V  V38  1  0.12461574  -0.00002680  0.12719767  1
  V  V39  1  0.12587032  0.75562084  0.36678091  1
  V  V40  1  0.62520363  0.12729788  0.00330727  1
  V  V41  1  0.36677387  0.61854432  0.74193469  1
  V  V42  1  0.11332502  0.12333515  -0.00585746  1
  V  V43  1  0.24537243  0.62559107  0.87924249  1
  V  V44  1  0.61935558  -0.00860694  0.12216208  1
  V  V45  1  0.47914367  0.12678103  0.65486826  1
  V  V46  1  0.12112771  0.36495554  0.75593852  1
  V  V47  1  0.64573700  0.36850689  0.23354610  1
  V  V48  1  0.76925929  0.11819331  0.37186967  1
  V  V49  1  0.38030451  0.15068031  0.26143692  1
  V  V50  1  0.25368402  0.74514568  0.49659785  1
  V  V51  1  0.63489254  0.87127902  0.25583992  1
  V  V52  1  -0.00207160  0.24686968  0.22941911  1
  V  V53  1  0.88914548  0.13510080  0.74704560  1
  V  V54  1  0.38365456  0.50511759  0.88578191  1
  V  V55  1  0.87393779  -0.00337120  0.87549383  1
  V  V56  1  0.12267152  0.63460165  0.00405051  1
  V  V57  1  0.47632725  0.87851667  0.88258497  1
  V  V58  1  0.12843485  0.62624082  0.49259778  1
  V  V59  1  0.88124794  0.11936540  0.23149002  1
  V  V60  1  -0.00036106  0.89089611  0.37128025  1
  V  V61  1  0.37464381  0.74904519  0.61957161  1
  V  V62  1  0.61687793  0.10862820  0.49287421  1
  V  V63  1  0.74721213  0.49745307  0.73799112  1
  V  V64  1  0.24464106  0.24833651  -0.01248133  1
  V  V65  1  0.00095681  0.50706846  0.49824204  1
  V  V66  1  -0.01407663  0.74479955  0.24598741  1
  V  V67  1  0.49082753  0.14089042  0.12654064  1
  V  V68  1  0.00919737  0.87730213  0.89317052  1
  V  V69  1  0.38818768  0.37884123  -0.00137285  1
  Zn  Zn70  1  0.76343223  -0.01319854  0.24350684  1
  Zn  Zn71  1  0.36594028  0.50397972  0.37596655  1
  Zn  Zn72  1  0.76449615  0.63723936  0.86990794  1
  Zn  Zn73  1  0.12815472  0.76287675  0.86162014  1
  Zn  Zn74  1  0.86641725  0.37434572  0.50308191  1
  Zn  Zn75  1  0.86116014  0.26288796  0.09538267  1
  Zn  Zn76  1  0.18348382  0.19466424  0.18535632  1
  Zn  Zn77  1  0.19277834  0.19260484  0.69403713  1
  Zn  Zn78  1  0.18549397  0.69777836  0.18233481  1
  Zn  Zn79  1  0.18977186  0.69747717  0.68629729  1
  Zn  Zn80  1  0.69158131  0.17895462  0.18518143  1
  Zn  Zn81  1  0.66944078  0.19156249  0.68497966  1
  Zn  Zn82  1  0.67954065  0.68279578  0.19295784  1
  Zn  Zn83  1  0.73431503  0.70430041  0.69839383  1
  Zn  Zn84  1  0.30348178  0.33275399  0.32590541  1
  Zn  Zn85  1  0.30452371  0.32615803  0.82181338  1
  Zn  Zn86  1  0.31746787  0.80291719  0.31416232  1
  Zn  Zn87  1  0.30054184  0.80585900  0.80752057  1
  Zn  Zn88  1  0.81733483  0.30735686  0.31453123  1
  Zn  Zn89  1  0.81081809  0.30436868  0.91172858  1
  Zn  Zn90  1  0.81573827  0.80763271  0.33322719  1
  Zn  Zn91  1  0.80939077  0.82474075  0.80600952  1
  Zn  Zn92  1  0.18797492  0.44007782  0.43386326  1
  Zn  Zn93  1  0.19030834  0.44679512  0.93828435  1
  Zn  Zn94  1  0.18816755  0.94004003  0.44027895  1
  Zn  Zn95  1  0.20022050  0.94879489  0.94202619  1
  Zn  Zn96  1  0.68526680  0.43952337  0.43165406  1
  Zn  Zn97  1  0.68252171  0.44348301  0.92206576  1
  Zn  Zn98  1  0.69326762  0.93419272  0.42693689  1
  Zn  Zn99  1  0.67861154  0.93866257  0.93445651  1
  Zn  Zn100  1  0.28554886  0.08672022  0.09367830  1
  Zn  Zn101  1  0.32841489  0.08007835  0.55607434  1
  Zn  Zn102  1  0.33464192  0.60839790  0.04729264  1
  Zn  Zn103  1  0.31073656  0.55549765  0.55659690  1
  Zn  Zn104  1  0.80707764  0.05338338  0.06096151  1
  Zn  Zn105  1  0.81343932  0.06981177  0.56711156  1
  Zn  Zn106  1  0.81179112  0.43885477  0.05817984  1
  Zn  Zn107  1  0.81344735  0.56441186  0.56042108  1
  Zn  Zn108  1  0.43866069  0.44286730  0.17290097  1
  Zn  Zn109  1  0.43323350  0.43497203  0.69321473  1
  Zn  Zn110  1  0.43613287  0.94716349  0.19256656  1
  Zn  Zn111  1  0.47610139  0.92423214  0.65944313  1
  Zn  Zn112  1  0.93511161  0.43786404  0.19050704  1
  Zn  Zn113  1  0.94109653  0.43853084  0.68833488  1
  Zn  Zn114  1  0.94159088  0.92904611  0.18159975  1
  Zn  Zn115  1  0.93620168  0.93744728  0.69995189  1
  Zn  Zn116  1  0.06832423  0.06493532  0.30588838  1
  Zn  Zn117  1  0.06684994  0.05903054  0.81361041  1
  Zn  Zn118  1  0.05736925  0.56653587  0.31132582  1
  Zn  Zn119  1  0.06163239  0.56139898  0.81644295  1
  Zn  Zn120  1  0.55988208  0.05883717  0.30563483  1
  Zn  Zn121  1  0.54178138  0.06183893  0.82135532  1
  Zn  Zn122  1  0.54684714  0.53451409  0.26766791  1
  Zn  Zn123  1  0.56396919  0.56828933  0.81065844  1
  Zn  Zn124  1  0.43409460  0.19376652  0.43792197  1
  Zn  Zn125  1  0.43608703  0.18982228  0.94880770  1
  Zn  Zn126  1  0.44412485  0.68538334  0.42487537  1
  Zn  Zn127  1  0.44004567  0.69932471  0.93237776  1
  Zn  Zn128  1  0.94313231  0.18282518  0.44417949  1
  Zn  Zn129  1  0.94123098  0.17728728  0.92808161  1
  Zn  Zn130  1  0.93885480  0.69627972  0.43998092  1
  Zn  Zn131  1  0.94175000  0.69374106  0.93915528  1
  Zn  Zn132  1  0.06312072  0.31509842  0.05471546  1
  Zn  Zn133  1  0.06230652  0.31576897  0.56581505  1
  Zn  Zn134  1  0.06422108  0.82400879  0.06892316  1
  Zn  Zn135  1  0.06341345  0.81537117  0.56348753  1
  Zn  Zn136  1  0.68525224  0.30608732  0.05288483  1
  Zn  Zn137  1  0.57190221  0.29103250  0.56879650  1
  Zn  Zn138  1  0.54779224  0.81511333  0.06604784  1
  Zn  Zn139  1  0.56414325  0.81018045  0.55831373  1
  O  O140  1  0.15052500  0.11236660  0.11447624  1
  O  O141  1  0.14076817  0.11955481  0.62275784  1
  O  O142  1  0.12995301  0.61605864  0.11613910  1
  O  O143  1  0.13380727  0.61326227  0.61357006  1
  O  O144  1  0.61278679  0.12119386  0.11957948  1
  O  O145  1  0.65527595  0.09160276  0.60182480  1
  O  O146  1  0.62185411  0.63685485  0.10591296  1
  O  O147  1  0.55061960  0.55561225  0.63418453  1
  O  O148  1  0.40566897  0.36028291  0.39032184  1
  O  O149  1  0.37070321  0.39435432  0.88463234  1
  O  O150  1  0.38497997  0.86784884  0.38527228  1
  O  O151  1  0.37735600  0.86617239  0.86098339  1
  O  O152  1  0.89059206  0.38022193  0.37607324  1
  O  O153  1  0.89124858  0.38681010  0.87289876  1
  O  O154  1  0.89479158  0.87717373  0.39545754  1
  O  O155  1  0.87783281  0.88323658  0.87762669  1
  O  O156  1  0.24230443  0.01679961  0.36673952  1
  O  O157  1  0.27588454  0.01677622  0.87418458  1
  O  O158  1  0.27202254  0.44065013  0.36238834  1
  O  O159  1  0.26046841  0.51555655  0.87526640  1
  O  O160  1  0.75114521  0.01587923  0.36249360  1
  O  O161  1  0.75177594  0.01018744  0.87741250  1
  O  O162  1  0.76800583  0.49172819  0.37050596  1
  O  O163  1  0.77002583  0.50341392  0.87122587  1
  O  O164  1  0.23294801  0.48999125  0.12283324  1
  O  O165  1  0.23341267  0.48659169  0.61483882  1
  O  O166  1  0.25332919  0.98709136  0.14058482  1
  O  O167  1  0.27752658  1.00872718  0.65552392  1
  O  O168  1  0.76273923  0.50384923  0.14282767  1
  O  O169  1  0.76223790  0.49740212  0.63874465  1
  O  O170  1  0.72732024  1.01000053  0.13466546  1
  O  O171  1  0.70969731  1.03156650  0.60924800  1
  O  O172  1  0.00171968  0.36301823  0.25679776  1
  O  O173  1  0.01230757  0.38086493  0.76053704  1
  O  O174  1  -0.00422690  0.87290638  0.26918678  1
  O  O175  1  0.02083714  0.88266668  0.76230393  1
  O  O176  1  0.51010081  0.37255205  0.24730959  1
  O  O177  1  0.51517093  0.38479997  0.74794624  1
  O  O178  1  0.50143618  0.86520051  0.25768582  1
  O  O179  1  0.50206183  0.85928096  0.75699885  1
  O  O180  1  0.48575583  0.13010089  0.25146413  1
  O  O181  1  0.47569386  0.12436125  0.75578759  1
  O  O182  1  0.51778294  0.64250721  0.24989820  1
  O  O183  1  0.48158392  0.63933176  0.75709681  1
  O  O184  1  0.99380185  0.13766431  0.25114267  1
  O  O185  1  0.98988140  0.12824372  0.76842163  1
  O  O186  1  1.00215612  0.64436772  0.25077894  1
  O  O187  1  1.03180600  0.65453626  0.75118739  1
  O  O188  1  0.36285378  0.27216770  -0.01035082  1
  O  O189  1  0.36077391  0.26653346  0.49930896  1
  O  O190  1  0.36134583  0.71138045  0.00708918  1
  O  O191  1  0.37101480  0.73960206  0.50324963  1
  O  O192  1  0.87229805  0.24366725  -0.01472009  1
  O  O193  1  0.86040735  0.24878475  0.49183818  1
  O  O194  1  0.87377998  0.76767949  -0.00786286  1
  O  O195  1  0.88792659  0.77258911  0.51149316  1
  O  O196  1  0.12870358  0.23437483  0.51247469  1
  O  O197  1  0.13514729  0.23566417  1.00954170  1
  O  O198  1  0.13270833  0.74351354  0.49808905  1
  O  O199  1  0.11285231  0.73484519  1.00487826  1
  O  O200  1  0.63758787  0.23744190  0.48338726  1
  O  O201  1  0.61593998  0.23314278  0.99175892  1
  O  O202  1  0.61936661  0.73220449  0.50252337  1
  O  O203  1  0.62329151  0.75729076  0.98790446  1
  O  O204  1  0.50205721  0.23616375  0.13258975  1
  O  O205  1  0.55747954  0.19848054  0.63459082  1
  O  O206  1  0.50270301  0.73988661  0.13973339  1
  O  O207  1  0.49012806  0.74566127  0.63454060  1
  O  O208  1  0.99655294  0.25199554  0.12959429  1
  O  O209  1  0.96097639  0.28974179  0.62080750  1
  O  O210  1  1.00471444  0.77014290  0.14917218  1
  O  O211  1  0.98964766  0.75825468  0.63050569  1
  O  O212  1  0.00103552  0.26193656  0.37728582  1
  O  O213  1  0.00335967  0.26881636  0.88115934  1
  O  O214  1  0.01058538  0.76022677  0.37146924  1
  O  O215  1  0.00666204  0.77187198  0.87844286  1
  O  O216  1  0.51723631  0.25489379  0.37677701  1
  O  O217  1  0.51261373  0.23466007  0.87464721  1
  O  O218  1  0.50350914  0.76022991  0.35970345  1
  O  O219  1  0.50790465  0.75640681  0.86087481  1
  O  O220  1  0.24137773  0.13056240  0.49311369  1
  O  O221  1  0.26301502  0.14679804  1.00085619  1
  O  O222  1  0.24249674  0.63125960  0.49642858  1
  O  O223  1  0.23272650  0.61883709  0.99225244  1
  O  O224  1  0.74744429  0.12868534  0.48088769  1
  O  O225  1  0.72746782  0.11811147  1.00048708  1
  O  O226  1  0.73613506  0.61549388  0.49484594  1
  O  O227  1  0.73599513  0.62773645  0.98601888  1
  O  O228  1  0.24165165  0.36941621  0.01039184  1
  O  O229  1  0.23986615  0.36652894  0.51303696  1
  O  O230  1  0.26979321  0.88265505  0.00371834  1
  O  O231  1  0.26637722  0.86405434  0.49083988  1
  O  O232  1  0.74838067  0.37547742  -0.01340557  1
  O  O233  1  0.74649191  0.36016230  0.49271003  1
  O  O234  1  0.75391761  0.87506264  -0.00547732  1
  O  O235  1  0.77254502  0.89898274  0.49944668  1
  O  O236  1  0.10947008  0.49297852  0.23346405  1
  O  O237  1  0.12035964  0.50178372  0.73374022  1
  O  O238  1  0.14605574  1.01204801  0.23830170  1
  O  O239  1  0.14364539  0.99190865  0.75849024  1
  O  O240  1  0.64573524  0.47805760  0.25982282  1
  O  O241  1  0.63134291  0.49298434  0.75590900  1
  O  O242  1  0.62767154  0.98472052  0.24535689  1
  O  O243  1  0.61355129  0.99174705  0.75810318  1
  O  O244  1  0.35840595  0.01526662  0.25433638  1
  O  O245  1  0.32159726  -0.01398315  0.71055890  1
  O  O246  1  0.37926523  0.51165644  0.24912697  1
  O  O247  1  0.37668769  0.51452819  0.75637716  1
  O  O248  1  0.88108440  0.01499530  0.24109290  1
  O  O249  1  0.87100829  0.00521425  0.76725440  1
  O  O250  1  0.86994382  0.50244125  0.26313028  1
  O  O251  1  0.86975442  0.49706927  0.75777881  1
  O  O252  1  0.10939497  0.38648813  0.35872772  1
  O  O253  1  0.12225923  0.39056980  0.85888296  1
  O  O254  1  0.11385610  0.86396323  0.38833701  1
  O  O255  1  0.11441805  0.88507511  0.89421908  1
  O  O256  1  0.61579840  0.36362790  0.37038163  1
  O  O257  1  0.61117365  0.36228181  0.88339112  1
  O  O258  1  0.61330522  0.87739455  0.36276853  1
  O  O259  1  0.61297989  0.86519379  0.86277146  1
  O  O260  1  0.38033857  0.12932894  0.14540416  1
  O  O261  1  0.38588374  0.15305842  0.61762021  1
  O  O262  1  0.39585695  0.62139421  0.14318201  1
  O  O263  1  0.36575265  0.62527978  0.63562992  1
  O  O264  1  0.87194713  0.12699186  0.13196924  1
  O  O265  1  0.87443564  0.11901503  0.64652032  1
  O  O266  1  0.83663145  0.67747716  0.12126815  1
  O  O267  1  0.88330504  0.64115485  0.61037775  1
  O  O268  1  0.24979327  0.26445876  0.11475230  1
  O  O269  1  0.24579009  0.26582332  0.61820629  1
  O  O270  1  0.24473922  0.77417964  0.12729384  1
  O  O271  1  0.26073094  0.74870797  0.60979478  1
  O  O272  1  0.75144560  0.24651969  0.12164306  1
  O  O273  1  0.74016228  0.23777463  0.60281584  1
  O  O274  1  0.78252431  0.72686481  0.13031761  1
  O  O275  1  0.75787056  0.74683312  0.59476763  1
  O  O276  1  0.24635587  0.24478841  0.38904973  1
  O  O277  1  0.23781973  0.26265104  0.88945003  1
  O  O278  1  0.23562774  0.75416278  0.38299619  1
  O  O279  1  0.24280863  0.73150699  0.87949574  1
  O  O280  1  0.74349967  0.23853223  0.37765604  1
  O  O281  1  0.72550165  0.22674663  0.88076984  1
  O  O282  1  0.75354418  0.75868255  0.41173330  1
  O  O283  1  0.72915240  0.75131262  0.86014650  1
  O  O284  1  0.01359143  0.12605659  0.00257327  1
  O  O285  1  0.01545890  0.11741589  0.50559841  1
  O  O286  1  0.01210336  0.61185884  -0.00785363  1
  O  O287  1  0.01100643  0.61558816  0.49525333  1
  O  O288  1  0.50062568  0.12343970  0.01901222  1
  O  O289  1  0.51739829  0.13135206  0.49217301  1
  O  O290  1  0.50462759  0.62913523  0.01437938  1
  O  O291  1  0.51067568  0.60198155  0.48247125  1
  O  O292  1  0.49121962  0.36179585  0.52304994  1
  O  O293  1  0.48299181  0.37677009  1.00803778  1
  O  O294  1  0.49144887  0.87080018  0.48440570  1
  O  O295  1  0.48679504  0.85823792  0.98203765  1
  O  O296  1  1.01080052  0.38531615  0.48406403  1
  O  O297  1  1.01615689  0.39243779  0.98249533  1
  O  O298  1  1.00227433  0.89567719  0.49902819  1
  O  O299  1  0.98821964  0.87933785  0.99421367  1
  O  O300  1  0.49789109  0.47935157  0.36009755  1
  O  O301  1  0.48256908  0.51434444  0.87519770  1
  O  O302  1  0.49390205  0.98349077  0.36433866  1
  O  O303  1  0.49042468  0.97824988  0.87698622  1
  O  O304  1  0.99004362  0.49583554  0.37920093  1
  O  O305  1  0.99167057  0.49643957  0.87827042  1
  O  O306  1  1.01185866  0.99259839  0.37554112  1
  O  O307  1  0.98393311  0.99108305  0.87634133  1
  O  O308  1  0.02501293  -0.00309200  0.13703129  1
  O  O309  1  0.00622330  0.00211331  0.62477487  1
  O  O310  1  0.00473002  0.49606770  0.11020837  1
  O  O311  1  0.01544185  0.49191518  0.61050219  1
  O  O312  1  0.51431637  0.01456417  0.14178275  1
  O  O313  1  0.49178219  0.02930606  0.62656672  1
  O  O314  1  0.51740280  0.52385020  0.14708530  1
  O  O315  1  0.49865147  0.50815609  0.61160351  1
  O  O316  1  0.23516004  0.36431779  0.23068564  1
  O  O317  1  0.24067305  0.37538944  0.73760943  1
  O  O318  1  0.25639207  0.88708007  0.26424084  1
  O  O319  1  0.19368236  0.82243437  0.76220919  1
  O  O320  1  0.74889303  0.37575213  0.24962802  1
  O  O321  1  0.73322283  0.39497203  0.75879930  1
  O  O322  1  0.73944818  0.87031940  0.26370852  1
  O  O323  1  0.72378459  0.87400220  0.74319836  1
  O  O324  1  0.25625867  0.13644205  0.26200336  1
  O  O325  1  0.28749447  0.16779695  0.76238964  1
  O  O326  1  0.25920062  0.62662117  0.23903795  1
  O  O327  1  0.25901339  0.63164647  0.76000452  1
  O  O328  1  0.76997135  0.13085726  0.25839198  1
  O  O329  1  0.73162989  0.12278931  0.76102659  1
  O  O330  1  0.73528857  0.60860121  0.25734854  1
  O  O331  1  0.73679354  0.60754076  0.75828212  1
  O  O332  1  0.36298047  0.13296327  0.36858969  1
  O  O333  1  0.37418667  0.10452517  0.88089771  1
  O  O334  1  0.37548775  0.62022099  0.35759770  1
  O  O335  1  0.36399145  0.62061649  0.86725489  1
  O  O336  1  0.87187160  0.12582779  0.36933962  1
  O  O337  1  0.85666157  0.11287993  0.87040407  1
  O  O338  1  0.87817419  0.61317183  0.38512583  1
  O  O339  1  0.88374642  0.61417712  0.87377651  1
  O  O340  1  0.12839797  0.38428975  0.12838949  1
  O  O341  1  0.12966498  0.38267486  0.63726897  1
  O  O342  1  0.14529864  0.89461862  0.11240030  1
  O  O343  1  0.12559443  0.88584659  0.62998886  1
  O  O344  1  0.63044201  0.36982758  0.13669171  1
  O  O345  1  0.62615325  0.37034451  0.63507118  1
  O  O346  1  0.61537594  0.88478166  0.13521154  1
  O  O347  1  0.59404482  0.88508189  0.63854257  1
  O  O348  1  0.10821281  0.26058801  0.24338098  1
  O  O349  1  0.12408377  0.26511003  0.75084889  1
  O  O350  1  0.12190346  0.75221903  0.26561615  1
  O  O351  1  0.09245494  0.70713294  0.75344859  1
  O  O352  1  0.63528928  0.25728434  0.26144356  1
  O  O353  1  0.63001482  0.27008334  0.76477880  1
  O  O354  1  0.61939583  0.76679884  0.24259850  1
  O  O355  1  0.61179054  0.74235937  0.74380433  1
  O  O356  1  0.36998627  0.25009700  0.26187872  1
  O  O357  1  0.34093650  0.22289658  0.76507940  1
  O  O358  1  0.38774122  0.73420284  0.25295300  1
  O  O359  1  0.37513617  0.74271809  0.73506651  1
  O  O360  1  0.89040021  0.24167664  0.24916291  1
  O  O361  1  0.86338565  0.22833243  0.76744405  1
  O  O362  1  0.88577402  0.75474785  0.26212743  1
  O  O363  1  0.84709034  0.75296591  0.72382443  1
  O  O364  1  0.37278130  0.47802648  0.49470193  1
  O  O365  1  0.37134676  0.50069511  0.99182347  1
  O  O366  1  0.36674762  0.98731429  0.50136012  1
  O  O367  1  0.33608877  1.04614999  0.91710428  1
  O  O368  1  0.88417944  0.49313765  0.49266251  1
  O  O369  1  0.88970041  0.50146371  0.98924348  1
  O  O370  1  0.89547505  1.00083344  0.51040384  1
  O  O371  1  0.86622429  0.99090265  0.98460311  1
  O  O372  1  0.13786623  0.01541294  0.01388395  1
  O  O373  1  0.12087932  0.01432552  0.50244299  1
  O  O374  1  0.11732062  0.50778007  0.01175875  1
  O  O375  1  0.12073301  0.50907090  0.49810954  1
  O  O376  1  0.61850504  0.00376479  0.01589954  1
  O  O377  1  0.62190632  0.01086967  0.47604085  1
  O  O378  1  0.62262216  0.51614895  -0.01260935  1
  O  O379  1  0.60536984  0.50989158  0.48761207  1
  O  O380  1  0.35876000  0.38876628  0.11096019  1
  O  O381  1  0.35967337  0.38379574  0.61886657  1
  O  O382  1  0.36862134  0.87889527  0.13247061  1
  O  O383  1  0.38914862  0.86210901  0.60282913  1
  O  O384  1  0.88319225  0.37333397  0.11669643  1
  O  O385  1  0.90710694  0.35188880  0.61586719  1
  O  O386  1  0.86814446  0.88530970  0.10887966  1
  O  O387  1  0.88039756  0.87727378  0.61741765  1
  O  O388  1  0.13596179  0.13170643  0.37700347  1
  O  O389  1  0.12910032  0.11472198  0.89476944  1
  O  O390  1  0.12002432  0.64009251  0.38306950  1
  O  O391  1  0.13317990  0.61968377  0.88748196  1
  O  O392  1  0.63066349  0.13156865  0.37208906  1
  O  O393  1  0.62400315  0.11365801  0.88956072  1
  O  O394  1  0.57705589  0.57368134  0.44891977  1
  O  O395  1  0.61238271  0.64311453  0.88779685  1
