# generated using pymatgen
data_V35Zn35O128
_symmetry_space_group_name_H-M   'P 1'
_cell_length_a   16.87653626
_cell_length_b   16.81941774
_cell_length_c   16.85228667
_cell_angle_alpha   90.24862507
_cell_angle_beta   89.82501356
_cell_angle_gamma   90.08937555
_symmetry_Int_Tables_number   1
_chemical_formula_structural   V35Zn35O128
_chemical_formula_sum   'V70 Zn70 O256'
_cell_volume   4783.50771223
_cell_formula_units_Z   2
loop_
 _symmetry_equiv_pos_site_id
 _symmetry_equiv_pos_as_xyz
  1  'x, y, z'
loop_
 _atom_site_type_symbol
 _atom_site_label
 _atom_site_symmetry_multiplicity
 _atom_site_fract_x
 _atom_site_fract_y
 _atom_site_fract_z
 _atom_site_occupancy
  V  V0  1  0.88880425  0.86636122  0.50029897  1
  V  V1  1  0.39158535  0.23812603  0.62801815  1
  V  V2  1  0.74318580  0.37057258  0.11082641  1
  V  V3  1  0.12106857  0.36708488  0.74351466  1
  V  V4  1  0.76245103  0.63085511  0.38297633  1
  V  V5  1  0.38750430  0.12129969  0.75006720  1
  V  V6  1  0.87366067  0.49222448  0.37300687  1
  V  V7  1  0.87082732  0.24358036  0.11694286  1
  V  V8  1  0.09164302  0.18462218  0.42606988  1
  V  V9  1  0.13411853  0.62235763  0.49846578  1
  V  V10  1  0.49323752  0.36555830  0.87750327  1
  V  V11  1  0.85437657  0.75131603  0.62388830  1
  V  V12  1  0.62786199  0.22943499  0.37551625  1
  V  V13  1  0.37230393  0.50235971  0.88323926  1
  V  V14  1  0.13090878  0.76235506  0.38265641  1
  V  V15  1  0.00012734  0.63822377  0.62830078  1
  V  V16  1  0.25896452  0.23594672  0.49752683  1
  V  V17  1  0.73743867  0.73687689  -0.01908162  1
  V  V18  1  0.00252572  0.49381766  0.51966611  1
  V  V19  1  0.12421503  0.23902100  0.87082589  1
  V  V20  1  0.39552054  0.38603433  0.50687064  1
  V  V21  1  0.37615737  0.62790018  0.73123250  1
  V  V22  1  0.63193310  0.12517389  0.01221540  1
  V  V23  1  0.63016024  0.86891157  0.74684586  1
  V  V24  1  0.25340719  -0.01360090  0.23883229  1
  V  V25  1  0.11711816  0.87629365  0.22957862  1
  V  V26  1  0.89130033  0.00348234  0.37468229  1
  V  V27  1  0.03977557  0.23675562  0.23558782  1
  V  V28  1  0.23783584  0.79442096  0.02293718  1
  V  V29  1  0.24634396  0.00088228  0.73641585  1
  V  V30  1  0.74081000  0.22627003  0.50471797  1
  V  V31  1  0.61743074  0.50819042  0.61985928  1
  V  V32  1  0.24839811  0.49475056  0.73827136  1
  V  V33  1  0.23564389  0.63531538  0.86422203  1
  V  V34  1  0.87632240  0.23112485  0.62830682  1
  V  V35  1  0.61659947  0.00971711  0.61774261  1
  V  V36  1  0.87079895  0.12360355  0.76860844  1
  V  V37  1  0.62744514  0.37914947  0.26107759  1
  V  V38  1  0.00542063  0.35868043  0.38540133  1
  V  V39  1  0.74417553  0.01014281  0.75884018  1
  V  V40  1  0.74217520  0.87197405  0.12431666  1
  V  V41  1  0.37950223  0.26041294  0.10421201  1
  V  V42  1  0.74608595  0.50497672  0.75999384  1
  V  V43  1  0.49589141  0.74791180  0.73255254  1
  V  V44  1  0.41039455  0.49991319  0.36358444  1
  V  V45  1  -0.00661969  0.74433962  0.25190035  1
  V  V46  1  0.25322295  0.37508691  0.62092774  1
  V  V47  1  0.88523789  0.38382424  -0.00497282  1
  V  V48  1  0.86241189  0.13238097  0.25179799  1
  V  V49  1  0.74285293  -0.00634982  0.25043519  1
  V  V50  1  0.36444731  -0.00018743  0.88187671  1
  V  V51  1  0.24811566  0.22630570  -0.00837446  1
  V  V52  1  0.11226375  0.86573118  0.76212026  1
  V  V53  1  0.88160361  0.88473663  -0.01337334  1
  V  V54  1  0.49750948  0.86799053  0.88502632  1
  V  V55  1  0.49285929  0.24506830  0.25170951  1
  V  V56  1  0.86676041  0.62677370  0.76022996  1
  V  V57  1  0.85932715  0.37395704  0.51943228  1
  V  V58  1  0.26711422  0.12117610  0.36359717  1
  V  V59  1  0.61725536  0.62984089  0.50001852  1
  V  V60  1  0.50025297  0.00779156  0.00862794  1
  V  V61  1  0.25857492  0.86303647  0.61403079  1
  V  V62  1  0.63403832  0.76681622  0.37897748  1
  V  V63  1  0.62442108  0.36927915  0.74431448  1
  V  V64  1  0.11018411  0.62245659  -0.00438216  1
  V  V65  1  0.38650656  0.75262259  0.13487764  1
  V  V66  1  0.38525908  -0.02581317  0.38038463  1
  V  V67  1  0.10909708  0.00558806  0.61520216  1
  V  V68  1  0.62195724  0.51421964  0.11689766  1
  V  V69  1  0.63461413  0.24243995  0.87753833  1
  Zn  Zn70  1  0.87569212  0.73876914  0.11344444  1
  Zn  Zn71  1  0.76731455  0.50346557  0.23734285  1
  Zn  Zn72  1  0.52167733  0.75910338  0.25062339  1
  Zn  Zn73  1  0.49629751  0.50129224  0.00534508  1
  Zn  Zn74  1  -0.00379903  0.60705422  0.13530853  1
  Zn  Zn75  1  0.00238016  0.37888632  0.88361075  1
  Zn  Zn76  1  0.22633455  0.18808953  0.17216775  1
  Zn  Zn77  1  0.20320386  0.18405750  0.68205250  1
  Zn  Zn78  1  0.17338291  0.69251868  0.17640244  1
  Zn  Zn79  1  0.18546876  0.68967966  0.68442269  1
  Zn  Zn80  1  0.68710454  0.18922386  0.18756853  1
  Zn  Zn81  1  0.68316140  0.18425341  0.68608471  1
  Zn  Zn82  1  0.70345565  0.68721560  0.19755963  1
  Zn  Zn83  1  0.68419665  0.68729314  0.68978311  1
  Zn  Zn84  1  0.31830953  0.32505435  0.32668801  1
  Zn  Zn85  1  0.31283532  0.30857978  0.81079946  1
  Zn  Zn86  1  0.30392954  0.80230622  0.30796970  1
  Zn  Zn87  1  0.31204874  0.81908143  0.80806978  1
  Zn  Zn88  1  0.80540777  0.31344651  0.31793326  1
  Zn  Zn89  1  0.80808234  0.31388164  0.81076858  1
  Zn  Zn90  1  0.81606893  0.82131085  0.31851981  1
  Zn  Zn91  1  0.81261375  0.81007810  0.81542533  1
  Zn  Zn92  1  0.18564490  0.43324418  0.44924985  1
  Zn  Zn93  1  0.17264406  0.45116458  0.92197554  1
  Zn  Zn94  1  0.19320932  0.94885183  0.44048583  1
  Zn  Zn95  1  0.16944446  0.95166741  0.93590900  1
  Zn  Zn96  1  0.68648829  0.44031278  0.44398611  1
  Zn  Zn97  1  0.68432574  0.43704043  0.93567345  1
  Zn  Zn98  1  0.71222057  0.95269073  0.44712199  1
  Zn  Zn99  1  0.68126025  0.93171149  0.94042964  1
  Zn  Zn100  1  0.32510740  0.06961909  0.07327779  1
  Zn  Zn101  1  0.44869317  0.05732915  0.55013099  1
  Zn  Zn102  1  0.30774765  0.59020102  0.05305117  1
  Zn  Zn103  1  0.34545936  0.59214077  0.52210128  1
  Zn  Zn104  1  0.81125189  0.05682929  0.06047121  1
  Zn  Zn105  1  0.80703541  0.03949255  0.56658755  1
  Zn  Zn106  1  0.81471777  0.56552622  0.05400239  1
  Zn  Zn107  1  0.80478800  0.55829112  0.57213755  1
  Zn  Zn108  1  0.44325061  0.43118936  0.18502084  1
  Zn  Zn109  1  0.43897275  0.43660744  0.69024789  1
  Zn  Zn110  1  0.43382209  0.92491741  0.18625004  1
  Zn  Zn111  1  0.43777933  0.93242426  0.68978793  1
  Zn  Zn112  1  0.94197679  0.40241110  0.19450636  1
  Zn  Zn113  1  0.94672273  0.44881321  0.71931809  1
  Zn  Zn114  1  0.92925211  0.93758161  0.16446048  1
  Zn  Zn115  1  0.93246754  0.93806664  0.69452179  1
  Zn  Zn116  1  0.03956106  0.04129491  0.24885779  1
  Zn  Zn117  1  0.07800495  0.09479926  0.75692805  1
  Zn  Zn118  1  0.05466574  0.55684548  0.32042963  1
  Zn  Zn119  1  0.05347556  0.55719923  0.81082573  1
  Zn  Zn120  1  0.55458515  0.05683114  0.30227403  1
  Zn  Zn121  1  0.56080294  0.05399492  0.81806375  1
  Zn  Zn122  1  0.57853222  0.57289398  0.30060777  1
  Zn  Zn123  1  0.55257554  0.55756524  0.80791702  1
  Zn  Zn124  1  0.44172992  0.19102067  0.42966477  1
  Zn  Zn125  1  0.44071107  0.18133177  0.93160446  1
  Zn  Zn126  1  0.46203001  0.66918904  0.38761704  1
  Zn  Zn127  1  0.40715589  0.69929546  0.94790021  1
  Zn  Zn128  1  0.91738532  0.16417658  0.45780816  1
  Zn  Zn129  1  0.93929833  0.19138082  0.93168045  1
  Zn  Zn130  1  0.94621381  0.68680640  0.43731317  1
  Zn  Zn131  1  0.93214379  0.71362072  0.92612021  1
  Zn  Zn132  1  0.06289610  0.28943353  0.06112340  1
  Zn  Zn133  1  0.06015483  0.30303032  0.57059470  1
  Zn  Zn134  1  0.05479019  0.80177169  0.05363725  1
  Zn  Zn135  1  0.06854261  0.81900359  0.56803532  1
  Zn  Zn136  1  0.55861170  0.31113397  0.05880481  1
  Zn  Zn137  1  0.56819386  0.30347451  0.56435009  1
  Zn  Zn138  1  0.56310699  0.81225985  0.06563731  1
  Zn  Zn139  1  0.57495785  0.80820174  0.56334821  1
  O  O140  1  0.11638735  0.23106953  0.16434854  1
  O  O141  1  0.12220092  0.11041467  0.64647526  1
  O  O142  1  0.11245598  0.62279741  0.10212100  1
  O  O143  1  0.10635487  0.62852494  0.61883867  1
  O  O144  1  0.62062879  0.13644825  0.11132861  1
  O  O145  1  0.61465561  0.11067366  0.63240030  1
  O  O146  1  0.63393834  0.61134118  0.13742542  1
  O  O147  1  0.62574368  0.61986058  0.61315564  1
  O  O148  1  0.37700435  0.39828235  0.39681600  1
  O  O149  1  0.38416626  0.38732687  0.86329728  1
  O  O150  1  0.36621842  0.87398555  0.37180382  1
  O  O151  1  0.38521912  0.89167432  0.86552647  1
  O  O152  1  0.88044219  0.37666378  0.39336855  1
  O  O153  1  0.87539254  0.35777739  0.89292332  1
  O  O154  1  0.88170922  0.89016008  0.39103581  1
  O  O155  1  0.86598028  0.88031225  0.88470954  1
  O  O156  1  0.26520421  0.00694293  0.36809842  1
  O  O157  1  0.26231551  -0.00546515  0.87090105  1
  O  O158  1  0.23244940  0.46935738  0.34065875  1
  O  O159  1  0.25919174  0.49976242  0.85966687  1
  O  O160  1  0.77112274  -0.00301690  0.35662192  1
  O  O161  1  0.73335848  -0.00502689  0.85815103  1
  O  O162  1  0.76777812  0.49651261  0.37980603  1
  O  O163  1  0.74115050  0.50363442  0.86090354  1
  O  O164  1  0.26211529  0.54292993  0.15695599  1
  O  O165  1  0.25886126  0.48398793  0.63086507  1
  O  O166  1  0.25197979  1.01225279  0.14188891  1
  O  O167  1  0.24311959  0.99341290  0.63545206  1
  O  O168  1  0.74056520  0.48803600  0.12323575  1
  O  O169  1  0.72861467  0.50126124  0.63906649  1
  O  O170  1  0.75816957  0.98629807  0.13778392  1
  O  O171  1  0.72828041  1.00079617  0.64628553  1
  O  O172  1  -0.00257345  0.33666371  0.27661357  1
  O  O173  1  0.02325870  0.35913326  0.72389105  1
  O  O174  1  0.01416303  0.86317372  0.25238382  1
  O  O175  1  0.01264588  0.88522812  0.75318344  1
  O  O176  1  0.52363229  0.35978994  0.23865536  1
  O  O177  1  0.51523433  0.38621838  0.76545517  1
  O  O178  1  0.51107223  0.87151144  0.24510187  1
  O  O179  1  0.49969205  0.85778523  0.75829716  1
  O  O180  1  0.50715934  0.14544813  0.24462359  1
  O  O181  1  0.48649476  0.11660893  0.75057899  1
  O  O182  1  0.50007239  0.65016232  0.28044705  1
  O  O183  1  0.48684240  0.63586654  0.75351117  1
  O  O184  1  0.98508302  0.14709261  0.24128934  1
  O  O185  1  0.96960776  0.11739814  0.75591174  1
  O  O186  1  1.01398992  0.63752914  0.25010990  1
  O  O187  1  0.98165490  0.61727497  0.73278770  1
  O  O188  1  0.36825891  0.24616724  -0.00262106  1
  O  O189  1  0.37269678  0.26000904  0.50873970  1
  O  O190  1  0.31666976  0.77620336  -0.03759607  1
  O  O191  1  0.41414556  0.79070466  0.49817598  1
  O  O192  1  0.87978835  0.25278791  0.01435383  1
  O  O193  1  0.85650865  0.25185026  0.50952971  1
  O  O194  1  0.85433791  0.76003177  -0.00486755  1
  O  O195  1  0.87728746  0.75928049  0.50478175  1
  O  O196  1  0.14318113  0.24574165  0.50068520  1
  O  O197  1  0.13716686  0.24733284  0.98402334  1
  O  O198  1  0.11587137  0.73472401  0.49194295  1
  O  O199  1  0.14450689  0.74812701  0.99827590  1
  O  O200  1  0.63343164  0.25082511  0.48835905  1
  O  O201  1  0.61587774  0.23790565  0.98706493  1
  O  O202  1  0.63673483  0.73717407  0.49834133  1
  O  O203  1  0.63914294  0.75844893  1.00178230  1
  O  O204  1  0.48464302  0.25209389  0.12776815  1
  O  O205  1  0.48925695  0.25315692  0.63208273  1
  O  O206  1  0.49520668  0.75345334  0.13500461  1
  O  O207  1  0.49743168  0.74971727  0.63438505  1
  O  O208  1  0.97546603  0.27309767  0.14020923  1
  O  O209  1  0.97593453  0.23960603  0.61476420  1
  O  O210  1  0.99796682  0.74616191  0.14214519  1
  O  O211  1  0.99257500  0.73915225  0.62022852  1
  O  O212  1  -0.00576988  0.26069760  0.41795111  1
  O  O213  1  0.01953936  0.25700147  0.87782577  1
  O  O214  1  0.01826797  0.74080301  0.36532482  1
  O  O215  1  -0.01812531  0.75094883  0.83344689  1
  O  O216  1  0.51756433  0.25307168  0.36299939  1
  O  O217  1  0.49826111  0.26265250  0.87111891  1
  O  O218  1  0.53065684  0.76783516  0.38490042  1
  O  O219  1  0.48087478  0.76662786  0.88653573  1
  O  O220  1  0.27018375  0.13839948  0.49793426  1
  O  O221  1  0.24939399  0.12726241  1.00043372  1
  O  O222  1  0.23141232  0.61292169  0.51579363  1
  O  O223  1  0.22931409  0.62054465  0.97289398  1
  O  O224  1  0.74751458  0.12795826  0.49958289  1
  O  O225  1  0.73111517  0.11481461  1.00106597  1
  O  O226  1  0.74531500  0.61269403  0.48816038  1
  O  O227  1  0.74628731  0.63663000  0.99885645  1
  O  O228  1  0.20893542  0.42150086  0.04339989  1
  O  O229  1  0.26217256  0.36959715  0.50696024  1
  O  O230  1  0.22406580  0.89504694  0.01955042  1
  O  O231  1  0.24748973  0.88000543  0.51484006  1
  O  O232  1  0.75658348  0.37511886  0.00746315  1
  O  O233  1  0.75871348  0.37242023  0.50441582  1
  O  O234  1  0.75349261  0.87379608  0.01007334  1
  O  O235  1  0.80362646  0.92708033  0.52025177  1
  O  O236  1  0.08309041  0.48194416  0.22846200  1
  O  O237  1  0.13909681  0.47989217  0.74805816  1
  O  O238  1  0.13767406  0.98223339  0.25939552  1
  O  O239  1  0.13802456  0.99328176  0.75055447  1
  O  O240  1  0.62602699  0.48634362  0.23722641  1
  O  O241  1  0.63009754  0.49986814  0.74628985  1
  O  O242  1  0.64405551  1.00131714  0.25700554  1
  O  O243  1  0.62283133  0.98685780  0.74523605  1
  O  O244  1  0.35790103  -0.01421138  0.25441080  1
  O  O245  1  0.36804079  0.00628082  0.75518457  1
  O  O246  1  0.38977338  0.49439496  0.26540925  1
  O  O247  1  0.37069393  0.51236806  0.75346642  1
  O  O248  1  0.87221268  0.01723781  0.25168560  1
  O  O249  1  0.85401401  0.00949366  0.74602161  1
  O  O250  1  0.88273338  0.47950684  0.26991686  1
  O  O251  1  0.85280916  0.51354144  0.73462078  1
  O  O252  1  0.10376473  0.37446247  0.39238797  1
  O  O253  1  0.12464381  0.36793925  0.85778446  1
  O  O254  1  0.13017679  0.86320885  0.38548146  1
  O  O255  1  0.12943025  0.87607256  0.86260094  1
  O  O256  1  0.63163744  0.37942696  0.36226834  1
  O  O257  1  0.61433512  0.36498978  0.87050411  1
  O  O258  1  0.66239796  0.86128625  0.39749412  1
  O  O259  1  0.60434480  0.87894725  0.86081125  1
  O  O260  1  0.34503207  0.16528259  0.14200913  1
  O  O261  1  0.38213790  0.13124236  0.63097800  1
  O  O262  1  0.39051321  0.66803224  0.06016549  1
  O  O263  1  0.37294493  0.62409231  0.63244333  1
  O  O264  1  0.86882185  0.13916508  0.12704450  1
  O  O265  1  0.86276817  0.12877607  0.62604505  1
  O  O266  1  0.88558792  0.62192589  0.12112239  1
  O  O267  1  0.87926622  0.63745515  0.62129041  1
  O  O268  1  0.25254013  0.26924931  0.08800505  1
  O  O269  1  0.26455505  0.25414818  0.61265964  1
  O  O270  1  0.25911934  0.74364736  0.11567120  1
  O  O271  1  0.24618748  0.76156486  0.62173604  1
  O  O272  1  0.75675489  0.26228568  0.12377095  1
  O  O273  1  0.74771045  0.24445746  0.61019958  1
  O  O274  1  0.75504563  0.76013819  0.12640574  1
  O  O275  1  0.75523481  0.74852325  0.61880100  1
  O  O276  1  0.26367506  0.23945669  0.38583831  1
  O  O277  1  0.24494738  0.25852393  0.88775453  1
  O  O278  1  0.22822902  0.73751463  0.36764700  1
  O  O279  1  0.24396190  0.73138141  0.84433626  1
  O  O280  1  0.73774599  0.24994093  0.38821709  1
  O  O281  1  0.73282502  0.25249205  0.87670270  1
  O  O282  1  0.76186650  0.73433956  0.37926554  1
  O  O283  1  0.74136538  0.74707930  0.87956944  1
  O  O284  1  0.00523966  0.12043909  0.00367486  1
  O  O285  1  0.02667612  0.12895712  0.47594556  1
  O  O286  1  0.01548517  0.65615261  -0.01898089  1
  O  O287  1  0.00007716  0.61030699  0.51200788  1
  O  O288  1  0.50580257  0.11421966  -0.00303503  1
  O  O289  1  0.50541581  0.14019409  0.50282665  1
  O  O290  1  0.52873718  0.62660578  -0.03628620  1
  O  O291  1  0.51845093  0.63120248  0.49009938  1
  O  O292  1  0.49327613  0.36797147  0.50531386  1
  O  O293  1  0.50205483  0.38018835  0.98222548  1
  O  O294  1  0.46433504  0.84399243  0.50793153  1
  O  O295  1  0.50720715  0.88823785  0.98982045  1
  O  O296  1  0.99141781  0.38314576  0.50871689  1
  O  O297  1  0.99010760  0.37016915  1.00539578  1
  O  O298  1  0.98639706  0.88446106  0.51188247  1
  O  O299  1  0.98163699  0.86145777  0.99399494  1
  O  O300  1  0.50931846  0.50146709  0.37141012  1
  O  O301  1  0.48250966  0.49716426  0.87896786  1
  O  O302  1  0.48334913  0.98974819  0.35458137  1
  O  O303  1  0.48729755  0.99176887  0.88387315  1
  O  O304  1  0.98800844  0.48526184  0.39295314  1
  O  O305  1  0.98296586  0.47408329  0.82722789  1
  O  O306  1  0.98816690  1.01036106  0.35052382  1
  O  O307  1  1.03746565  1.05730672  0.96576414  1
  O  O308  1  0.01122608  0.00746429  0.14563413  1
  O  O309  1  0.00952932  -0.00141778  0.63090072  1
  O  O310  1  0.02771868  0.48323649  0.16997574  1
  O  O311  1  -0.01019187  0.50438747  0.62085898  1
  O  O312  1  0.48095779  -0.00324398  0.10638889  1
  O  O313  1  0.50780948  -0.00950516  0.62261935  1
  O  O314  1  0.51435473  0.49728239  0.12104298  1
  O  O315  1  0.51774662  0.50187883  0.63743666  1
  O  O316  1  0.23868695  0.40959634  0.29015644  1
  O  O317  1  0.25296232  0.37782803  0.73844401  1
  O  O318  1  0.23666067  0.87969658  0.24500119  1
  O  O319  1  0.24333213  0.88545753  0.74318195  1
  O  O320  1  0.74043606  0.37770142  0.23959762  1
  O  O321  1  0.73356187  0.38840430  0.75659670  1
  O  O322  1  0.76137190  0.88408771  0.24030191  1
  O  O323  1  0.73206987  0.87475740  0.75485673  1
  O  O324  1  0.24058797  0.11663199  0.26272452  1
  O  O325  1  0.26294398  0.10764603  0.74664609  1
  O  O326  1  0.24325162  0.59090086  0.21372154  1
  O  O327  1  0.25726217  0.61421046  0.74586548  1
  O  O328  1  0.75702885  0.11289645  0.23874496  1
  O  O329  1  0.74853419  0.11645479  0.75509535  1
  O  O330  1  0.74911512  0.61119920  0.27561281  1
  O  O331  1  0.75388194  0.61881337  0.75040675  1
  O  O332  1  0.36965216  0.11906295  0.36985568  1
  O  O333  1  0.37687223  0.11336846  0.86123802  1
  O  O334  1  0.37467859  0.59379902  0.40730475  1
  O  O335  1  0.35938961  0.61491728  0.86738762  1
  O  O336  1  0.87224213  0.13055771  0.35361021  1
  O  O337  1  0.86288281  0.13562833  0.86791907  1
  O  O338  1  0.87297834  0.60495341  0.38778149  1
  O  O339  1  0.87654571  0.62470612  0.85721528  1
  O  O340  1  0.15297600  0.40541508  0.09064461  1
  O  O341  1  0.14390640  0.35916772  0.63071522  1
  O  O342  1  0.11733812  0.87042463  0.13123485  1
  O  O343  1  0.13286415  0.88917302  0.63470054  1
  O  O344  1  0.63632412  0.37268967  0.12468729  1
  O  O345  1  0.61839015  0.38094065  0.63997247  1
  O  O346  1  0.64213218  0.87473853  0.12605649  1
  O  O347  1  0.61820590  0.87830398  0.64167676  1
  O  O348  1  0.09901763  0.22175060  0.31818020  1
  O  O349  1  0.14673621  0.25971958  0.75883912  1
  O  O350  1  0.12276260  0.76199771  0.25712652  1
  O  O351  1  0.12202010  0.76635762  0.74084084  1
  O  O352  1  0.62924593  0.25731209  0.26289284  1
  O  O353  1  0.62829544  0.26351152  0.75709069  1
  O  O354  1  0.64338648  0.75174207  0.27515757  1
  O  O355  1  0.60904244  0.75552441  0.74835215  1
  O  O356  1  0.39295777  0.26378194  0.26370413  1
  O  O357  1  0.36674326  0.23328613  0.73844417  1
  O  O358  1  0.36711097  0.73881460  0.23485210  1
  O  O359  1  0.38267577  0.73699757  0.75169675  1
  O  O360  1  0.85732815  0.24103421  0.23998709  1
  O  O361  1  0.85708228  0.23639523  0.73710465  1
  O  O362  1  0.89331314  0.75378674  0.26403288  1
  O  O363  1  0.86058246  0.73643474  0.73588879  1
  O  O364  1  0.38860396  0.48445240  0.52641272  1
  O  O365  1  0.36758871  0.50645591  0.98620302  1
  O  O366  1  0.38435236  0.99293665  0.48068495  1
  O  O367  1  0.38061299  1.01210286  0.98758909  1
  O  O368  1  0.87894973  0.48497262  0.50498949  1
  O  O369  1  0.87576570  0.48309431  0.99891070  1
  O  O370  1  0.88824192  1.04368366  0.47099577  1
  O  O371  1  0.87827044  0.98644883  1.00450976  1
  O  O372  1  0.10406333  0.03198491  -0.00105433  1
  O  O373  1  0.12519927  0.00196909  0.51684946  1
  O  O374  1  0.10030797  0.52224527  -0.02495438  1
  O  O375  1  0.10935737  0.50305002  0.50798930  1
  O  O376  1  0.61038858  0.01195208  -0.00418722  1
  O  O377  1  0.63346621  -0.00726314  0.51879934  1
  O  O378  1  0.62526246  0.49964897  0.01294168  1
  O  O379  1  0.62462130  0.50735170  0.51272051  1
  O  O380  1  0.36896553  0.35899766  0.13258260  1
  O  O381  1  0.37310845  0.36152561  0.62390371  1
  O  O382  1  0.37437062  0.85091597  0.11245337  1
  O  O383  1  0.35815158  0.87601428  0.63377606  1
  O  O384  1  0.86077887  0.37126822  0.11609669  1
  O  O385  1  0.87147519  0.35982259  0.61967882  1
  O  O386  1  0.86598925  0.86350348  0.11161005  1
  O  O387  1  0.88162619  0.85354189  0.62637305  1
  O  O388  1  0.16029114  0.11219348  0.40147818  1
  O  O389  1  0.12349124  0.13991877  0.85537969  1
  O  O390  1  0.12335826  0.61202257  0.39586952  1
  O  O391  1  0.13253827  0.62185296  0.85764044  1
  O  O392  1  0.62547350  0.13135216  0.36956275  1
  O  O393  1  0.61571694  0.13995996  0.87277020  1
  O  O394  1  0.64208162  0.63117777  0.38820905  1
  O  O395  1  0.58189772  0.62705849  0.90863624  1
