# generated using pymatgen
data_V35Zn35O128
_symmetry_space_group_name_H-M   'P 1'
_cell_length_a   16.88167298
_cell_length_b   16.94510162
_cell_length_c   16.94114167
_cell_angle_alpha   90.10165219
_cell_angle_beta   90.08856258
_cell_angle_gamma   90.21568536
_symmetry_Int_Tables_number   1
_chemical_formula_structural   V35Zn35O128
_chemical_formula_sum   'V70 Zn70 O256'
_cell_volume   4846.16337384
_cell_formula_units_Z   2
loop_
 _symmetry_equiv_pos_site_id
 _symmetry_equiv_pos_as_xyz
  1  'x, y, z'
loop_
 _atom_site_type_symbol
 _atom_site_label
 _atom_site_symmetry_multiplicity
 _atom_site_fract_x
 _atom_site_fract_y
 _atom_site_fract_z
 _atom_site_occupancy
  V  V0  1  0.48933029  0.00446831  0.02199630  1
  V  V1  1  0.85782366  0.88137927  0.50021957  1
  V  V2  1  0.37186472  0.61826895  0.73958295  1
  V  V3  1  0.02576116  0.38982514  0.37784366  1
  V  V4  1  0.11654058  0.50281970  0.13319778  1
  V  V5  1  0.38083106  0.74018586  0.11134002  1
  V  V6  1  0.62489498  -0.00072419  0.62565794  1
  V  V7  1  0.37992772  0.15208577  0.25674845  1
  V  V8  1  0.87706281  0.37626517  -0.00758764  1
  V  V9  1  0.38336879  0.38076457  0.50567059  1
  V  V10  1  0.62620324  0.37556027  0.75619756  1
  V  V11  1  0.00112341  0.63278074  0.59940807  1
  V  V12  1  0.12287307  0.62965646  0.00374266  1
  V  V13  1  0.73650566  0.63366525  0.37511772  1
  V  V14  1  0.88170863  0.63330514  0.75422024  1
  V  V15  1  0.49218055  0.87281787  0.36988205  1
  V  V16  1  -0.00321849  0.50175113  -0.02249914  1
  V  V17  1  0.74106200  0.23383223  0.50443985  1
  V  V18  1  0.75117746  0.00585748  0.74678751  1
  V  V19  1  0.37182297  0.75337537  0.62788093  1
  V  V20  1  0.37047894  0.49577349  0.88123381  1
  V  V21  1  0.86039722  0.86889713  0.01193618  1
  V  V22  1  0.74840090  0.13579274  0.88873463  1
  V  V23  1  0.74670059  0.62747541  0.88276266  1
  V  V24  1  0.60810382  0.51237636  0.61752550  1
  V  V25  1  0.24418540  0.63231951  0.36981750  1
  V  V26  1  0.75226170  0.50599670  0.75189200  1
  V  V27  1  0.25260955  0.38418611  0.64435784  1
  V  V28  1  0.88408366  0.24969182  0.63289612  1
  V  V29  1  0.39145166  0.51199685  0.38018934  1
  V  V30  1  0.50674763  0.25104826  0.75822460  1
  V  V31  1  0.01135616  0.36876094  0.84290549  1
  V  V32  1  0.37274825  0.12190215  0.75239627  1
  V  V33  1  0.88364463  0.63173068  0.23309159  1
  V  V34  1  0.25747874  0.49456366  0.25497694  1
  V  V35  1  0.11884997  0.74908212  0.86982681  1
  V  V36  1  0.74894841  0.37900318  0.62316583  1
  V  V37  1  0.15380554  -0.02145731  0.11901799  1
  V  V38  1  0.37952703  0.25841993  0.11260362  1
  V  V39  1  0.86084177  0.74515613  0.60756641  1
  V  V40  1  0.11658632  0.87008604  0.73372860  1
  V  V41  1  -0.00464280  0.89879916  0.37783452  1
  V  V42  1  0.11133567  0.75678700  0.36241488  1
  V  V43  1  0.23024222  0.13708595  0.37840317  1
  V  V44  1  0.50014304  0.74584347  0.74556704  1
  V  V45  1  0.62659027  0.45846964  0.12067983  1
  V  V46  1  0.38024644  -0.00750318  0.87985849  1
  V  V47  1  0.25402108  0.37670850  0.10721156  1
  V  V48  1  0.24948965  -0.01645130  0.74178670  1
  V  V49  1  0.55433638  0.05771467  0.44906806  1
  V  V50  1  0.50173875  0.37649810  0.88875005  1
  V  V51  1  0.37596654  0.24745272  0.62766128  1
  V  V52  1  0.36021769  0.01132495  0.36898593  1
  V  V53  1  0.23165731  0.25209960  0.50727793  1
  V  V54  1  0.50355857  0.36467883  0.36841297  1
  V  V55  1  0.64531549  -0.00821167  0.12510728  1
  V  V56  1  0.37016120  0.89627136  0.51118221  1
  V  V57  1  0.11660254  0.50548953  0.62650766  1
  V  V58  1  0.01941608  0.26654854  0.24886664  1
  V  V59  1  0.62782227  0.75027309  0.88918303  1
  V  V60  1  0.63024405  0.87145363  0.74718784  1
  V  V61  1  0.86995640  0.13093791  0.24493588  1
  V  V62  1  0.87504608  0.00206568  0.87138366  1
  V  V63  1  -0.00265049  0.87234527  0.88231728  1
  V  V64  1  0.87044062  0.26723723  0.12175761  1
  V  V65  1  0.24622733  0.75000267  0.50287799  1
  V  V66  1  0.24597252  0.62265031  0.86860708  1
  V  V67  1  0.23698848  0.13035952  0.87821655  1
  V  V68  1  0.50761927  0.12145488  0.63130146  1
  V  V69  1  0.86929533  0.38659357  0.48147084  1
  Zn  Zn70  1  0.50178184  0.87483916  0.88073046  1
  Zn  Zn71  1  0.60505112  0.88661967  0.25292564  1
  Zn  Zn72  1  0.10033279  0.12519797  0.02944838  1
  Zn  Zn73  1  0.61538977  0.23747981  0.39406280  1
  Zn  Zn74  1  0.50672325  0.51605668  0.00991429  1
  Zn  Zn75  1  0.05503415  0.07614018  0.53955758  1
  Zn  Zn76  1  0.19058959  0.19459288  0.19234721  1
  Zn  Zn77  1  0.18149942  0.17839981  0.69244856  1
  Zn  Zn78  1  0.18780312  0.68706392  0.19114642  1
  Zn  Zn79  1  0.18446893  0.68659674  0.68711914  1
  Zn  Zn80  1  0.75190832  0.13894493  0.10337954  1
  Zn  Zn81  1  0.69583286  0.18822186  0.69233484  1
  Zn  Zn82  1  0.74751809  0.50119489  0.24163634  1
  Zn  Zn83  1  0.68651319  0.68636222  0.68662573  1
  Zn  Zn84  1  0.30405826  0.32119130  0.32685649  1
  Zn  Zn85  1  0.31492959  0.30884160  0.82088521  1
  Zn  Zn86  1  0.34156658  0.80159837  0.31863843  1
  Zn  Zn87  1  0.28698128  0.82968951  0.85490167  1
  Zn  Zn88  1  0.81622273  0.27332958  0.32800486  1
  Zn  Zn89  1  0.82265025  0.31714125  0.81915788  1
  Zn  Zn90  1  0.84037983  0.79549563  0.32139354  1
  Zn  Zn91  1  0.81255148  0.80789560  0.80825807  1
  Zn  Zn92  1  0.19431434  0.44640904  0.45581841  1
  Zn  Zn93  1  0.18127627  0.43956797  0.93374395  1
  Zn  Zn94  1  0.18240347  0.93302857  0.43656042  1
  Zn  Zn95  1  0.18844703  0.94789277  0.94029223  1
  Zn  Zn96  1  0.68747187  0.44306629  0.43907165  1
  Zn  Zn97  1  0.68740270  0.44230097  0.94159232  1
  Zn  Zn98  1  0.67950094  0.80231282  0.43354461  1
  Zn  Zn99  1  0.68502423  0.94404019  0.94405230  1
  Zn  Zn100  1  0.27879078  0.09238260  0.08345503  1
  Zn  Zn101  1  0.21530343  0.05547974  0.56235155  1
  Zn  Zn102  1  0.30528031  0.55707469  0.05486968  1
  Zn  Zn103  1  0.29776783  0.56124132  0.55704911  1
  Zn  Zn104  1  0.89595469  0.09168951  0.02573509  1
  Zn  Zn105  1  0.86280732  0.08919885  0.53330433  1
  Zn  Zn106  1  0.80816371  0.55437001  0.06664241  1
  Zn  Zn107  1  0.80247898  0.56494506  0.55795298  1
  Zn  Zn108  1  0.44168902  0.43378164  0.18984199  1
  Zn  Zn109  1  0.43724735  0.43682977  0.69354205  1
  Zn  Zn110  1  0.35957684  0.94490112  0.17561229  1
  Zn  Zn111  1  0.43995201  0.93493006  0.69459807  1
  Zn  Zn112  1  0.93259772  0.43776575  0.19613751  1
  Zn  Zn113  1  0.92985371  0.44896607  0.67511145  1
  Zn  Zn114  1  0.94174103  0.93786106  0.19349558  1
  Zn  Zn115  1  0.93108532  0.92436187  0.68578011  1
  Zn  Zn116  1  0.04627656  0.07759903  0.30373870  1
  Zn  Zn117  1  0.06273183  0.05195386  0.80635959  1
  Zn  Zn118  1  0.06133012  0.56575865  0.31382737  1
  Zn  Zn119  1  0.06622993  0.55936083  0.80132238  1
  Zn  Zn120  1  0.58414229  0.09701587  0.26434492  1
  Zn  Zn121  1  0.56958873  0.06649194  0.82168672  1
  Zn  Zn122  1  0.59792472  0.53322797  0.32351006  1
  Zn  Zn123  1  0.56140695  0.56209271  0.81217724  1
  Zn  Zn124  1  0.42961356  0.19176945  0.44507629  1
  Zn  Zn125  1  0.43786297  0.18326127  0.94051821  1
  Zn  Zn126  1  0.44542339  0.69673735  0.44498558  1
  Zn  Zn127  1  0.44340939  0.67981757  0.92358684  1
  Zn  Zn128  1  0.94569903  0.20663569  0.43071648  1
  Zn  Zn129  1  0.99687180  0.21832167  0.94460995  1
  Zn  Zn130  1  0.92587678  0.67405389  0.42431824  1
  Zn  Zn131  1  0.93510266  0.69101823  0.94589510  1
  Zn  Zn132  1  0.06784312  0.32202253  0.06568142  1
  Zn  Zn133  1  0.06512581  0.31332059  0.66829978  1
  Zn  Zn134  1  0.05907642  0.81388417  0.06658748  1
  Zn  Zn135  1  0.05423193  0.81321091  0.55007361  1
  Zn  Zn136  1  0.58935015  0.26058780  0.12590712  1
  Zn  Zn137  1  0.56462959  0.31669421  0.56899615  1
  Zn  Zn138  1  0.56452159  0.82862334  0.06039698  1
  Zn  Zn139  1  0.54553504  0.82568001  0.56738294  1
  O  O140  1  0.16660782  0.11190958  0.12161422  1
  O  O141  1  0.13215305  0.11533346  0.61664699  1
  O  O142  1  0.13867978  0.61639789  0.11054125  1
  O  O143  1  0.10531383  0.62782866  0.62595186  1
  O  O144  1  0.59832669  0.10090172  0.14034172  1
  O  O145  1  0.61522186  0.11740417  0.63862921  1
  O  O146  1  0.59673411  0.62937301  0.14389343  1
  O  O147  1  0.62105533  0.61130103  0.63394698  1
  O  O148  1  0.38417563  0.38403343  0.38804055  1
  O  O149  1  0.38520785  0.38932859  0.86646444  1
  O  O150  1  0.37175656  0.90440541  0.38614142  1
  O  O151  1  0.38266835  0.88960333  0.85959340  1
  O  O152  1  0.84266765  0.37395522  0.38440249  1
  O  O153  1  0.90107231  0.37779251  0.88179790  1
  O  O154  1  0.88064335  0.87580776  0.39178864  1
  O  O155  1  0.88561860  0.87031300  0.87407820  1
  O  O156  1  0.25529616  0.01967688  0.38480872  1
  O  O157  1  0.26313022  0.00642067  0.86205528  1
  O  O158  1  0.25564409  0.51542034  0.37059262  1
  O  O159  1  0.26352480  0.50304270  0.87399827  1
  O  O160  1  0.76401907  -0.03444757  0.31176869  1
  O  O161  1  0.75582611  -0.00167423  0.86507980  1
  O  O162  1  0.71818382  0.51254901  0.35671031  1
  O  O163  1  0.73939506  0.51684872  0.86248274  1
  O  O164  1  0.25835530  0.49388777  0.13974737  1
  O  O165  1  0.27904141  0.48084550  0.63896606  1
  O  O166  1  0.26041503  0.98631161  0.12843613  1
  O  O167  1  0.26211395  0.99188801  0.64375839  1
  O  O168  1  0.73027514  0.49538353  0.12264031  1
  O  O169  1  0.73945494  0.49608956  0.63553602  1
  O  O170  1  0.74064909  1.01333779  0.11371564  1
  O  O171  1  0.73404997  1.00468978  0.64247698  1
  O  O172  1  0.00554619  0.38219352  0.26739665  1
  O  O173  1  0.00408358  0.39125730  0.74115928  1
  O  O174  1  -0.02107704  0.87313020  0.27951542  1
  O  O175  1  0.01270857  0.87455435  0.75261639  1
  O  O176  1  0.49368448  0.37032512  0.26976102  1
  O  O177  1  0.50823407  0.36678758  0.75571433  1
  O  O178  1  0.48575140  0.89576658  0.27185361  1
  O  O179  1  0.51015251  0.86357408  0.75471156  1
  O  O180  1  0.47896396  0.13977203  0.25789684  1
  O  O181  1  0.49766102  0.13364598  0.75076637  1
  O  O182  1  0.55572767  0.63113744  0.20361921  1
  O  O183  1  0.48520324  0.63628707  0.75968312  1
  O  O184  1  0.99264165  0.16162955  0.25029209  1
  O  O185  1  0.99552955  0.07983142  0.70910446  1
  O  O186  1  0.98330035  0.61678967  0.25466595  1
  O  O187  1  0.98238159  0.62117204  0.74861657  1
  O  O188  1  0.37389079  0.24534019  0.01425326  1
  O  O189  1  0.37342365  0.25931128  0.51658976  1
  O  O190  1  0.37288318  0.73576099  0.00680298  1
  O  O191  1  0.36986347  0.75238908  0.51574685  1
  O  O192  1  0.90159819  0.27234676  0.00608113  1
  O  O193  1  0.85333139  0.26611299  0.50868907  1
  O  O194  1  0.87880260  0.76885347  0.00275087  1
  O  O195  1  0.87412287  0.74650845  0.50522458  1
  O  O196  1  0.13716693  0.26056520  0.51741942  1
  O  O197  1  0.09873815  0.23807513  1.00052788  1
  O  O198  1  0.14360533  0.75828803  0.48548730  1
  O  O199  1  0.11987637  0.73320208  0.98816387  1
  O  O200  1  0.63393384  0.24469120  0.51559109  1
  O  O201  1  0.63464682  0.16104670  1.09274301  1
  O  O202  1  0.60073082  0.74108961  0.50528560  1
  O  O203  1  0.62072467  0.75711247  0.98693407  1
  O  O204  1  0.47735677  0.26096888  0.13288102  1
  O  O205  1  0.49590675  0.24308848  0.63750446  1
  O  O206  1  0.48491507  0.74347684  0.10661630  1
  O  O207  1  0.48567024  0.75310029  0.63582827  1
  O  O208  1  0.99664131  0.28154996  0.14569192  1
  O  O209  1  0.98236885  0.26488493  0.61039104  1
  O  O210  1  1.01476810  0.72836277  0.11853591  1
  O  O211  1  0.99092784  0.73533661  0.61429813  1
  O  O212  1  -0.00261759  0.27644394  0.35971015  1
  O  O213  1  0.00290870  0.26863340  0.84501986  1
  O  O214  1  0.01371513  0.73959627  0.37761356  1
  O  O215  1  0.00702790  0.75913845  0.87469684  1
  O  O216  1  0.50060809  0.25963686  0.38535291  1
  O  O217  1  0.48901952  0.26268325  0.86703083  1
  O  O218  1  0.44974378  0.77593190  0.36253892  1
  O  O219  1  0.51265674  0.75133885  0.86506579  1
  O  O220  1  0.24987748  0.14309331  0.49230660  1
  O  O221  1  0.25503408  0.11716906  0.97604599  1
  O  O222  1  0.26177223  0.64334575  0.48365232  1
  O  O223  1  0.23061441  0.61117886  0.98346988  1
  O  O224  1  0.75637066  0.13618806  0.51084421  1
  O  O225  1  0.77915286  0.12418471  0.98760878  1
  O  O226  1  0.74879004  0.61926263  0.47544095  1
  O  O227  1  0.75978946  0.61817511  0.97970686  1
  O  O228  1  0.25283825  0.38686854  0.00839021  1
  O  O229  1  0.26390650  0.36608997  0.51332620  1
  O  O230  1  0.25051164  0.85875006  -0.04119594  1
  O  O231  1  0.26624339  0.86015452  0.48848733  1
  O  O232  1  0.77818921  0.38166901  -0.02505529  1
  O  O233  1  0.74511294  0.37494280  0.51467736  1
  O  O234  1  0.75979533  0.87677249  0.00064608  1
  O  O235  1  0.75847833  0.86205476  0.49274494  1
  O  O236  1  0.14149653  0.51697385  0.23681824  1
  O  O237  1  0.13978417  0.51852675  0.72500184  1
  O  O238  1  0.10181008  1.00150250  0.22246438  1
  O  O239  1  0.13889213  0.98089371  0.75034705  1
  O  O240  1  0.62687228  0.47790660  0.22723750  1
  O  O241  1  0.62994547  0.49292525  0.74550787  1
  O  O242  1  0.62370115  0.99822371  0.23256570  1
  O  O243  1  0.63134242  0.99074238  0.74926400  1
  O  O244  1  0.36804252  0.02146027  0.26823947  1
  O  O245  1  0.36923878  0.00551777  0.75454813  1
  O  O246  1  0.36709508  0.49729005  0.26819155  1
  O  O247  1  0.38480355  0.51508050  0.76143094  1
  O  O248  1  0.89782584  0.03400408  0.24125964  1
  O  O249  1  0.85516910  -0.01862688  0.75393442  1
  O  O250  1  0.86129608  0.50904816  0.24187011  1
  O  O251  1  0.86165138  0.51768985  0.74087156  1
  O  O252  1  0.12574114  0.38252993  0.39288929  1
  O  O253  1  0.10910253  0.38763409  0.86688150  1
  O  O254  1  0.10874333  0.86564415  0.37659066  1
  O  O255  1  0.11114682  0.86774345  0.86869144  1
  O  O256  1  0.60399211  0.37679461  0.38649338  1
  O  O257  1  0.61272524  0.38279593  0.86733469  1
  O  O258  1  0.59714221  0.86174447  0.37518960  1
  O  O259  1  0.62659797  0.86229386  0.86753286  1
  O  O260  1  0.35666283  0.15172581  0.14768144  1
  O  O261  1  0.38915040  0.13378087  0.63931105  1
  O  O262  1  0.37949121  0.63428171  0.11210616  1
  O  O263  1  0.36731092  0.62962294  0.63541979  1
  O  O264  1  0.88659533  0.15430194  0.12393903  1
  O  O265  1  0.86596724  0.15009867  0.63073870  1
  O  O266  1  0.87316916  0.61787706  0.13173072  1
  O  O267  1  0.88385353  0.62921524  0.62557040  1
  O  O268  1  0.25304873  0.27463972  0.12886054  1
  O  O269  1  0.26102755  0.25556132  0.62106835  1
  O  O270  1  0.27567869  0.73440680  0.12406441  1
  O  O271  1  0.25305560  0.74402747  0.61000556  1
  O  O272  1  0.77253696  0.26049919  0.10521956  1
  O  O273  1  0.75037272  0.26353275  0.62335212  1
  O  O274  1  0.69087763  0.73922102  0.20148627  1
  O  O275  1  0.76093773  0.73655889  0.61614659  1
  O  O276  1  0.24649690  0.24854142  0.39600669  1
  O  O277  1  0.25292186  0.22965017  0.86652650  1
  O  O278  1  0.25771120  0.74219784  0.37679147  1
  O  O279  1  0.23592837  0.72938244  0.86960892  1
  O  O280  1  0.73106065  0.25108619  0.40053112  1
  O  O281  1  0.76077768  0.23306480  0.86727283  1
  O  O282  1  0.74871113  0.74273773  0.36767099  1
  O  O283  1  0.73690498  0.74085588  0.86932160  1
  O  O284  1  -0.00348652  0.11261829  -0.01867500  1
  O  O285  1  -0.03439330  0.11669582  0.49095411  1
  O  O286  1  0.01108185  0.61334023  -0.01049517  1
  O  O287  1  -0.00391692  0.62240958  0.50149113  1
  O  O288  1  0.49120292  0.10471930  0.00045846  1
  O  O289  1  0.49974931  0.12191621  0.51157070  1
  O  O290  1  0.50180609  0.62806122  0.00060055  1
  O  O291  1  0.55526706  0.67751923  0.48435768  1
  O  O292  1  0.48712818  0.37286466  0.50203555  1
  O  O293  1  0.50035622  0.36922849  0.98424227  1
  O  O294  1  0.47564784  0.87549922  0.49040825  1
  O  O295  1  0.49812485  0.89356774  0.99420886  1
  O  O296  1  0.97349977  0.37275303  0.47476970  1
  O  O297  1  1.00391078  0.39601468  0.99400464  1
  O  O298  1  0.98558978  0.87494639  0.48710081  1
  O  O299  1  0.99976559  0.87697127  0.98337108  1
  O  O300  1  0.49296534  0.49456850  0.37312749  1
  O  O301  1  0.49322877  0.49106207  0.87890470  1
  O  O302  1  0.48617076  1.00115494  0.39408448  1
  O  O303  1  0.48823169  1.00197320  0.87156066  1
  O  O304  1  1.01160544  0.49016878  0.38044852  1
  O  O305  1  1.00022979  0.49819985  0.87562246  1
  O  O306  1  1.00646209  0.99756401  0.37530931  1
  O  O307  1  0.98528289  0.98234078  0.85796392  1
  O  O308  1  0.04477606  0.00092462  0.15848512  1
  O  O309  1  -0.00717136  0.02521081  0.65318946  1
  O  O310  1  0.01786733  0.49807098  0.13108004  1
  O  O311  1  0.01102723  0.51088100  0.61713806  1
  O  O312  1  0.45785910  -0.00880496  0.11646253  1
  O  O313  1  0.50863894  0.01162263  0.63755365  1
  O  O314  1  0.51608458  0.47995636  0.12021682  1
  O  O315  1  0.50824229  0.49708258  0.63070023  1
  O  O316  1  0.24531410  0.39457929  0.25936338  1
  O  O317  1  0.25510352  0.36635790  0.74163612  1
  O  O318  1  0.30153032  0.86488859  0.23747639  1
  O  O319  1  0.24285017  0.87877359  0.75616777  1
  O  O320  1  0.69957757  0.28653030  0.24676335  1
  O  O321  1  0.74389079  0.38569542  0.74949712  1
  O  O322  1  0.75335327  0.90071104  0.27851829  1
  O  O323  1  0.73565164  0.87835685  0.75176999  1
  O  O324  1  0.25829828  0.14351243  0.27663998  1
  O  O325  1  0.25861737  0.11142947  0.75367384  1
  O  O326  1  0.25635405  0.62050787  0.26506814  1
  O  O327  1  0.26314594  0.62678417  0.75347977  1
  O  O328  1  0.77006904  0.13224217  0.22381569  1
  O  O329  1  0.74640698  0.10918050  0.76220456  1
  O  O330  1  0.76289878  0.62238686  0.25813580  1
  O  O331  1  0.75689297  0.62100439  0.75551280  1
  O  O332  1  0.36941674  0.12404279  0.37528304  1
  O  O333  1  0.37312967  0.11764119  0.86216165  1
  O  O334  1  0.38294240  0.61441135  0.38489429  1
  O  O335  1  0.36453282  0.61717809  0.86594068  1
  O  O336  1  0.86647775  0.16321892  0.34603786  1
  O  O337  1  0.86911684  0.10120980  0.86408467  1
  O  O338  1  0.85491761  0.62464556  0.35432180  1
  O  O339  1  0.86297111  0.64048550  0.86084682  1
  O  O340  1  0.14235134  0.39756780  0.12118575  1
  O  O341  1  0.14249162  0.39621282  0.62464877  1
  O  O342  1  0.13934408  0.87889433  0.11364897  1
  O  O343  1  0.11846250  0.86112510  0.63528777  1
  O  O344  1  0.63432456  0.35944753  0.10737502  1
  O  O345  1  0.63070809  0.38402468  0.63970414  1
  O  O346  1  0.62735772  0.88508900  0.13528550  1
  O  O347  1  0.61476656  0.88860885  0.63342564  1
  O  O348  1  0.11948357  0.26208369  0.24862100  1
  O  O349  1  0.12899692  0.25967808  0.74029259  1
  O  O350  1  0.13117396  0.75105462  0.26398588  1
  O  O351  1  0.13111661  0.76125687  0.75855068  1
  O  O352  1  0.63253623  0.25197275  0.25707885  1
  O  O353  1  0.61693309  0.26073251  0.74827749  1
  O  O354  1  0.63621285  0.76297987  0.24422652  1
  O  O355  1  0.61679354  0.75596212  0.74781906  1
  O  O356  1  0.36968062  0.25328685  0.26117481  1
  O  O357  1  0.38426180  0.24267775  0.74528495  1
  O  O358  1  0.39120307  0.74018626  0.21576317  1
  O  O359  1  0.37981800  0.73948118  0.74118555  1
  O  O360  1  0.87423322  0.26799650  0.22897014  1
  O  O361  1  0.87486057  0.26952798  0.73139299  1
  O  O362  1  0.87351225  0.73555757  0.23657470  1
  O  O363  1  0.86862696  0.73695965  0.73200565  1
  O  O364  1  0.36773242  0.49397219  0.48731692  1
  O  O365  1  0.38107185  0.50663197  0.98372637  1
  O  O366  1  0.36143066  0.99434561  0.50632295  1
  O  O367  1  0.37724498  0.99936990  0.98075738  1
  O  O368  1  0.86253696  0.48545087  0.50096115  1
  O  O369  1  0.89367067  0.49676783  1.00153901  1
  O  O370  1  0.86056744  0.97817361  0.52047071  1
  O  O371  1  0.87412024  0.98438904  0.97492954  1
  O  O372  1  0.13120579  0.00471673  0.01823354  1
  O  O373  1  0.13152742  -0.00501973  0.51238801  1
  O  O374  1  0.11265117  0.50983497  0.00751330  1
  O  O375  1  0.17184725  0.52270103  0.53754105  1
  O  O376  1  0.60678404  -0.00395196  0.02130327  1
  O  O377  1  0.61516311  0.00428125  0.51073809  1
  O  O378  1  0.62273933  0.49544995  0.01586435  1
  O  O379  1  0.62305467  0.49677095  0.51966177  1
  O  O380  1  0.36274042  0.37089787  0.12922087  1
  O  O381  1  0.37351130  0.36379693  0.62711042  1
  O  O382  1  0.37240967  0.84308794  0.10586926  1
  O  O383  1  0.37690430  0.86995253  0.61802153  1
  O  O384  1  0.88076873  0.37964128  0.10520181  1
  O  O385  1  0.86051276  0.37771702  0.61551955  1
  O  O386  1  0.88672170  0.89373798  0.10650262  1
  O  O387  1  0.87949022  0.85267709  0.61345253  1
  O  O388  1  0.13230653  0.12567380  0.37120977  1
  O  O389  1  0.13581144  0.11360422  0.86558927  1
  O  O390  1  0.14001428  0.63753766  0.37405469  1
  O  O391  1  0.12694244  0.62829382  0.87477577  1
  O  O392  1  0.60448372  0.11656835  0.37973372  1
  O  O393  1  0.64717302  0.11899230  0.88660309  1
  O  O394  1  0.63267075  0.63766297  0.35591844  1
  O  O395  1  0.63390522  0.63809671  0.87043057  1
