# generated using pymatgen
data_V35Zn35O128
_symmetry_space_group_name_H-M   'P 1'
_cell_length_a   16.85507681
_cell_length_b   16.88955904
_cell_length_c   16.85531913
_cell_angle_alpha   90.15430944
_cell_angle_beta   89.93734293
_cell_angle_gamma   89.90733859
_symmetry_Int_Tables_number   1
_chemical_formula_structural   V35Zn35O128
_chemical_formula_sum   'V70 Zn70 O256'
_cell_volume   4798.25828257
_cell_formula_units_Z   2
loop_
 _symmetry_equiv_pos_site_id
 _symmetry_equiv_pos_as_xyz
  1  'x, y, z'
loop_
 _atom_site_type_symbol
 _atom_site_label
 _atom_site_symmetry_multiplicity
 _atom_site_fract_x
 _atom_site_fract_y
 _atom_site_fract_z
 _atom_site_occupancy
  V  V0  1  0.64257052  0.74571234  0.38378553  1
  V  V1  1  0.00417935  0.62888049  0.64943390  1
  V  V2  1  0.63165665  0.74458823  0.87306456  1
  V  V3  1  0.24527682  -0.00063391  0.75255369  1
  V  V4  1  0.74265441  0.88267655  0.15023037  1
  V  V5  1  0.24342041  0.74584742  0.00377172  1
  V  V6  1  0.35040119  0.25348686  0.12858860  1
  V  V7  1  0.13776092  0.38368357  0.75140919  1
  V  V8  1  0.13343209  0.49755951  0.62184331  1
  V  V9  1  0.38664766  0.23330430  0.63415149  1
  V  V10  1  0.50600515  0.75667860  0.26011994  1
  V  V11  1  0.11993091  0.75249998  0.37907541  1
  V  V12  1  0.89487178  0.63007108  0.24455353  1
  V  V13  1  0.14001444  0.00285492  0.12435563  1
  V  V14  1  0.25462776  0.61734395  0.86275043  1
  V  V15  1  0.85923188  0.50238139  0.86753760  1
  V  V16  1  0.12253539  0.02056878  0.62934083  1
  V  V17  1  0.38521682  0.88944850  0.48780620  1
  V  V18  1  0.63866884  0.49271865  0.11836994  1
  V  V19  1  0.86013597  -0.01894892  0.36941542  1
  V  V20  1  0.50430716  0.14933002  0.13072781  1
  V  V21  1  -0.00539431  0.25079440  0.74825476  1
  V  V22  1  0.01587697  0.24347016  0.27875797  1
  V  V23  1  0.87079620  0.24059416  0.14151135  1
  V  V24  1  0.13312366  0.25230763  0.87533693  1
  V  V25  1  0.37182458  0.87371900  0.00668284  1
  V  V26  1  0.75611677  0.25869614  0.51199536  1
  V  V27  1  0.37826735  0.75509146  0.12792815  1
  V  V28  1  -0.00114892  0.38121404  0.87623668  1
  V  V29  1  0.62428350  0.37632849  0.25569940  1
  V  V30  1  0.89669653  0.49433314  0.38676891  1
  V  V31  1  -0.00523158  -0.00835983  0.00289409  1
  V  V32  1  0.86374931  0.37627510  0.00869401  1
  V  V33  1  0.00482564  0.51073921  0.01198560  1
  V  V34  1  0.37720536  0.00471689  0.87229949  1
  V  V35  1  0.25229478  0.12677733  0.87650240  1
  V  V36  1  0.11202142  0.62225572  0.49602709  1
  V  V37  1  0.63141820  0.12529403  -0.00764066  1
  V  V38  1  0.75661668  0.75964747  0.00355558  1
  V  V39  1  0.23720379  0.25209411  0.48915576  1
  V  V40  1  0.84902983  0.62312227  0.74861746  1
  V  V41  1  0.75458327  0.50871035  0.26254147  1
  V  V42  1  0.11900805  0.13125452  0.00140827  1
  V  V43  1  0.13134410  0.85436678  0.22829272  1
  V  V44  1  0.37372640  0.60587205  0.25182745  1
  V  V45  1  -0.00560065  -0.01055082  0.49585220  1
  V  V46  1  0.63084490  0.62315267  -0.00588750  1
  V  V47  1  0.62584846  0.60803856  0.49784637  1
  V  V48  1  0.61669521  0.13363137  0.52910645  1
  V  V49  1  0.50384374  0.87660098  0.87653742  1
  V  V50  1  0.49262190  0.74948223  0.74899295  1
  V  V51  1  0.62620897  0.23914844  0.37173476  1
  V  V52  1  0.49019746  0.38907275  0.38230934  1
  V  V53  1  0.50715686  -0.00214629  0.02049366  1
  V  V54  1  0.25837358  0.61619216  0.38300311  1
  V  V55  1  0.37700159  0.75166756  0.61397524  1
  V  V56  1  0.12533477  0.38663025  0.23529989  1
  V  V57  1  0.12439664  0.75318222  0.85409421  1
  V  V58  1  0.37472002  0.11658191  0.26295799  1
  V  V59  1  0.36955356  0.37171724  -0.00185638  1
  V  V60  1  0.74786865  0.00223988  0.74508544  1
  V  V61  1  0.60923634  0.26611343  0.86301705  1
  V  V62  1  0.49740534  0.61525219  0.62201186  1
  V  V63  1  0.24164553  0.87136946  0.62370081  1
  V  V64  1  -0.01945057  0.12865242  0.61943823  1
  V  V65  1  0.86309398  0.75835727  0.61734673  1
  V  V66  1  0.50240540  0.61542752  0.11884947  1
  V  V67  1  0.39346806  0.49680894  0.87309722  1
  V  V68  1  0.86945027  0.12416869  0.76725852  1
  V  V69  1  0.63067626  0.87670275  0.73222582  1
  Zn  Zn70  1  0.89289993  0.75053409  0.12341840  1
  Zn  Zn71  1  0.87194325  -0.01707195  0.88457681  1
  Zn  Zn72  1  0.88294175  0.10159980  0.24788801  1
  Zn  Zn73  1  0.74575949  0.25166055  -0.00424800  1
  Zn  Zn74  1  0.00769901  0.87266307  0.86230457  1
  Zn  Zn75  1  0.36969906  0.37363225  0.51634660  1
  Zn  Zn76  1  0.18421318  0.17013109  0.20346662  1
  Zn  Zn77  1  0.19956472  0.19511171  0.69084830  1
  Zn  Zn78  1  0.19706570  0.68622601  0.19360539  1
  Zn  Zn79  1  0.19571761  0.68325859  0.68454013  1
  Zn  Zn80  1  0.68321387  0.20427477  0.17057736  1
  Zn  Zn81  1  0.69318166  0.19936648  0.69487652  1
  Zn  Zn82  1  0.68838826  0.68891390  0.18891957  1
  Zn  Zn83  1  0.68030030  0.68933030  0.67525356  1
  Zn  Zn84  1  0.30989637  0.30523688  0.31065009  1
  Zn  Zn85  1  0.32891407  0.31772625  0.80626010  1
  Zn  Zn86  1  0.30345882  0.80664461  0.31374225  1
  Zn  Zn87  1  0.30827260  0.81529921  0.81415394  1
  Zn  Zn88  1  0.80423056  0.32130902  0.32006796  1
  Zn  Zn89  1  0.81603239  0.29649641  0.83632123  1
  Zn  Zn90  1  0.81239842  0.80706593  0.31800128  1
  Zn  Zn91  1  0.81359334  0.80935430  0.80565960  1
  Zn  Zn92  1  0.19214377  0.42954719  0.42807466  1
  Zn  Zn93  1  0.19217291  0.43987405  0.95022539  1
  Zn  Zn94  1  0.18062638  0.93399961  0.45501883  1
  Zn  Zn95  1  0.18580689  0.93543248  0.94035139  1
  Zn  Zn96  1  0.69240926  0.43860905  0.44215141  1
  Zn  Zn97  1  0.67886258  0.43511744  0.93003278  1
  Zn  Zn98  1  0.64742974  0.95627830  0.36727778  1
  Zn  Zn99  1  0.69040885  0.93939751  0.93369065  1
  Zn  Zn100  1  0.31873176  0.07101260  0.05887145  1
  Zn  Zn101  1  0.31693934  0.06723310  0.55151136  1
  Zn  Zn102  1  0.31985992  0.56777013  0.05051533  1
  Zn  Zn103  1  0.30590702  0.56716393  0.56302476  1
  Zn  Zn104  1  0.81045217  0.05442589  0.07054731  1
  Zn  Zn105  1  0.78550113  0.04008408  0.53769941  1
  Zn  Zn106  1  0.81870472  0.56860763  0.06198040  1
  Zn  Zn107  1  0.83463863  0.60546535  0.53378269  1
  Zn  Zn108  1  0.44167214  0.42366910  0.17660573  1
  Zn  Zn109  1  0.38638283  0.45570032  0.66629819  1
  Zn  Zn110  1  0.49140154  0.96749764  0.24805817  1
  Zn  Zn111  1  0.43213389  0.93244273  0.69052615  1
  Zn  Zn112  1  0.94163575  0.42957296  0.19607866  1
  Zn  Zn113  1  0.94971919  0.44871592  0.69043608  1
  Zn  Zn114  1  0.94649217  0.90299025  0.18569088  1
  Zn  Zn115  1  0.93297439  0.93610217  0.69023993  1
  Zn  Zn116  1  0.02857337  0.02746384  0.28383267  1
  Zn  Zn117  1  0.05964758  0.06049130  0.81355413  1
  Zn  Zn118  1  0.06449883  0.55663843  0.31010910  1
  Zn  Zn119  1  0.07065733  0.56380564  0.82981611  1
  Zn  Zn120  1  0.47383595  0.04018962  0.42093537  1
  Zn  Zn121  1  0.56667514  0.06070416  0.81507607  1
  Zn  Zn122  1  0.56174141  0.56439132  0.31011686  1
  Zn  Zn123  1  0.56257799  0.55970551  0.80233396  1
  Zn  Zn124  1  0.44350161  0.20776997  0.43932954  1
  Zn  Zn125  1  0.43757280  0.19069850  0.94454343  1
  Zn  Zn126  1  0.44067395  0.68211920  0.43895656  1
  Zn  Zn127  1  0.43747313  0.68450014  0.93486980  1
  Zn  Zn128  1  0.92284637  0.17049770  0.42849203  1
  Zn  Zn129  1  0.94307875  0.19108424  0.94333147  1
  Zn  Zn130  1  0.93294841  0.68759064  0.42333656  1
  Zn  Zn131  1  0.93906122  0.68665049  0.92939700  1
  Zn  Zn132  1  0.05397731  0.31304678  0.06700693  1
  Zn  Zn133  1  0.06823925  0.30820707  0.56646654  1
  Zn  Zn134  1  0.05925828  0.81722559  0.05839502  1
  Zn  Zn135  1  0.05640283  0.80381171  0.56449495  1
  Zn  Zn136  1  0.55798632  0.31949897  0.04737614  1
  Zn  Zn137  1  0.55459107  0.31636339  0.56270512  1
  Zn  Zn138  1  0.56657295  0.80911449  0.06971437  1
  Zn  Zn139  1  0.56211864  0.81120702  0.54910305  1
  O  O140  1  0.12980125  0.12623373  0.10315841  1
  O  O141  1  0.11531685  0.12077507  0.63532102  1
  O  O142  1  0.16239867  0.59002853  0.12187321  1
  O  O143  1  0.11812367  0.62499293  0.61795687  1
  O  O144  1  0.61206629  0.13502474  0.11039269  1
  O  O145  1  0.61644856  0.13927541  0.62839427  1
  O  O146  1  0.61657264  0.61774336  0.11816162  1
  O  O147  1  0.60531084  0.62871555  0.61506710  1
  O  O148  1  0.39191164  0.36842294  0.36417518  1
  O  O149  1  0.37827413  0.38008432  0.88748224  1
  O  O150  1  0.36109350  0.86705339  0.39192634  1
  O  O151  1  0.38619383  0.88162630  0.88412430  1
  O  O152  1  0.87166051  0.39640613  0.37015862  1
  O  O153  1  0.88013038  0.38781402  0.87313073  1
  O  O154  1  0.88080155  0.88042658  0.37348857  1
  O  O155  1  0.89254502  0.87368679  0.84888832  1
  O  O156  1  0.22633630  0.02100916  0.38104992  1
  O  O157  1  0.25620295  0.00315460  0.87156892  1
  O  O158  1  0.24480315  0.51748376  0.37345749  1
  O  O159  1  0.24315198  0.51700561  0.87752270  1
  O  O160  1  0.76008339  -0.01738580  0.36401340  1
  O  O161  1  0.75809125  -0.00980536  0.85720172  1
  O  O162  1  0.75019524  0.50540648  0.36370741  1
  O  O163  1  0.76013959  0.49576740  0.87176782  1
  O  O164  1  0.21589301  0.53653050  0.11418713  1
  O  O165  1  0.22909033  0.52011825  0.64262945  1
  O  O166  1  0.23953454  1.00671241  0.10918445  1
  O  O167  1  0.23612096  0.99773512  0.63253640  1
  O  O168  1  0.74047952  0.50288070  0.12694681  1
  O  O169  1  0.75139345  0.47913733  0.61880016  1
  O  O170  1  0.75397553  0.98388098  0.13562564  1
  O  O171  1  0.76233049  0.99815000  0.64467280  1
  O  O172  1  0.01136659  0.35081200  0.24440593  1
  O  O173  1  0.00235439  0.36816845  0.75779535  1
  O  O174  1  0.05458012  0.90618128  0.26857328  1
  O  O175  1  0.00822850  0.87985002  0.74912341  1
  O  O176  1  0.51902800  0.38226204  0.25115453  1
  O  O177  1  0.58164656  0.41928834  0.70738444  1
  O  O178  1  0.50602711  0.85393300  0.23917268  1
  O  O179  1  0.51116268  0.87269050  0.75793398  1
  O  O180  1  0.49728447  0.12946100  0.22840940  1
  O  O181  1  0.49852249  0.08679440  0.71830046  1
  O  O182  1  0.48887272  0.63059516  0.23954103  1
  O  O183  1  0.50881019  0.64385710  0.74034348  1
  O  O184  1  0.99546344  0.14311087  0.25236738  1
  O  O185  1  0.98896759  0.13194908  0.74753532  1
  O  O186  1  0.99480274  0.62037653  0.24257118  1
  O  O187  1  1.00727759  0.62712331  0.74930548  1
  O  O188  1  0.37437788  0.25875445  0.01265177  1
  O  O189  1  0.37134679  0.25585346  0.51236668  1
  O  O190  1  0.37486904  0.75639737  0.00621736  1
  O  O191  1  0.37960142  0.75964474  0.51144233  1
  O  O192  1  0.86877325  0.26971862  -0.01825469  1
  O  O193  1  0.85277158  0.23636028  0.49022663  1
  O  O194  1  0.85814745  0.73840092  -0.00451063  1
  O  O195  1  0.87472532  0.71878132  0.51752374  1
  O  O196  1  0.13445773  0.25991619  0.49369480  1
  O  O197  1  0.11286717  0.24057289  0.98681516  1
  O  O198  1  0.12345471  0.73059374  0.49514607  1
  O  O199  1  0.14299382  0.75438294  1.00936510  1
  O  O200  1  0.62791779  0.24507699  0.49624273  1
  O  O201  1  0.62171981  0.23794458  0.99372092  1
  O  O202  1  0.61601988  0.73306387  0.48942749  1
  O  O203  1  0.63050964  0.74308025  0.98990064  1
  O  O204  1  0.49925941  0.24972972  0.12406514  1
  O  O205  1  0.48764489  0.25130370  0.62691464  1
  O  O206  1  0.49654156  0.73704859  0.13283293  1
  O  O207  1  0.48928294  0.75110341  0.63043528  1
  O  O208  1  0.96801086  0.24650247  0.10864082  1
  O  O209  1  1.00527715  0.23734228  0.63698554  1
  O  O210  1  0.99450201  0.80090101  0.14672382  1
  O  O211  1  0.99030433  0.73130648  0.62509595  1
  O  O212  1  -0.00403296  0.24493001  0.37707050  1
  O  O213  1  0.00900900  0.25956828  0.86610128  1
  O  O214  1  0.01912978  0.74240020  0.37544048  1
  O  O215  1  0.02241322  0.74593461  0.87906229  1
  O  O216  1  0.52156139  0.27073430  0.37584097  1
  O  O217  1  0.50982646  0.23737995  0.87358107  1
  O  O218  1  0.49110626  0.74783115  0.36053398  1
  O  O219  1  0.50485363  0.75831584  0.86882817  1
  O  O220  1  0.24020954  0.13731513  0.50749714  1
  O  O221  1  0.23600392  0.12053564  0.98381651  1
  O  O222  1  0.24671195  0.62714178  0.48829204  1
  O  O223  1  0.25772947  0.64312958  0.98784406  1
  O  O224  1  0.72346744  0.13111876  0.50455864  1
  O  O225  1  0.73225104  0.11686585  1.00571371  1
  O  O226  1  0.72466165  0.61675142  0.51363971  1
  O  O227  1  0.73588945  0.63352753  1.00204477  1
  O  O228  1  0.26380620  0.37284451  0.00119444  1
  O  O229  1  0.25448899  0.36173160  0.49337069  1
  O  O230  1  0.26498527  0.86275582  -0.00736252  1
  O  O231  1  0.26440346  0.88764054  0.51989299  1
  O  O232  1  0.76244084  0.38326831  -0.00484385  1
  O  O233  1  0.74460506  0.36081620  0.50221603  1
  O  O234  1  0.74942573  0.86086295  -0.00534002  1
  O  O235  1  0.67546508  0.97700040  0.49482185  1
  O  O236  1  0.11017044  0.48649972  0.23389233  1
  O  O237  1  0.11870512  0.48689374  0.75150656  1
  O  O238  1  0.12867974  1.03591784  0.22056865  1
  O  O239  1  0.12991921  0.99936339  0.73944692  1
  O  O240  1  0.63427387  0.50031117  0.23743064  1
  O  O241  1  0.62644102  0.47690408  0.74344562  1
  O  O242  1  0.67452624  1.05236521  0.24491107  1
  O  O243  1  0.63646377  0.98873225  0.75247460  1
  O  O244  1  0.38887826  0.01797630  0.24234220  1
  O  O245  1  0.36623224  -0.00487728  0.76624762  1
  O  O246  1  0.38156423  0.50884392  0.23830337  1
  O  O247  1  0.37228672  0.48470317  0.77440496  1
  O  O248  1  0.91166124  -0.01386891  0.26312233  1
  O  O249  1  0.87111167  0.01512263  0.75414270  1
  O  O250  1  0.86633095  0.50490434  0.24989026  1
  O  O251  1  0.87514773  0.50610685  0.75888374  1
  O  O252  1  0.13152298  0.37506202  0.35013632  1
  O  O253  1  0.11796093  0.37123525  0.86788063  1
  O  O254  1  0.13461981  0.85030876  0.39541881  1
  O  O255  1  0.13225126  0.85753449  0.87624210  1
  O  O256  1  0.61945269  0.38402138  0.36188317  1
  O  O257  1  0.60435750  0.36672779  0.88497186  1
  O  O258  1  0.62796481  0.84467976  0.38312569  1
  O  O259  1  0.61474693  0.86645036  0.87208447  1
  O  O260  1  0.38800854  0.13904151  0.11978060  1
  O  O261  1  0.37771306  0.13128140  0.61956944  1
  O  O262  1  0.38585691  0.62844200  0.12935013  1
  O  O263  1  0.37995851  0.64554850  0.62293058  1
  O  O264  1  0.85784065  0.13424641  0.14135379  1
  O  O265  1  0.88244604  0.12573716  0.63907416  1
  O  O266  1  0.87424910  0.63329699  0.13679623  1
  O  O267  1  0.88937054  0.61264124  0.64290819  1
  O  O268  1  0.25333018  0.23526184  0.12600388  1
  O  O269  1  0.25868137  0.23740585  0.60628864  1
  O  O270  1  0.26444463  0.74174923  0.11394402  1
  O  O271  1  0.26549220  0.76348556  0.63288252  1
  O  O272  1  0.76599051  0.25482617  0.11156042  1
  O  O273  1  0.75119307  0.25236327  0.61445650  1
  O  O274  1  0.74365604  0.75235161  0.10892347  1
  O  O275  1  0.76209209  0.74895119  0.62373865  1
  O  O276  1  0.26124772  0.23915150  0.39054270  1
  O  O277  1  0.23931473  0.24254882  0.86547781  1
  O  O278  1  0.23293458  0.72614731  0.36421539  1
  O  O279  1  0.24615090  0.74546457  0.88286057  1
  O  O280  1  0.73233991  0.25741486  0.38402350  1
  O  O281  1  0.72504934  0.25619373  0.88150783  1
  O  O282  1  0.74207453  0.73536834  0.37779790  1
  O  O283  1  0.73728503  0.75283776  0.87925359  1
  O  O284  1  0.01390573  0.11515103  -0.00792165  1
  O  O285  1  -0.01224019  0.11726437  0.51690629  1
  O  O286  1  -0.00976247  0.61009286  -0.00265245  1
  O  O287  1  0.01276547  0.61798562  0.50264539  1
  O  O288  1  0.50399434  0.11013819  0.01095360  1
  O  O289  1  0.51620177  0.12640171  0.49110908  1
  O  O290  1  0.50952157  0.63107083  0.01275538  1
  O  O291  1  0.49657451  0.61849359  0.51566737  1
  O  O292  1  0.49402150  0.38026154  0.48758298  1
  O  O293  1  0.47267775  0.38527256  1.01989438  1
  O  O294  1  0.48569490  0.87766166  0.49739736  1
  O  O295  1  0.49801982  0.88314634  0.99618523  1
  O  O296  1  0.96488312  0.37161557  0.53536898  1
  O  O297  1  0.98706967  0.38016529  0.98837447  1
  O  O298  1  1.00201961  0.89073094  0.51278972  1
  O  O299  1  1.00572541  0.88862977  0.98594724  1
  O  O300  1  0.49794349  0.48930777  0.36777231  1
  O  O301  1  0.49312637  0.50596404  0.87630030  1
  O  O302  1  0.54402609  0.99413960  0.34486165  1
  O  O303  1  0.49425836  0.99185238  0.87856854  1
  O  O304  1  0.99789112  0.49418963  0.37949073  1
  O  O305  1  0.99076170  0.49279797  0.87885842  1
  O  O306  1  1.01936571  1.00593668  0.40001036  1
  O  O307  1  0.99955760  0.99882090  0.88613093  1
  O  O308  1  0.01549846  -0.00781029  0.10734673  1
  O  O309  1  0.00457095  0.01383245  0.62615565  1
  O  O310  1  -0.01193666  0.49197117  0.10956578  1
  O  O311  1  0.01890872  0.51873360  0.63157488  1
  O  O312  1  0.50526368  -0.00304269  0.11927795  1
  O  O313  1  0.49907928  0.03238582  0.66453319  1
  O  O314  1  0.50972793  0.51294386  0.12876212  1
  O  O315  1  0.48803578  0.52105490  0.64964739  1
  O  O316  1  0.22837738  0.37189419  0.26388007  1
  O  O317  1  0.23529500  0.37468453  0.75866747  1
  O  O318  1  0.22384057  0.87714937  0.26210160  1
  O  O319  1  0.25717404  0.88882003  0.73661718  1
  O  O320  1  0.73575990  0.39440989  0.24987950  1
  O  O321  1  0.77409526  0.42388850  0.65959510  1
  O  O322  1  0.73729931  0.86442672  0.25040136  1
  O  O323  1  0.73588387  0.87865658  0.74641310  1
  O  O324  1  0.27396120  0.12235814  0.25445324  1
  O  O325  1  0.24334159  0.11138447  0.76370272  1
  O  O326  1  0.26920693  0.62066273  0.25339989  1
  O  O327  1  0.26073966  0.63178804  0.76314459  1
  O  O328  1  0.72257667  0.10878208  0.24612103  1
  O  O329  1  0.76011244  0.11682944  0.75094266  1
  O  O330  1  0.75271575  0.61076967  0.24372701  1
  O  O331  1  0.75026008  0.61690072  0.73991701  1
  O  O332  1  0.40144779  0.12488135  0.36406644  1
  O  O333  1  0.36659978  0.11314021  0.88936033  1
  O  O334  1  0.36851641  0.62404409  0.36483163  1
  O  O335  1  0.36837882  0.60989936  0.88152619  1
  O  O336  1  0.87103302  0.09494940  0.36175110  1
  O  O337  1  0.87763472  0.12632662  0.86813267  1
  O  O338  1  0.88269892  0.60728067  0.35686554  1
  O  O339  1  0.87267599  0.61420993  0.85860667  1
  O  O340  1  0.12814450  0.35848235  0.13571259  1
  O  O341  1  0.12069002  0.38830813  0.63772033  1
  O  O342  1  0.13645881  0.89016856  0.12618177  1
  O  O343  1  0.14060243  0.86691853  0.61990414  1
  O  O344  1  0.62072897  0.38982931  0.12787059  1
  O  O345  1  0.61664119  0.38951455  0.64419837  1
  O  O346  1  0.64211856  0.87135683  0.12062504  1
  O  O347  1  0.61656453  0.87149231  0.63434909  1
  O  O348  1  0.11749951  0.23975583  0.26318580  1
  O  O349  1  0.11768704  0.26165287  0.75529656  1
  O  O350  1  0.12340734  0.74993492  0.25428234  1
  O  O351  1  0.13127762  0.75090335  0.75447257  1
  O  O352  1  0.63716171  0.26829726  0.25621437  1
  O  O353  1  0.62468024  0.25745901  0.76281595  1
  O  O354  1  0.61191799  0.73062672  0.26634427  1
  O  O355  1  0.61947483  0.76218065  0.75381373  1
  O  O356  1  0.37343730  0.24012955  0.23283170  1
  O  O357  1  0.36280883  0.23834308  0.73729038  1
  O  O358  1  0.38102537  0.74460416  0.24070337  1
  O  O359  1  0.38769954  0.76642878  0.74217264  1
  O  O360  1  0.87451621  0.26017307  0.24320723  1
  O  O361  1  0.88270808  0.24082477  0.75914716  1
  O  O362  1  0.87586927  0.73046125  0.25871794  1
  O  O363  1  0.86635476  0.72818442  0.73711949  1
  O  O364  1  0.37204590  0.48029248  0.55305685  1
  O  O365  1  0.36714693  0.48912190  0.98719086  1
  O  O366  1  0.38334648  0.99625135  0.48870643  1
  O  O367  1  0.38864960  0.99237619  0.99660486  1
  O  O368  1  0.87466558  0.51175010  0.48553876  1
  O  O369  1  0.87797933  0.49349295  0.98664903  1
  O  O370  1  0.88248858  0.99854084  0.48463686  1
  O  O371  1  0.89025677  1.00865345  1.00126815  1
  O  O372  1  0.11998541  0.01081423  0.00201624  1
  O  O373  1  0.11416277  -0.00069662  0.52488936  1
  O  O374  1  0.10371091  0.49418277  -0.00645521  1
  O  O375  1  0.13499497  0.50742199  0.51465907  1
  O  O376  1  0.61187159  0.00718480  -0.00605133  1
  O  O377  1  0.61221073  0.01609311  0.52275703  1
  O  O378  1  0.63098283  0.50783667  0.01064043  1
  O  O379  1  0.61701186  0.50729292  0.49593873  1
  O  O380  1  0.36168889  0.36096075  0.12529623  1
  O  O381  1  0.36134616  0.34920495  0.63774362  1
  O  O382  1  0.38320302  0.86170701  0.11415042  1
  O  O383  1  0.37252816  0.87212505  0.61475895  1
  O  O384  1  0.87387927  0.37056644  0.11019081  1
  O  O385  1  0.91363197  0.38073247  0.59112973  1
  O  O386  1  0.84941590  0.86000098  0.13270871  1
  O  O387  1  0.87946800  0.85682238  0.62349043  1
  O  O388  1  0.20422069  0.09033874  0.39706643  1
  O  O389  1  0.13028119  0.13404095  0.87774907  1
  O  O390  1  0.12958740  0.62229014  0.38634035  1
  O  O391  1  0.14281016  0.64089492  0.87387926  1
  O  O392  1  0.62181119  0.14295356  0.36919007  1
  O  O393  1  0.62063054  0.12753048  0.88805382  1
  O  O394  1  0.61221988  0.62862586  0.38988080  1
  O  O395  1  0.61519069  0.63376079  0.88029061  1
