# generated using pymatgen
data_V35Zn35O128
_symmetry_space_group_name_H-M   'P 1'
_cell_length_a   17.01810445
_cell_length_b   16.98801053
_cell_length_c   16.96293444
_cell_angle_alpha   89.83309789
_cell_angle_beta   90.17532819
_cell_angle_gamma   90.01548368
_symmetry_Int_Tables_number   1
_chemical_formula_structural   V35Zn35O128
_chemical_formula_sum   'V70 Zn70 O256'
_cell_volume   4904.00381227
_cell_formula_units_Z   2
loop_
 _symmetry_equiv_pos_site_id
 _symmetry_equiv_pos_as_xyz
  1  'x, y, z'
loop_
 _atom_site_type_symbol
 _atom_site_label
 _atom_site_symmetry_multiplicity
 _atom_site_fract_x
 _atom_site_fract_y
 _atom_site_fract_z
 _atom_site_occupancy
  V  V0  1  0.24335987  0.74793047  0.01694954  1
  V  V1  1  0.61716454  0.12384534  0.49912893  1
  V  V2  1  0.50237199  0.37696697  0.87365107  1
  V  V3  1  0.88619301  0.59722357  0.74027582  1
  V  V4  1  0.49363954  0.12096962  0.12318873  1
  V  V5  1  0.36054654  0.12160002  0.26103358  1
  V  V6  1  0.76187120  0.38225248  0.61973081  1
  V  V7  1  -0.00468147  0.87529100  0.35767587  1
  V  V8  1  0.74513712  0.63001273  0.85991693  1
  V  V9  1  0.76654175  0.61672609  0.38183158  1
  V  V10  1  0.89938397  0.32756393  0.00964867  1
  V  V11  1  0.73433506  0.37794309  0.10140243  1
  V  V12  1  -0.00778371  0.13659631  0.60478310  1
  V  V13  1  0.49361543  0.49310842  0.49762985  1
  V  V14  1  0.37397309  0.12466805  0.74707717  1
  V  V15  1  0.36589175  -0.01875683  0.86973266  1
  V  V16  1  0.12038015  0.26169367  0.86910668  1
  V  V17  1  0.50669918  0.25344202  0.25339981  1
  V  V18  1  0.24922453  0.12721313  0.87174107  1
  V  V19  1  0.26361296  0.50543208  0.25824238  1
  V  V20  1  0.37289935  0.24882696  0.12526380  1
  V  V21  1  0.50690878  0.24785873  0.75181850  1
  V  V22  1  0.78133199  0.89817257  0.10025722  1
  V  V23  1  0.37052402  0.25767342  0.62383280  1
  V  V24  1  0.49775904  0.90211505  0.37299531  1
  V  V25  1  -0.02648281  0.21737758  0.24245164  1
  V  V26  1  0.86981628  0.00635791  0.37513954  1
  V  V27  1  0.11525329  0.50996401  0.12402970  1
  V  V28  1  0.12536946  0.66139387  0.48906063  1
  V  V29  1  0.35576946  0.38078230  0.49557996  1
  V  V30  1  0.50317826  0.11945819  0.61698681  1
  V  V31  1  0.73356439  0.76268844  0.50789936  1
  V  V32  1  0.12847758  -0.03034163  0.12851787  1
  V  V33  1  0.10994804  0.86089153  0.75406844  1
  V  V34  1  0.72875177  -0.01965714  0.26632600  1
  V  V35  1  0.12944667  0.11989511  0.00784176  1
  V  V36  1  0.24682409  -0.01964969  0.25641111  1
  V  V37  1  0.62203972  0.62546179  0.49883584  1
  V  V38  1  0.24761846  0.37981649  0.12902965  1
  V  V39  1  0.87196704  0.75789332  0.63927998  1
  V  V40  1  0.25531817  0.25186817  -0.00481723  1
  V  V41  1  0.13501151  0.37959303  0.72645890  1
  V  V42  1  0.75603355  0.01083715  0.74620820  1
  V  V43  1  0.62375573  0.12024051  -0.01076349  1
  V  V44  1  0.88825547  0.49260850  0.89765981  1
  V  V45  1  0.26327263  0.49099523  0.74649620  1
  V  V46  1  0.23201205  0.00300955  0.74395288  1
  V  V47  1  0.51335369  0.51116121  0.00450598  1
  V  V48  1  0.11150003  0.23819664  0.36430180  1
  V  V49  1  0.73553397  0.13899634  0.36080925  1
  V  V50  1  0.25313018  0.62731774  0.87077026  1
  V  V51  1  0.63200685  0.40953154  0.24666495  1
  V  V52  1  0.36383654  0.86623710  0.02287446  1
  V  V53  1  0.24528364  0.22723574  0.49563220  1
  V  V54  1  0.49293554  0.72184656  0.24336487  1
  V  V55  1  0.11720136  0.61808018  -0.01104580  1
  V  V56  1  0.37729233  0.89290999  0.50821348  1
  V  V57  1  0.87579628  0.88210813  0.50425775  1
  V  V58  1  -0.00973399  0.25707963  0.73562186  1
  V  V59  1  0.62629691  0.37464639  0.74832385  1
  V  V60  1  0.61175979  -0.02063842  0.13032565  1
  V  V61  1  0.74706665  0.25347790  0.51564989  1
  V  V62  1  0.62421062  0.49445590  0.62697861  1
  V  V63  1  0.00577834  -0.01354650  -0.00986639  1
  V  V64  1  0.48554151  -0.01168367  -0.00173740  1
  V  V65  1  0.38123935  0.37920353  -0.00846410  1
  V  V66  1  0.11983353  0.01204376  0.60593039  1
  V  V67  1  0.49133920  0.62890124  0.63205522  1
  V  V68  1  0.38320542  0.62949539  0.76230088  1
  V  V69  1  0.00686453  0.51715692  0.53027375  1
  Zn  Zn70  1  -0.06235520  0.68479580  0.28390996  1
  Zn  Zn71  1  0.62768169  0.76352983  0.35217485  1
  Zn  Zn72  1  0.49737429  0.37529978  0.37140006  1
  Zn  Zn73  1  0.67960491  0.27705664  0.91979548  1
  Zn  Zn74  1  0.85620600  0.74358616  0.13315318  1
  Zn  Zn75  1  0.23671239  0.84522348  0.60075706  1
  Zn  Zn76  1  0.18329017  0.19293214  0.19168588  1
  Zn  Zn77  1  0.18249179  0.18974188  0.67992823  1
  Zn  Zn78  1  0.31535082  0.67701054  0.19049224  1
  Zn  Zn79  1  0.19053146  0.69073206  0.69002266  1
  Zn  Zn80  1  0.68371671  0.17942862  0.16868896  1
  Zn  Zn81  1  0.72697488  0.22336568  0.73398900  1
  Zn  Zn82  1  0.66316836  0.62062880  0.20836510  1
  Zn  Zn83  1  0.69918433  0.66946556  0.67934754  1
  Zn  Zn84  1  0.30811688  0.30999562  0.31862017  1
  Zn  Zn85  1  0.31676109  0.31142570  0.81028113  1
  Zn  Zn86  1  0.33517343  0.81686279  0.31665528  1
  Zn  Zn87  1  0.30121745  0.80379828  0.78042889  1
  Zn  Zn88  1  0.78364271  0.28724065  0.25340968  1
  Zn  Zn89  1  0.81766041  0.34154295  0.82331402  1
  Zn  Zn90  1  0.80802700  0.80723789  0.32341488  1
  Zn  Zn91  1  0.76413793  0.81447031  0.81415144  1
  Zn  Zn92  1  0.16545161  0.41515795  0.41603994  1
  Zn  Zn93  1  0.19254370  0.44273241  0.93185543  1
  Zn  Zn94  1  0.18847326  0.92932735  0.43316762  1
  Zn  Zn95  1  0.18008698  0.93059621  0.92978793  1
  Zn  Zn96  1  0.68489052  0.43644033  0.43331166  1
  Zn  Zn97  1  0.70341928  0.45866926  0.93078851  1
  Zn  Zn98  1  0.66914265  0.93942727  0.44398691  1
  Zn  Zn99  1  0.68364120  0.94860872  0.93901332  1
  Zn  Zn100  1  0.30408589  0.05547922  0.06700318  1
  Zn  Zn101  1  0.31665197  0.05827951  0.56464587  1
  Zn  Zn102  1  0.31470336  0.55659833  0.04980398  1
  Zn  Zn103  1  0.30917997  0.56007234  0.56952587  1
  Zn  Zn104  1  0.81501950  0.05591226  0.04529638  1
  Zn  Zn105  1  0.81003345  0.07402868  0.55330737  1
  Zn  Zn106  1  0.73817896  0.59398642  0.05969275  1
  Zn  Zn107  1  0.81469244  0.56900512  0.56094468  1
  Zn  Zn108  1  0.43820821  0.44196708  0.18084520  1
  Zn  Zn109  1  0.43819963  0.43653615  0.68396093  1
  Zn  Zn110  1  0.43162015  0.93462227  0.19604502  1
  Zn  Zn111  1  0.44437285  0.93424267  0.68659737  1
  Zn  Zn112  1  0.95302688  0.40485790  0.14852169  1
  Zn  Zn113  1  0.96322787  0.43129611  0.65736034  1
  Zn  Zn114  1  0.93516501  0.98938899  0.18373765  1
  Zn  Zn115  1  0.94291999  0.94546947  0.67668803  1
  Zn  Zn116  1  0.06916524  0.05646485  0.31448998  1
  Zn  Zn117  1  0.04045367  0.07276178  0.81119493  1
  Zn  Zn118  1  0.09823662  0.57389026  0.31957807  1
  Zn  Zn119  1  0.05995358  0.55503082  0.80907078  1
  Zn  Zn120  1  0.56004109  0.07419590  0.30886977  1
  Zn  Zn121  1  0.54878901  0.04079487  0.80578988  1
  Zn  Zn122  1  0.54961321  0.56745706  0.32175232  1
  Zn  Zn123  1  0.56431737  0.55823824  0.81857146  1
  Zn  Zn124  1  0.43078456  0.19186645  0.43663792  1
  Zn  Zn125  1  0.44137201  0.18519802  0.93337955  1
  Zn  Zn126  1  0.44134758  0.70074881  0.43824746  1
  Zn  Zn127  1  0.45043206  0.68630306  1.05943080  1
  Zn  Zn128  1  0.92470499  0.19365526  0.42724186  1
  Zn  Zn129  1  0.92644655  0.14618145  0.93837767  1
  Zn  Zn130  1  0.93884172  0.70176649  0.45450368  1
  Zn  Zn131  1  0.93040565  0.62009830  1.04673082  1
  Zn  Zn132  1  0.07926539  0.29486473  0.07492452  1
  Zn  Zn133  1  0.06702086  0.31664951  0.54229693  1
  Zn  Zn134  1  0.04394102  0.79564193  0.06006412  1
  Zn  Zn135  1  0.05361673  0.82480407  0.57334939  1
  Zn  Zn136  1  0.56311758  0.31078345  0.06563785  1
  Zn  Zn137  1  0.56331691  0.30502539  0.56202089  1
  Zn  Zn138  1  0.63047171  0.76182647  0.12897266  1
  Zn  Zn139  1  0.52165098  0.79807741  0.54378077  1
  O  O140  1  0.14053757  0.13328772  0.10649883  1
  O  O141  1  0.11902156  0.11681463  0.62050855  1
  O  O142  1  0.12453902  0.61178620  0.10350309  1
  O  O143  1  0.16393768  0.62636945  0.59601152  1
  O  O144  1  0.60683856  0.10965305  0.11599346  1
  O  O145  1  0.60562230  0.13395088  0.61290558  1
  O  O146  1  0.65128771  0.65125383  0.10260727  1
  O  O147  1  0.61844888  0.61106301  0.62046904  1
  O  O148  1  0.37742564  0.36958793  0.39315704  1
  O  O149  1  0.38893365  0.36208162  0.88270416  1
  O  O150  1  0.39158030  0.87520001  0.39229239  1
  O  O151  1  0.35844916  0.88319778  0.85601045  1
  O  O152  1  0.90644547  0.44851351  0.34440255  1
  O  O153  1  0.88946795  0.36926081  0.91683356  1
  O  O154  1  0.87218767  0.88742619  0.38474204  1
  O  O155  1  0.87027764  0.86240214  0.88693168  1
  O  O156  1  0.23402023  0.00108807  0.35345222  1
  O  O157  1  0.25110945  0.01062477  0.86430823  1
  O  O158  1  0.23529213  0.47484424  0.35145753  1
  O  O159  1  0.24999648  0.51086664  0.86084404  1
  O  O160  1  0.73278628  0.00805011  0.37062005  1
  O  O161  1  0.75878535  0.01012715  0.85041343  1
  O  O162  1  0.75851876  0.51829115  0.40861981  1
  O  O163  1  0.79102877  0.45132568  0.85697384  1
  O  O164  1  0.25754527  0.48567531  0.12764869  1
  O  O165  1  0.25166958  0.49970262  0.64696155  1
  O  O166  1  0.23610096  0.99643552  0.13592555  1
  O  O167  1  0.23677986  1.01518130  0.63745885  1
  O  O168  1  0.73880636  0.47728554  0.10560864  1
  O  O169  1  0.73733372  0.48913347  0.61017077  1
  O  O170  1  0.72974750  0.98154992  0.14943211  1
  O  O171  1  0.75278423  1.01599741  0.64050952  1
  O  O172  1  -0.00988520  0.33151105  0.22383028  1
  O  O173  1  0.02564242  0.36430611  0.73267790  1
  O  O174  1  -0.01586095  0.90266316  0.26180435  1
  O  O175  1  0.01446592  0.89328751  0.74534381  1
  O  O176  1  0.50700608  0.36327309  0.24344200  1
  O  O177  1  0.50451646  0.36685241  0.75422871  1
  O  O178  1  0.48909982  0.87454402  0.27072346  1
  O  O179  1  0.51984810  0.93955876  0.76386011  1
  O  O180  1  0.48331226  0.13209278  0.23878866  1
  O  O181  1  0.49226314  0.13000027  0.74042301  1
  O  O182  1  0.48732984  0.62174349  0.24428195  1
  O  O183  1  0.48984031  0.60586546  0.74204218  1
  O  O184  1  0.99845530  0.11682097  0.24674591  1
  O  O185  1  1.01296362  0.15217580  0.72839634  1
  O  O186  1  1.00527212  0.60349878  0.26835636  1
  O  O187  1  0.98073370  0.62587922  0.75925950  1
  O  O188  1  0.37025268  0.25122232  0.00554983  1
  O  O189  1  0.36370168  0.26206539  0.50408859  1
  O  O190  1  0.36358125  0.76146616  0.00613048  1
  O  O191  1  0.40927086  0.77364769  0.51552124  1
  O  O192  1  0.88514158  0.22836028  0.00022828  1
  O  O193  1  0.84251542  0.24878411  0.48494220  1
  O  O194  1  0.96340573  0.72566013  0.08951643  1
  O  O195  1  0.85663931  0.76783233  0.50966855  1
  O  O196  1  0.15089369  0.23408815  0.52590514  1
  O  O197  1  0.13871294  0.24147066  0.98782847  1
  O  O198  1  0.12307276  0.76140047  0.50892805  1
  O  O199  1  0.13704873  0.73226132  1.00180295  1
  O  O200  1  0.63528638  0.24226647  0.50016228  1
  O  O201  1  0.61233748  0.22701969  0.99856226  1
  O  O202  1  0.62565952  0.74268548  0.51069603  1
  O  O203  1  0.57749687  0.77056230  0.91138619  1
  O  O204  1  0.48834953  0.24108850  0.13050802  1
  O  O205  1  0.48765510  0.24505288  0.63230615  1
  O  O206  1  0.50648821  0.74749659  0.13898589  1
  O  O207  1  0.51186587  0.72561743  0.63412997  1
  O  O208  1  1.01771372  0.23327012  0.14555658  1
  O  O209  1  1.00362645  0.24972126  0.62549502  1
  O  O210  1  1.09360221  0.73453810  0.22175414  1
  O  O211  1  0.97088944  0.76715561  0.62866373  1
  O  O212  1  -0.00109096  0.23574920  0.35009352  1
  O  O213  1  0.02183893  0.24835097  0.85276308  1
  O  O214  1  -0.01740065  0.77178851  0.36634523  1
  O  O215  1  -0.06679953  0.83125352  0.86857998  1
  O  O216  1  0.49110488  0.25237790  0.35579399  1
  O  O217  1  0.49952635  0.25358836  0.85961857  1
  O  O218  1  0.50670440  0.73711115  0.35497582  1
  O  O219  1  0.52137448  0.77931514  0.86689968  1
  O  O220  1  0.26588623  0.13088116  0.49217812  1
  O  O221  1  0.25083176  0.13282766  0.99037447  1
  O  O222  1  0.22907863  0.64019015  0.54007976  1
  O  O223  1  0.25169361  0.63496074  0.98495442  1
  O  O224  1  0.73363472  0.13907878  0.49498644  1
  O  O225  1  0.72323776  0.10721869  1.00112018  1
  O  O226  1  0.73836730  0.63831910  0.50272797  1
  O  O227  1  0.74085083  0.57233575  0.94749892  1
  O  O228  1  0.26284066  0.36670537  0.00002691  1
  O  O229  1  0.25755068  0.38209886  0.49783526  1
  O  O230  1  0.25341265  0.85605233  -0.00744906  1
  O  O231  1  0.26732363  0.87393542  0.49567053  1
  O  O232  1  0.71856868  0.35868984  0.00116207  1
  O  O233  1  0.73392052  0.36371063  0.51125362  1
  O  O234  1  0.77543962  0.93963154  0.00652699  1
  O  O235  1  0.74204189  0.86475712  0.49562500  1
  O  O236  1  0.14440163  0.50582748  0.22579025  1
  O  O237  1  0.13428172  0.48205722  0.75280261  1
  O  O238  1  0.13361190  0.99307160  0.23621145  1
  O  O239  1  0.13119075  1.01659816  0.75042837  1
  O  O240  1  0.61630269  0.51036748  0.24180493  1
  O  O241  1  0.61823072  0.48563514  0.73761871  1
  O  O242  1  0.62230493  1.00201870  0.24282833  1
  O  O243  1  0.65300809  1.02723137  0.75030411  1
  O  O244  1  0.35692987  0.01406908  0.24252269  1
  O  O245  1  0.36027872  0.01380770  0.75355868  1
  O  O246  1  0.36263426  0.48338979  0.25142147  1
  O  O247  1  0.36771046  0.49712378  0.75101416  1
  O  O248  1  0.84144949  -0.00424454  0.27188145  1
  O  O249  1  0.85800419  -0.00687022  0.74327372  1
  O  O250  1  0.89671579  0.48274332  0.28121211  1
  O  O251  1  0.88946886  0.50138865  0.71593765  1
  O  O252  1  0.09604856  0.32789388  0.42392180  1
  O  O253  1  0.13021832  0.36102501  0.88069466  1
  O  O254  1  0.09180786  0.89444463  0.38071959  1
  O  O255  1  0.13154251  0.86420356  0.85345029  1
  O  O256  1  0.61499326  0.39188948  0.35135578  1
  O  O257  1  0.61963007  0.37058154  0.85975998  1
  O  O258  1  0.60082293  0.87159775  0.38481775  1
  O  O259  1  0.67759499  0.86714346  0.86699561  1
  O  O260  1  0.37604571  0.13260387  0.12627420  1
  O  O261  1  0.38197550  0.13373718  0.63206352  1
  O  O262  1  0.37396227  0.62373809  0.11298127  1
  O  O263  1  0.38743670  0.61978211  0.63590540  1
  O  O264  1  0.87185354  0.07403949  0.13770881  1
  O  O265  1  0.89309330  0.12347617  0.61348156  1
  O  O266  1  0.83440232  0.63719480  0.09711200  1
  O  O267  1  0.86643983  0.64737579  0.63924905  1
  O  O268  1  0.25488182  0.25841688  0.11242347  1
  O  O269  1  0.26719526  0.24101862  0.61717570  1
  O  O270  1  0.24659054  0.74227689  0.11425814  1
  O  O271  1  0.26789108  0.76945993  0.67429966  1
  O  O272  1  0.74244628  0.27142214  0.14504787  1
  O  O273  1  0.75131366  0.25816060  0.61952908  1
  O  O274  1  0.74779613  0.80196492  0.10593743  1
  O  O275  1  0.75066358  0.75121647  0.61132346  1
  O  O276  1  0.23453459  0.25681811  0.39188845  1
  O  O277  1  0.24996183  0.24573262  0.88168261  1
  O  O278  1  0.28570407  0.72190726  0.39097366  1
  O  O279  1  0.25264265  0.72882001  0.86258435  1
  O  O280  1  0.74406631  0.23855889  0.35765705  1
  O  O281  1  0.75229207  0.24992970  0.84222626  1
  O  O282  1  0.73786369  0.73999885  0.39347221  1
  O  O283  1  0.76765616  0.72378387  0.88475777  1
  O  O284  1  0.03158774  0.12372795  -0.00742382  1
  O  O285  1  -0.00048761  0.15046637  0.50552586  1
  O  O286  1  0.02043015  0.61974694  -0.02332830  1
  O  O287  1  0.02111701  0.63764727  0.49761704  1
  O  O288  1  0.49264568  0.11382005  0.01120009  1
  O  O289  1  0.50513294  0.13953085  0.50600252  1
  O  O290  1  0.49958748  0.60994841  -0.01081049  1
  O  O291  1  0.50138868  0.61532292  0.51430507  1
  O  O292  1  0.49892761  0.38640265  0.49863714  1
  O  O293  1  0.49601744  0.36794578  0.98948921  1
  O  O294  1  0.49482712  0.89484303  0.49309682  1
  O  O295  1  0.47002645  0.88392365  1.00214995  1
  O  O296  1  1.00466221  0.41094001  0.54536478  1
  O  O297  1  0.99379660  0.35551234  1.03314860  1
  O  O298  1  0.97684446  0.87869131  0.49286806  1
  O  O299  1  1.00025554  0.88743820  1.00283843  1
  O  O300  1  0.49215800  0.50375650  0.39570270  1
  O  O301  1  0.50223216  0.48140476  0.87979347  1
  O  O302  1  0.49849805  1.00144919  0.37027257  1
  O  O303  1  0.47347505  1.00936927  0.89327556  1
  O  O304  1  1.07756818  0.50042576  0.42142131  1
  O  O305  1  0.98127058  0.48636414  0.85957296  1
  O  O306  1  0.97060372  1.00693840  0.37471203  1
  O  O307  1  1.04061749  0.99436661  0.89484437  1
  O  O308  1  0.02974000  0.00216322  0.10861015  1
  O  O309  1  0.01162308  0.01984313  0.61995950  1
  O  O310  1  0.01594316  0.49731525  0.12640940  1
  O  O311  1  0.02249281  0.53690621  0.62625294  1
  O  O312  1  0.49292578  0.00390995  0.12059813  1
  O  O313  1  0.49190209  0.02256434  0.61925897  1
  O  O314  1  0.50034512  0.49280949  0.10340182  1
  O  O315  1  0.50666267  0.50409671  0.61678129  1
  O  O316  1  0.25531619  0.36651823  0.22902326  1
  O  O317  1  0.24684472  0.38313917  0.75742269  1
  O  O318  1  0.26141179  0.88170200  0.25713726  1
  O  O319  1  0.23259036  0.90106816  0.74896460  1
  O  O320  1  0.73267461  0.39304198  0.24796717  1
  O  O321  1  0.73679625  0.36653020  0.72489246  1
  O  O322  1  0.72915311  0.88177577  0.27413411  1
  O  O323  1  0.73583638  0.90846510  0.73922178  1
  O  O324  1  0.26057418  0.13032207  0.24649938  1
  O  O325  1  0.25571030  0.12565030  0.75453287  1
  O  O326  1  0.25968721  0.60606814  0.25888677  1
  O  O327  1  0.26275522  0.61418888  0.75419119  1
  O  O328  1  0.72944628  0.11577102  0.26064747  1
  O  O329  1  0.76903504  0.11535978  0.74333852  1
  O  O330  1  0.74531471  0.61673846  0.28434304  1
  O  O331  1  0.77053315  0.62071095  0.75086445  1
  O  O332  1  0.37491993  0.13042552  0.35840775  1
  O  O333  1  0.36430996  0.12572011  0.86441151  1
  O  O334  1  0.33004125  0.66200332  0.40364668  1
  O  O335  1  0.36392055  0.61360336  0.86398574  1
  O  O336  1  0.84510357  0.11171823  0.38581203  1
  O  O337  1  0.93238377  0.10451326  0.83736491  1
  O  O338  1  0.86576777  0.64065091  0.38601008  1
  O  O339  1  0.86240988  0.59045437  0.85211687  1
  O  O340  1  0.14546343  0.38445092  0.11080771  1
  O  O341  1  0.14451625  0.37013071  0.63046517  1
  O  O342  1  0.12160349  0.87172090  0.11780445  1
  O  O343  1  0.12633917  0.89715466  0.63278124  1
  O  O344  1  0.62562507  0.37280410  0.14059081  1
  O  O345  1  0.62036437  0.38237218  0.62929447  1
  O  O346  1  0.60808161  0.88139135  0.12092633  1
  O  O347  1  0.61204131  0.82487098  0.70363134  1
  O  O348  1  0.13178480  0.25668639  0.26711850  1
  O  O349  1  0.14122661  0.26533959  0.75897369  1
  O  O350  1  0.14056392  0.76953853  0.26379036  1
  O  O351  1  0.11026132  0.76293469  0.73097509  1
  O  O352  1  0.60286509  0.23547135  0.24272658  1
  O  O353  1  0.61281144  0.25969235  0.73604147  1
  O  O354  1  0.61067594  0.72749770  0.24514397  1
  O  O355  1  0.64966341  0.77257612  0.73935425  1
  O  O356  1  0.37679233  0.24312847  0.23935730  1
  O  O357  1  0.38188299  0.24259064  0.74283402  1
  O  O358  1  0.38670529  0.74589786  0.24684768  1
  O  O359  1  0.39102468  0.72710684  0.76282126  1
  O  O360  1  0.87463348  0.22230662  0.24712535  1
  O  O361  1  0.89544594  0.27575258  0.75115617  1
  O  O362  1  0.86216692  0.75304123  0.24501823  1
  O  O363  1  0.84491365  0.78035668  0.73356710  1
  O  O364  1  0.38196922  0.48950481  0.51102998  1
  O  O365  1  0.38568832  0.48171092  0.99571398  1
  O  O366  1  0.37475782  0.99364863  0.49505273  1
  O  O367  1  0.36213184  0.98374674  0.99211353  1
  O  O368  1  0.90676565  0.53022764  0.51266457  1
  O  O369  1  0.89495063  0.51534886  0.99434979  1
  O  O370  1  0.84938857  0.98818899  0.48754890  1
  O  O371  1  0.91195000  1.02962811  0.98409824  1
  O  O372  1  0.13993819  0.00700243  0.01168849  1
  O  O373  1  0.13343087  0.00069199  0.50965388  1
  O  O374  1  0.13957699  0.51019723  0.00743155  1
  O  O375  1  0.11905088  0.53017239  0.49206116  1
  O  O376  1  0.60326663  -0.00070069  0.00826788  1
  O  O377  1  0.62786964  0.02486610  0.50532314  1
  O  O378  1  0.61063649  0.49290301  -0.01112529  1
  O  O379  1  0.60998596  0.50405341  0.50826803  1
  O  O380  1  0.36957671  0.36260850  0.11247875  1
  O  O381  1  0.38127213  0.36581839  0.61041555  1
  O  O382  1  0.36326947  0.87807898  0.12013618  1
  O  O383  1  0.37619243  0.88942516  0.61423729  1
  O  O384  1  0.85070334  0.37098572  0.09604363  1
  O  O385  1  0.85804727  0.38268423  0.62066941  1
  O  O386  1  0.87615635  0.89650559  0.12857367  1
  O  O387  1  0.86982633  0.88177788  0.60900803  1
  O  O388  1  0.11855470  0.13850998  0.37980016  1
  O  O389  1  0.14117380  0.13739413  0.87797873  1
  O  O390  1  0.14679024  0.64996427  0.39118816  1
  O  O391  1  0.13951513  0.61346406  0.87956188  1
  O  O392  1  0.62740555  0.12879716  0.38609263  1
  O  O393  1  0.60407829  0.10554444  0.89148441  1
  O  O394  1  0.62483876  0.61965782  0.39549837  1
  O  O395  1  0.64480745  0.63239645  0.83415510  1
