# generated using pymatgen
data_V35Zn35O128
_symmetry_space_group_name_H-M   'P 1'
_cell_length_a   16.89421885
_cell_length_b   16.90933636
_cell_length_c   16.89798205
_cell_angle_alpha   89.95097477
_cell_angle_beta   89.91137955
_cell_angle_gamma   89.97998350
_symmetry_Int_Tables_number   1
_chemical_formula_structural   V35Zn35O128
_chemical_formula_sum   'V70 Zn70 O256'
_cell_volume   4827.23918828
_cell_formula_units_Z   2
loop_
 _symmetry_equiv_pos_site_id
 _symmetry_equiv_pos_as_xyz
  1  'x, y, z'
loop_
 _atom_site_type_symbol
 _atom_site_label
 _atom_site_symmetry_multiplicity
 _atom_site_fract_x
 _atom_site_fract_y
 _atom_site_fract_z
 _atom_site_occupancy
  V  V0  1  0.50106802  0.13131265  0.12212140  1
  V  V1  1  0.39057444  0.62962023  0.25555584  1
  V  V2  1  0.63598016  0.25272588  0.87257754  1
  V  V3  1  0.25628475  0.37439836  0.63807318  1
  V  V4  1  0.11973590  0.25710900  0.36286610  1
  V  V5  1  0.49719369  0.24937376  0.74514357  1
  V  V6  1  0.74733742  0.61830326  0.87981823  1
  V  V7  1  0.63723680  0.26145732  0.38691681  1
  V  V8  1  0.12130836  0.88926534  0.25892857  1
  V  V9  1  0.12031338  0.61948589  0.51066170  1
  V  V10  1  0.63758370  0.11000665  0.49017938  1
  V  V11  1  0.10751422  0.11280417  0.01321940  1
  V  V12  1  0.87112722  0.01942922  0.36979506  1
  V  V13  1  0.37012703  0.38244315  0.49854118  1
  V  V14  1  0.12042183  0.91098071  0.76274179  1
  V  V15  1  0.36956755  0.12086197  0.74448608  1
  V  V16  1  0.89284287  0.87953456  -0.00196821  1
  V  V17  1  0.62749081  -0.01652918  0.12710974  1
  V  V18  1  0.62729641  0.75136592  0.86462518  1
  V  V19  1  0.50289024  0.11880609  0.61039068  1
  V  V20  1  0.25916279  0.13303487  0.90448916  1
  V  V21  1  0.86922880  0.63921729  0.74546845  1
  V  V22  1  0.50007827  0.75868895  0.74202843  1
  V  V23  1  0.24427769  0.90027024  0.63076109  1
  V  V24  1  0.77586156  0.50463535  0.24944594  1
  V  V25  1  0.77905870  0.75279362  0.49783496  1
  V  V26  1  0.49382360  0.38405871  0.37614120  1
  V  V27  1  -0.00823163  0.87078281  0.37832303  1
  V  V28  1  0.88881559  0.73961107  0.13241150  1
  V  V29  1  0.25617163  0.36275461  0.12111618  1
  V  V30  1  0.50781836  0.50419918  0.50423671  1
  V  V31  1  0.49325172  -0.01186486  -0.00246392  1
  V  V32  1  0.25239321  0.87401409  0.12405412  1
  V  V33  1  0.89834302  0.38248034  0.49651482  1
  V  V34  1  0.76233914  0.62168245  0.38000160  1
  V  V35  1  0.00422056  0.38940693  0.35477872  1
  V  V36  1  0.00132227  0.01000642  0.50032000  1
  V  V37  1  0.63386187  0.12974920  -0.00572981  1
  V  V38  1  0.38400830  0.12227531  0.25611123  1
  V  V39  1  0.87556684  0.23407931  0.61849014  1
  V  V40  1  0.39558337  0.36248589  0.00219408  1
  V  V41  1  -0.00528462  0.65112879  0.62398483  1
  V  V42  1  0.61886096  0.38160143  0.74356975  1
  V  V43  1  0.25626627  0.61997854  0.38054421  1
  V  V44  1  0.75687670  -0.00035991  0.24253774  1
  V  V45  1  0.60791884  0.50872981  0.11996430  1
  V  V46  1  0.74939984  0.37144798  0.60007083  1
  V  V47  1  0.74146368  0.75504406  0.01268573  1
  V  V48  1  0.25815018  0.00032982  0.25924981  1
  V  V49  1  0.10787985  0.48728615  0.64260453  1
  V  V50  1  0.36425706  0.74487866  0.62745881  1
  V  V51  1  0.38120622  0.89160801  0.49203873  1
  V  V52  1  0.24460092  0.25354478  0.50407834  1
  V  V53  1  0.63001759  0.38182111  0.24826225  1
  V  V54  1  0.49493845  0.87733198  0.86693017  1
  V  V55  1  0.39841902  0.50600525  0.88417979  1
  V  V56  1  0.74997441  0.87449022  0.63826237  1
  V  V57  1  0.49996219  0.25491348  0.24742092  1
  V  V58  1  0.88262479  0.26277555  0.13443836  1
  V  V59  1  0.26456140  0.51228438  0.75777512  1
  V  V60  1  0.50990166  0.62536636  0.62370291  1
  V  V61  1  0.24382933  0.74985903  0.50119321  1
  V  V62  1  0.38553764  0.75784987  0.12936542  1
  V  V63  1  0.75331916  0.49951205  0.73634326  1
  V  V64  1  -0.04334574  0.49472729  -0.03535709  1
  V  V65  1  0.07650933  0.69507109  0.32438055  1
  V  V66  1  0.13495646  0.51805512  0.11498877  1
  V  V67  1  0.25450987  0.12896748  0.37918426  1
  V  V68  1  0.05807915  0.67973205  0.81208766  1
  V  V69  1  0.24765170  0.49471675  0.25651639  1
  Zn  Zn70  1  -0.01444191  0.24847793  0.75917082  1
  Zn  Zn71  1  0.74962061  0.37640340  0.11908274  1
  Zn  Zn72  1  0.37297753  -0.00149147  0.87050395  1
  Zn  Zn73  1  0.76916221  0.03530591  0.73024235  1
  Zn  Zn74  1  0.55688356  0.58896936  -0.03207871  1
  Zn  Zn75  1  0.13402078  0.27466050  0.87351293  1
  Zn  Zn76  1  0.19084106  0.18803921  0.18898174  1
  Zn  Zn77  1  0.19291990  0.20987713  0.70470585  1
  Zn  Zn78  1  0.20104730  0.68864527  0.19102097  1
  Zn  Zn79  1  0.21986479  0.66657948  0.83691497  1
  Zn  Zn80  1  0.71021921  0.18376868  0.17648686  1
  Zn  Zn81  1  0.68597053  0.19750534  0.66970133  1
  Zn  Zn82  1  0.67086149  0.67872748  0.19392315  1
  Zn  Zn83  1  0.69018903  0.69375138  0.67740798  1
  Zn  Zn84  1  0.31512378  0.31126388  0.31326998  1
  Zn  Zn85  1  0.32479858  0.31220567  0.82698819  1
  Zn  Zn86  1  0.31226975  0.81015841  0.31637463  1
  Zn  Zn87  1  0.30248553  0.82056890  0.80881953  1
  Zn  Zn88  1  0.82081919  0.31608634  0.31056686  1
  Zn  Zn89  1  0.81732557  0.30709368  0.80030761  1
  Zn  Zn90  1  0.75396695  0.78890750  0.28064382  1
  Zn  Zn91  1  0.81669516  0.81950008  0.81612015  1
  Zn  Zn92  1  0.17794200  0.44009767  0.44331034  1
  Zn  Zn93  1  0.21334541  0.43406331  0.95058828  1
  Zn  Zn94  1  0.18926181  0.93528729  0.44145131  1
  Zn  Zn95  1  0.18776662  0.95057647  0.94091835  1
  Zn  Zn96  1  0.68241363  0.46395762  0.42656261  1
  Zn  Zn97  1  0.66502782  0.44537477  0.92618621  1
  Zn  Zn98  1  0.69083747  0.93367186  0.42862586  1
  Zn  Zn99  1  0.67785124  0.92907786  0.94765442  1
  Zn  Zn100  1  0.31373456  0.05900549  0.07348653  1
  Zn  Zn101  1  0.32052778  0.07332698  0.56259100  1
  Zn  Zn102  1  0.34704357  0.54560627  0.08639919  1
  Zn  Zn103  1  0.31321245  0.56070867  0.56771769  1
  Zn  Zn104  1  0.81480944  0.06040138  0.05663207  1
  Zn  Zn105  1  0.81258632  0.04616075  0.55215003  1
  Zn  Zn106  1  0.80716479  0.56018751  0.06727292  1
  Zn  Zn107  1  0.81925896  0.56058060  0.55934432  1
  Zn  Zn108  1  0.43346644  0.44054788  0.19373097  1
  Zn  Zn109  1  0.43406708  0.43884230  0.68500527  1
  Zn  Zn110  1  0.44414284  0.93946452  0.19460473  1
  Zn  Zn111  1  0.43771724  0.93970197  0.67807920  1
  Zn  Zn112  1  0.97269254  0.40335124  0.13664907  1
  Zn  Zn113  1  0.94644215  0.43895990  0.76228036  1
  Zn  Zn114  1  0.89637268  0.88533180  0.22110981  1
  Zn  Zn115  1  0.93930569  0.91525973  0.67863807  1
  Zn  Zn116  1  0.08449928  0.04947601  0.35506733  1
  Zn  Zn117  1  0.07484097  0.10998988  0.81157201  1
  Zn  Zn118  1  -0.01377104  0.53152156  0.25053207  1
  Zn  Zn119  1  0.09842477  0.49012378  0.85132361  1
  Zn  Zn120  1  0.60945599  0.09511218  0.28972902  1
  Zn  Zn121  1  0.59544268  0.08311587  0.78556334  1
  Zn  Zn122  1  0.57396716  0.56992997  0.32110973  1
  Zn  Zn123  1  0.56149273  0.56969689  0.79660823  1
  Zn  Zn124  1  0.43620753  0.20128168  0.43733990  1
  Zn  Zn125  1  0.45035118  0.18570371  0.92838307  1
  Zn  Zn126  1  0.42975197  0.68890842  0.44740022  1
  Zn  Zn127  1  0.39257197  0.70301474  0.92860572  1
  Zn  Zn128  1  0.93374837  0.19455630  0.43797414  1
  Zn  Zn129  1  0.96972237  0.18784321  0.94390345  1
  Zn  Zn130  1  0.93427891  0.67698860  0.43332596  1
  Zn  Zn131  1  0.92825986  0.67735723  0.95098967  1
  Zn  Zn132  1  0.07217813  0.31969480  0.04523538  1
  Zn  Zn133  1  0.06102506  0.30761095  0.56927505  1
  Zn  Zn134  1  0.05101086  0.83079192  0.08900926  1
  Zn  Zn135  1  0.06791708  0.82378516  0.56582770  1
  Zn  Zn136  1  0.56798183  0.31437255  0.06218618  1
  Zn  Zn137  1  0.55847374  0.31644307  0.56578152  1
  Zn  Zn138  1  0.53370278  0.76617992  0.03586753  1
  Zn  Zn139  1  0.56060478  0.82443526  0.56063725  1
  O  O140  1  0.12759448  0.15504187  0.10482859  1
  O  O141  1  0.12532253  0.12846170  0.61648178  1
  O  O142  1  0.14216344  0.61786268  0.12731029  1
  O  O143  1  0.09611655  0.60552820  0.62783290  1
  O  O144  1  0.61627574  0.12653892  0.11117416  1
  O  O145  1  0.61340787  0.13536103  0.59520272  1
  O  O146  1  0.61842751  0.60880208  0.12730528  1
  O  O147  1  0.60879920  0.63246718  0.61919383  1
  O  O148  1  0.38651213  0.37710881  0.38066142  1
  O  O149  1  0.37728575  0.38678024  0.89369089  1
  O  O150  1  0.36750133  0.87144135  0.39330482  1
  O  O151  1  0.39039493  0.88080382  0.86351354  1
  O  O152  1  0.89688876  0.36491450  0.38567838  1
  O  O153  1  0.81111032  0.35087938  0.94481466  1
  O  O154  1  0.89396549  0.87381671  0.35679889  1
  O  O155  1  0.87542044  0.86366705  0.89683350  1
  O  O156  1  0.24531400  0.01604815  0.37100902  1
  O  O157  1  0.26379687  0.02461070  0.88889307  1
  O  O158  1  0.24393325  0.50765313  0.37055059  1
  O  O159  1  0.25098279  0.50150427  0.85940318  1
  O  O160  1  0.76526368  -0.00058341  0.36400205  1
  O  O161  1  0.70729051  -0.01716759  0.84385627  1
  O  O162  1  0.77189331  0.49010969  0.35353114  1
  O  O163  1  0.73397490  0.51569329  0.86089431  1
  O  O164  1  0.25111129  0.49803679  0.13773126  1
  O  O165  1  0.25502835  0.48760895  0.63899847  1
  O  O166  1  0.26099966  0.99013620  0.15001956  1
  O  O167  1  0.25005718  0.99845341  0.61963931  1
  O  O168  1  0.73749804  0.49794794  0.13772002  1
  O  O169  1  0.74917071  0.49305625  0.63154077  1
  O  O170  1  0.73913036  1.00849939  0.13208722  1
  O  O171  1  0.75375432  0.98465601  0.62706620  1
  O  O172  1  -0.00434134  0.37487890  0.25781360  1
  O  O173  1  -0.07330482  0.33760501  0.80351531  1
  O  O174  1  0.01575660  0.87872681  0.25612057  1
  O  O175  1  0.02513761  0.87907123  0.74457452  1
  O  O176  1  0.50420655  0.37350176  0.25744722  1
  O  O177  1  0.51185608  0.36701613  0.73521709  1
  O  O178  1  0.50645021  0.87311654  0.27396100  1
  O  O179  1  0.50177598  0.86906324  0.74866602  1
  O  O180  1  0.50377265  0.13479470  0.24539329  1
  O  O181  1  0.50357551  0.13597115  0.73749060  1
  O  O182  1  0.48962778  0.62497213  0.26970514  1
  O  O183  1  0.49715194  0.63836987  0.73128459  1
  O  O184  1  1.01427328  0.12916906  0.24786937  1
  O  O185  1  1.06183643  0.10990511  0.64903062  1
  O  O186  1  1.02105910  0.63772053  0.26697470  1
  O  O187  1  0.98888671  0.63325706  0.73995347  1
  O  O188  1  0.39685815  0.26206985  -0.00333110  1
  O  O189  1  0.35975441  0.27007592  0.49398279  1
  O  O190  1  0.36987326  0.75901643  0.03134803  1
  O  O191  1  0.36563594  0.76159624  0.51157159  1
  O  O192  1  0.87964373  0.20980437  0.02005488  1
  O  O193  1  0.88005818  0.26828204  0.50673855  1
  O  O194  1  0.85966507  0.74992007  0.01146451  1
  O  O195  1  0.87833109  0.75661858  0.49525869  1
  O  O196  1  0.14005086  0.25835809  0.49437636  1
  O  O197  1  0.07678498  0.23706096  0.96886128  1
  O  O198  1  0.13579015  0.73411091  0.52125159  1
  O  O199  1  0.12578297  0.76210612  0.98814920  1
  O  O200  1  0.62414312  0.26321525  0.48755669  1
  O  O201  1  0.62154015  0.24361178  0.98545575  1
  O  O202  1  0.58690728  0.75217948  0.45697454  1
  O  O203  1  0.63516338  0.74536224  0.98232157  1
  O  O204  1  0.51022282  0.24310354  0.13631548  1
  O  O205  1  0.50709024  0.24220554  0.63667663  1
  O  O206  1  0.48606117  0.77054002  0.13915173  1
  O  O207  1  0.49356451  0.74501821  0.62324043  1
  O  O208  1  0.98643722  0.27956468  0.12066463  1
  O  O209  1  0.98174144  0.25621987  0.63604401  1
  O  O210  1  0.99057993  0.74177824  0.12941937  1
  O  O211  1  1.00123408  0.74922499  0.62663488  1
  O  O212  1  0.01809247  0.25131115  0.37795336  1
  O  O213  1  -0.02591159  0.15872778  0.83389927  1
  O  O214  1  0.00712480  0.75517420  0.37617965  1
  O  O215  1  0.00133800  0.72891123  0.87926255  1
  O  O216  1  0.50797280  0.26812842  0.36983347  1
  O  O217  1  0.51594706  0.24703730  0.85305289  1
  O  O218  1  0.53320719  0.73877825  0.40496194  1
  O  O219  1  0.50182416  0.75908266  0.85613020  1
  O  O220  1  0.26096561  0.14658199  0.49525037  1
  O  O221  1  0.27634144  0.14158113  1.00287817  1
  O  O222  1  0.24369735  0.62748450  0.49961173  1
  O  O223  1  0.17816972  0.71201155  0.99594548  1
  O  O224  1  0.73605109  0.11669268  0.49460642  1
  O  O225  1  0.73191215  0.11805587  0.99793172  1
  O  O226  1  0.76356139  0.63622025  0.49372247  1
  O  O227  1  0.74937371  0.63322618  0.98228822  1
  O  O228  1  0.27173796  0.36233286  0.01481384  1
  O  O229  1  0.25351757  0.37289553  0.50573293  1
  O  O230  1  0.24734335  0.88605701  0.02625488  1
  O  O231  1  0.24808993  0.86798461  0.51360667  1
  O  O232  1  0.74892807  0.37201960  -0.01802625  1
  O  O233  1  0.73972222  0.39125354  0.50265883  1
  O  O234  1  0.74983660  0.85698250  -0.00314760  1
  O  O235  1  0.74522631  0.84872843  0.47777567  1
  O  O236  1  0.14944840  0.49960958  0.24318420  1
  O  O237  1  0.14759529  0.49427057  0.73953593  1
  O  O238  1  0.13520983  0.99439811  0.25939643  1
  O  O239  1  0.11303343  1.01187987  0.76455644  1
  O  O240  1  0.61899007  0.49038859  0.24195944  1
  O  O241  1  0.62866346  0.48772569  0.74822039  1
  O  O242  1  0.62099383  0.99685108  0.23179603  1
  O  O243  1  0.64252098  0.97490434  0.79723244  1
  O  O244  1  0.37599758  0.01350592  0.26048395  1
  O  O245  1  0.38576295  0.01803306  0.75044416  1
  O  O246  1  0.36677233  0.52121168  0.24576108  1
  O  O247  1  0.37065094  0.48462697  0.76806128  1
  O  O248  1  0.86476183  0.00010591  0.24987349  1
  O  O249  1  0.87449249  -0.00901115  0.75043492  1
  O  O250  1  0.87342693  0.50262932  0.22997383  1
  O  O251  1  0.85485826  0.51186602  0.74889993  1
  O  O252  1  0.11418699  0.36861651  0.37858465  1
  O  O253  1  0.13336685  0.38729641  0.88518004  1
  O  O254  1  0.11665651  0.87563684  0.36523165  1
  O  O255  1  0.14170334  0.88724724  0.86007720  1
  O  O256  1  0.61671772  0.37682550  0.36808387  1
  O  O257  1  0.62471134  0.36446982  0.85779002  1
  O  O258  1  0.60438921  0.87535171  0.36163181  1
  O  O259  1  0.61204687  0.85543335  0.87844570  1
  O  O260  1  0.39310673  0.11936866  0.14078683  1
  O  O261  1  0.38991335  0.13010586  0.63602360  1
  O  O262  1  0.37510563  0.64098897  0.14412457  1
  O  O263  1  0.38134234  0.64200117  0.61735777  1
  O  O264  1  0.88072207  0.15487682  0.08563414  1
  O  O265  1  0.86865161  0.13634480  0.59764356  1
  O  O266  1  0.86421071  0.64073806  0.12427563  1
  O  O267  1  0.89250036  0.61822859  0.63014386  1
  O  O268  1  0.26484435  0.26689300  0.14633430  1
  O  O269  1  0.24283698  0.26298403  0.61420746  1
  O  O270  1  0.25910377  0.76907881  0.13838397  1
  O  O271  1  0.26201260  0.75258430  0.62055994  1
  O  O272  1  0.76337619  0.25912797  0.11815456  1
  O  O273  1  0.75143976  0.26554876  0.60634534  1
  O  O274  1  0.73431594  0.74143408  0.11043990  1
  O  O275  1  0.75193543  0.75205808  0.60195231  1
  O  O276  1  0.24305605  0.25273777  0.38431030  1
  O  O277  1  0.25067682  0.23461642  0.86701399  1
  O  O278  1  0.25117472  0.73940167  0.39440481  1
  O  O279  1  0.29124740  0.73790094  0.88214437  1
  O  O280  1  0.73540628  0.26463206  0.37170473  1
  O  O281  1  0.73521970  0.24964361  0.86161312  1
  O  O282  1  0.75325516  0.72760811  0.38324579  1
  O  O283  1  0.73448081  0.74066373  0.86838820  1
  O  O284  1  0.01009911  0.09208826  0.00403574  1
  O  O285  1  -0.00667969  0.11029968  0.49229486  1
  O  O286  1  -0.01365552  0.58714495  -0.00509291  1
  O  O287  1  0.00592125  0.63262743  0.51476418  1
  O  O288  1  0.50598349  0.11564025  0.00701833  1
  O  O289  1  0.48978015  0.13042211  0.50869897  1
  O  O290  1  0.48726402  0.67086018  -0.01179324  1
  O  O291  1  0.49364053  0.61209409  0.50769911  1
  O  O292  1  0.49006037  0.38417511  0.49855598  1
  O  O293  1  0.49474873  0.38272933  1.00777518  1
  O  O294  1  0.48086354  0.88198080  0.50710540  1
  O  O295  1  0.50440285  0.88309109  0.98934323  1
  O  O296  1  1.00038323  0.38137506  0.50007619  1
  O  O297  1  0.99964670  0.41460117  1.01462871  1
  O  O298  1  1.00594554  0.87699213  0.48081364  1
  O  O299  1  0.99537258  0.87462472  1.00298868  1
  O  O300  1  0.50620144  0.49362507  0.39188228  1
  O  O301  1  0.50303236  0.51113436  0.88034564  1
  O  O302  1  0.54284344  0.91328189  0.33251493  1
  O  O303  1  0.50147975  0.99466816  0.88926330  1
  O  O304  1  1.00634350  0.48903671  0.36104274  1
  O  O305  1  0.98218652  0.49232452  0.86097635  1
  O  O306  1  0.98641941  0.98965197  0.37177087  1
  O  O307  1  0.89824530  1.01362593  0.83275088  1
  O  O308  1  -0.01279185  0.09190159  0.19166017  1
  O  O309  1  -0.01038073  -0.01590374  0.59706643  1
  O  O310  1  0.03328930  0.50027170  0.14771719  1
  O  O311  1  0.01271035  0.46893111  0.66523611  1
  O  O312  1  0.51037519  0.00416069  0.11699631  1
  O  O313  1  0.50544626  0.01956245  0.62759681  1
  O  O314  1  0.50787824  0.49981788  0.12664744  1
  O  O315  1  0.48988718  0.51641670  0.62007636  1
  O  O316  1  0.27013745  0.39120028  0.24403492  1
  O  O317  1  0.25847194  0.36471333  0.73833058  1
  O  O318  1  0.24104574  0.88570619  0.26122320  1
  O  O319  1  0.24297718  0.88651915  0.73752895  1
  O  O320  1  0.74160128  0.38689176  0.25052272  1
  O  O321  1  0.74343019  0.38964964  0.74568149  1
  O  O322  1  0.74393716  0.89988651  0.24987081  1
  O  O323  1  0.74554998  0.86113334  0.73867715  1
  O  O324  1  0.26356019  0.12069843  0.25654134  1
  O  O325  1  0.26965476  0.13099998  0.73898747  1
  O  O326  1  0.25618262  0.61780657  0.26716014  1
  O  O327  1  0.26392624  0.60985316  0.74283322  1
  O  O328  1  0.72431550  0.10648170  0.25646410  1
  O  O329  1  0.69711827  0.11618152  0.74333507  1
  O  O330  1  0.74863132  0.60845987  0.26192246  1
  O  O331  1  0.74834265  0.61610488  0.74531993  1
  O  O332  1  0.36584701  0.13729621  0.36800623  1
  O  O333  1  0.37244879  0.12887277  0.86165152  1
  O  O334  1  0.36521756  0.62950652  0.37262069  1
  O  O335  1  0.37563083  0.60165549  0.87178830  1
  O  O336  1  0.88037807  0.11792845  0.36562119  1
  O  O337  1  0.84917962  0.06126417  0.86171473  1
  O  O338  1  0.86524652  0.61102520  0.37484141  1
  O  O339  1  0.85138365  0.63075979  0.86198390  1
  O  O340  1  0.15162550  0.37978579  0.11403094  1
  O  O341  1  0.14063919  0.38477121  0.62018449  1
  O  O342  1  0.13925417  0.87079415  0.14907597  1
  O  O343  1  0.13945556  0.88338349  0.63315035  1
  O  O344  1  0.62838186  0.38464442  0.13209214  1
  O  O345  1  0.63794739  0.36943804  0.63679251  1
  O  O346  1  0.62510968  0.88844822  0.11477768  1
  O  O347  1  0.64799217  0.86542729  0.61018252  1
  O  O348  1  0.13237860  0.25530086  0.26417279  1
  O  O349  1  0.10489924  0.22491064  0.77002280  1
  O  O350  1  0.13335696  0.75493719  0.26335661  1
  O  O351  1  0.12756436  0.73981724  0.77358177  1
  O  O352  1  0.61622715  0.26493435  0.26084358  1
  O  O353  1  0.62083554  0.26259921  0.75348126  1
  O  O354  1  0.64752747  0.75423439  0.26753846  1
  O  O355  1  0.61545427  0.74470824  0.75621880  1
  O  O356  1  0.39289280  0.24182895  0.25741680  1
  O  O357  1  0.39264440  0.24418139  0.75450040  1
  O  O358  1  0.37091120  0.73655255  0.25277337  1
  O  O359  1  0.38435427  0.76174145  0.73081718  1
  O  O360  1  0.87351295  0.24732915  0.23493156  1
  O  O361  1  0.84792582  0.23009803  0.71744726  1
  O  O362  1  0.85829826  0.76756999  0.23107643  1
  O  O363  1  0.86248996  0.73779533  0.74574322  1
  O  O364  1  0.38016392  0.48936887  0.50389723  1
  O  O365  1  0.37460272  0.49763480  0.98851771  1
  O  O366  1  0.36476324  0.99101332  0.49877878  1
  O  O367  1  0.39277284  1.00143399  1.00620623  1
  O  O368  1  0.87508946  0.48069234  0.50020900  1
  O  O369  1  0.85640978  0.49613380  0.98518403  1
  O  O370  1  0.88237907  0.99673694  0.47401654  1
  O  O371  1  0.86877316  0.97760044  1.00821898  1
  O  O372  1  0.14792231  0.01893344  0.02271726  1
  O  O373  1  0.10404461  0.00435025  0.47259683  1
  O  O374  1  0.14786412  0.50837424  0.01544753  1
  O  O375  1  0.13003030  0.51191760  0.52335312  1
  O  O376  1  0.61700939  0.00989446  0.00711946  1
  O  O377  1  0.62063458  0.01249955  0.47490872  1
  O  O378  1  0.62231829  0.50441679  0.01127699  1
  O  O379  1  0.60457858  0.48987573  0.51539173  1
  O  O380  1  0.37101026  0.38897229  0.11270850  1
  O  O381  1  0.36218136  0.37533117  0.61689466  1
  O  O382  1  0.36328088  0.87025887  0.14894167  1
  O  O383  1  0.36040910  0.87363284  0.61704670  1
  O  O384  1  0.86460062  0.36783229  0.12043545  1
  O  O385  1  0.85711500  0.37005832  0.60746106  1
  O  O386  1  0.87693834  0.85412934  0.10966301  1
  O  O387  1  0.85424108  0.86796081  0.62137958  1
  O  O388  1  0.14438879  0.14437917  0.37397279  1
  O  O389  1  0.15077932  0.12224429  0.90462121  1
  O  O390  1  0.13145399  0.63242910  0.39185040  1
  O  O391  1  0.11849828  0.60789667  0.85985843  1
  O  O392  1  0.61370349  0.15080366  0.38840836  1
  O  O393  1  0.61727930  0.13686522  0.88823971  1
  O  O394  1  0.65959716  0.58048959  0.39251498  1
  O  O395  1  0.62770628  0.63384477  0.87118458  1
