# generated using pymatgen
data_V35Zn35O128
_symmetry_space_group_name_H-M   'P 1'
_cell_length_a   16.94995691
_cell_length_b   16.86818900
_cell_length_c   16.91473938
_cell_angle_alpha   89.84252975
_cell_angle_beta   90.08649811
_cell_angle_gamma   89.78692299
_symmetry_Int_Tables_number   1
_chemical_formula_structural   V35Zn35O128
_chemical_formula_sum   'V70 Zn70 O256'
_cell_volume   4836.12171361
_cell_formula_units_Z   2
loop_
 _symmetry_equiv_pos_site_id
 _symmetry_equiv_pos_as_xyz
  1  'x, y, z'
loop_
 _atom_site_type_symbol
 _atom_site_label
 _atom_site_symmetry_multiplicity
 _atom_site_fract_x
 _atom_site_fract_y
 _atom_site_fract_z
 _atom_site_occupancy
  V  V0  1  0.01935308  0.12355187  0.62919938  1
  V  V1  1  0.14226889  0.59571897  0.51631609  1
  V  V2  1  0.00653544  0.75310605  0.73051598  1
  V  V3  1  0.49142601  0.38701232  0.87170410  1
  V  V4  1  0.87275072  0.23166202  0.63698395  1
  V  V5  1  0.12284763  0.88271904  0.75964599  1
  V  V6  1  0.60192333  0.87781551  0.26372226  1
  V  V7  1  0.75979963  0.00123052  0.24499168  1
  V  V8  1  0.86789235  0.37524585  -0.01277332  1
  V  V9  1  0.38120583  0.13591792  0.74374276  1
  V  V10  1  0.25200831  0.49429082  0.24824160  1
  V  V11  1  0.25226230  0.00177619  0.74632184  1
  V  V12  1  0.25567223  0.24785458  0.51128344  1
  V  V13  1  0.25898030  0.37445928  0.11803295  1
  V  V14  1  0.75846853  0.50548320  0.74704536  1
  V  V15  1  0.25433390  0.13724988  0.88437467  1
  V  V16  1  0.62012758  0.13733039  -0.00694249  1
  V  V17  1  0.74422190  0.86347714  0.11557742  1
  V  V18  1  0.37609746  0.25342889  0.11505101  1
  V  V19  1  0.61387492  0.24851543  0.85391625  1
  V  V20  1  0.75721198  0.48979419  0.24903347  1
  V  V21  1  0.75628748  0.24778748  0.48820546  1
  V  V22  1  0.37406490  -0.01120246  0.87800243  1
  V  V23  1  0.12802334  0.37392076  0.74391548  1
  V  V24  1  0.75808712  0.75632765  0.50220705  1
  V  V25  1  0.25056063  0.61169387  0.87675663  1
  V  V26  1  0.74919820  -0.00728235  0.75276259  1
  V  V27  1  0.24110919  0.87827222  0.62464738  1
  V  V28  1  0.76706527  0.62005684  0.39020343  1
  V  V29  1  0.62122214  0.12631377  0.49019234  1
  V  V30  1  0.61630082  -0.00981408  0.62032981  1
  V  V31  1  0.00651163  0.22102596  0.22702984  1
  V  V32  1  0.00746632  0.60111913  0.62180305  1
  V  V33  1  0.11526279  0.38023767  0.25335412  1
  V  V34  1  0.61967656  0.38512162  0.73399606  1
  V  V35  1  0.02499710  -0.00841526  0.51173991  1
  V  V36  1  0.27296517  0.74891584  0.00795325  1
  V  V37  1  0.38573003  0.87953486  0.49403529  1
  V  V38  1  0.24471237  0.75027705  0.49963096  1
  V  V39  1  0.50873068  0.24887760  0.25512363  1
  V  V40  1  0.37446458  0.36834859  0.51007432  1
  V  V41  1  0.38175993  0.49686798  0.37661942  1
  V  V42  1  0.65209949  0.61138406  0.00374888  1
  V  V43  1  0.74931543  0.12934524  0.86409870  1
  V  V44  1  0.03350568  0.61902435  0.09518819  1
  V  V45  1  0.66146999  0.73629919  0.87254653  1
  V  V46  1  0.10605440  0.24820819  0.87062160  1
  V  V47  1  0.10858888  0.11921141  0.01375178  1
  V  V48  1  0.88930749  -0.00238084  0.87963393  1
  V  V49  1  0.88202190  0.86757807  0.00685547  1
  V  V50  1  0.39201341  0.63102808  0.24139252  1
  V  V51  1  0.49577455  -0.01040973  -0.00666078  1
  V  V52  1  0.11746699  0.85061190  0.24066016  1
  V  V53  1  0.24915975  0.12380998  0.37108294  1
  V  V54  1  0.61539564  -0.00574882  0.11979188  1
  V  V55  1  0.61246869  0.62887184  0.49412668  1
  V  V56  1  0.49857233  0.62462324  0.64654168  1
  V  V57  1  0.11686516  0.24793136  0.38815063  1
  V  V58  1  0.76091788  0.37690686  0.61601462  1
  V  V59  1  0.88141400  -0.00541373  0.39337611  1
  V  V60  1  0.49567004  0.50198285  0.01533858  1
  V  V61  1  0.25928433  0.88553852  0.12881799  1
  V  V62  1  0.51400436  0.37174753  0.37182937  1
  V  V63  1  0.38178352  -0.00134383  0.36531866  1
  V  V64  1  0.50069664  0.13621575  0.62622295  1
  V  V65  1  0.76500619  0.87178376  0.62470051  1
  V  V66  1  0.86704492  0.65345601  0.23974304  1
  V  V67  1  0.11635417  0.74735275  0.88829855  1
  V  V68  1  0.24698960  0.62614499  0.37623860  1
  V  V69  1  0.38109025  0.75254020  0.63864452  1
  Zn  Zn70  1  0.75418046  0.12642888  0.36405803  1
  Zn  Zn71  1  0.49669710  0.12906584  0.12233575  1
  Zn  Zn72  1  0.85584149  0.65308495  0.72025656  1
  Zn  Zn73  1  0.53143679  0.81520749  0.80735295  1
  Zn  Zn74  1  0.51118704  0.49152614  0.51208257  1
  Zn  Zn75  1  0.37219174  0.12284671  0.24533405  1
  Zn  Zn76  1  0.18766346  0.19262193  0.18981296  1
  Zn  Zn77  1  0.19122391  0.19331411  0.69244243  1
  Zn  Zn78  1  0.18731922  0.68075854  0.18197807  1
  Zn  Zn79  1  0.19349342  0.69424391  0.68898289  1
  Zn  Zn80  1  0.68200866  0.18200898  0.18542356  1
  Zn  Zn81  1  0.68778008  0.18351004  0.68105683  1
  Zn  Zn82  1  0.60645748  0.71408296  0.15363396  1
  Zn  Zn83  1  0.67537898  0.69247261  0.68461659  1
  Zn  Zn84  1  0.32208910  0.30513704  0.31669905  1
  Zn  Zn85  1  0.30941151  0.31855837  0.80608585  1
  Zn  Zn86  1  0.31115957  0.81101286  0.30910134  1
  Zn  Zn87  1  0.30450109  0.80701318  0.82128620  1
  Zn  Zn88  1  0.82780288  0.30054133  0.30455492  1
  Zn  Zn89  1  0.80371334  0.31118673  0.80166891  1
  Zn  Zn90  1  0.73650532  0.76816473  0.28221048  1
  Zn  Zn91  1  0.82533593  0.81880893  0.81221561  1
  Zn  Zn92  1  0.19289291  0.42904215  0.43074941  1
  Zn  Zn93  1  0.16399791  0.43412812  0.94363680  1
  Zn  Zn94  1  0.19566000  0.93593660  0.43577537  1
  Zn  Zn95  1  0.18850327  0.93524521  0.94835513  1
  Zn  Zn96  1  0.68756859  0.44501232  0.44300202  1
  Zn  Zn97  1  0.68318712  0.44216546  0.92408590  1
  Zn  Zn98  1  0.69019474  0.93987934  0.43672315  1
  Zn  Zn99  1  0.67944512  0.92836551  0.93452078  1
  Zn  Zn100  1  0.31296953  0.06229390  0.06671769  1
  Zn  Zn101  1  0.31301616  0.06349337  0.55863459  1
  Zn  Zn102  1  0.31386317  0.56435311  0.05746814  1
  Zn  Zn103  1  0.33021259  0.56270523  0.56435246  1
  Zn  Zn104  1  0.79283806  0.04653314  0.04383136  1
  Zn  Zn105  1  0.80538298  0.05984698  0.56080774  1
  Zn  Zn106  1  0.82062714  0.56346686  0.08156236  1
  Zn  Zn107  1  0.82373948  0.56214271  0.55492182  1
  Zn  Zn108  1  0.44118625  0.43734732  0.19028193  1
  Zn  Zn109  1  0.43589320  0.43864019  0.68943948  1
  Zn  Zn110  1  0.44091313  0.80789977  0.17285270  1
  Zn  Zn111  1  0.43100026  0.93862754  0.67914135  1
  Zn  Zn112  1  0.97654288  0.51597169  0.25221831  1
  Zn  Zn113  1  0.94277219  0.42486069  0.69814219  1
  Zn  Zn114  1  0.90384745  0.86464855  0.23057747  1
  Zn  Zn115  1  0.93969900  0.94731665  0.68959437  1
  Zn  Zn116  1  0.06124721  0.05555309  0.32360926  1
  Zn  Zn117  1  0.06606396  0.07187219  0.81035938  1
  Zn  Zn118  1  -0.00166069  0.63435935  0.38789071  1
  Zn  Zn119  1  0.10763889  0.57961567  0.78745006  1
  Zn  Zn120  1  0.55558025  0.05931340  0.30986788  1
  Zn  Zn121  1  0.54284979  0.01175796  0.78724752  1
  Zn  Zn122  1  0.57402926  0.56329179  0.31216214  1
  Zn  Zn123  1  0.57341487  0.56542549  0.81737364  1
  Zn  Zn124  1  0.43739213  0.18423838  0.43676021  1
  Zn  Zn125  1  0.43867124  0.18816707  0.92891020  1
  Zn  Zn126  1  0.43153743  0.69471498  0.43372377  1
  Zn  Zn127  1  0.43671563  0.66101608  0.92054398  1
  Zn  Zn128  1  0.93477977  0.16919521  0.44512300  1
  Zn  Zn129  1  0.93706426  0.17560810  0.94005101  1
  Zn  Zn130  1  0.89913430  0.78670738  0.38555642  1
  Zn  Zn131  1  0.95237965  0.69620651  0.94255085  1
  Zn  Zn132  1  0.08590479  0.31109138  0.06046009  1
  Zn  Zn133  1  0.05283795  0.31133283  0.56431181  1
  Zn  Zn134  1  0.05487286  0.81312896  0.08131783  1
  Zn  Zn135  1  0.02712972  0.77984646  0.51448573  1
  Zn  Zn136  1  0.55464019  0.31483632  0.05573774  1
  Zn  Zn137  1  0.56566020  0.30692103  0.55616314  1
  Zn  Zn138  1  0.52836740  0.77368868  -0.00099516  1
  Zn  Zn139  1  0.56259756  0.80706065  0.56122948  1
  O  O140  1  0.14040145  0.13009606  0.10944106  1
  O  O141  1  0.11797625  0.13563492  0.62395641  1
  O  O142  1  0.13401618  0.60637818  0.11452289  1
  O  O143  1  0.13356578  0.61898501  0.62009298  1
  O  O144  1  0.62484466  0.12196883  0.10367208  1
  O  O145  1  0.61446792  0.11841398  0.61858405  1
  O  O146  1  0.63506689  0.61782202  0.10437468  1
  O  O147  1  0.59991730  0.63026576  0.62168232  1
  O  O148  1  0.38634519  0.38159337  0.38326748  1
  O  O149  1  0.39396966  0.37106984  0.85940913  1
  O  O150  1  0.36220730  0.88720911  0.38514836  1
  O  O151  1  0.36775343  0.89043615  0.87419723  1
  O  O152  1  0.92540239  0.41723302  0.49572749  1
  O  O153  1  0.85528908  0.37680455  0.88083115  1
  O  O154  1  0.88504454  0.89780300  0.35118111  1
  O  O155  1  0.87441701  0.88970635  0.88796192  1
  O  O156  1  0.25758963  0.01997087  0.38630794  1
  O  O157  1  0.26300434  0.01015619  0.86816177  1
  O  O158  1  0.26319981  0.50272789  0.36798809  1
  O  O159  1  0.22561732  0.51537862  0.89756861  1
  O  O160  1  0.75929587  -0.00420407  0.35748715  1
  O  O161  1  0.73760773  0.00318741  0.85991519  1
  O  O162  1  0.76139842  0.51702503  0.39388069  1
  O  O163  1  0.74655426  0.50047629  0.84575676  1
  O  O164  1  0.26429261  0.48746783  0.14051664  1
  O  O165  1  0.28403360  0.50659150  0.66524108  1
  O  O166  1  0.25032340  0.98609572  0.11892828  1
  O  O167  1  0.26047069  0.99346916  0.63765015  1
  O  O168  1  0.75954165  0.49304039  0.14805625  1
  O  O169  1  0.75935878  0.47987795  0.61105741  1
  O  O170  1  0.73037983  1.00132586  0.12772075  1
  O  O171  1  0.74497861  0.98953829  0.63299533  1
  O  O172  1  0.01973759  0.39635004  0.24263387  1
  O  O173  1  0.00839447  0.35761902  0.75546640  1
  O  O174  1  0.01656391  0.85996266  0.22657369  1
  O  O175  1  0.01743699  0.87253351  0.74264890  1
  O  O176  1  0.50120511  0.36630585  0.26385070  1
  O  O177  1  0.51404870  0.38242159  0.75139991  1
  O  O178  1  0.50496251  0.88015101  0.24294477  1
  O  O179  1  0.50704034  0.90666458  0.75315406  1
  O  O180  1  0.49629982  0.13697861  0.24611347  1
  O  O181  1  0.49026601  0.11550336  0.73910014  1
  O  O182  1  0.49147095  0.61763026  0.25564397  1
  O  O183  1  0.49854554  0.61929192  0.74515894  1
  O  O184  1  1.01996240  0.12152037  0.24107424  1
  O  O185  1  0.99991271  0.11647158  0.72898668  1
  O  O186  1  0.96466959  0.65276445  0.26534628  1
  O  O187  1  1.02192872  0.64054265  0.72819085  1
  O  O188  1  0.38971524  0.24914900  0.01579296  1
  O  O189  1  0.36924894  0.25889586  0.49577908  1
  O  O190  1  0.37038432  0.74830193  -0.00417424  1
  O  O191  1  0.36475161  0.76177115  0.51034971  1
  O  O192  1  0.87620822  0.27022145  -0.02140020  1
  O  O193  1  0.85844655  0.23978258  0.50631582  1
  O  O194  1  0.87675670  0.76880596  -0.01410437  1
  O  O195  1  0.85656331  0.76092125  0.50507753  1
  O  O196  1  0.14189786  0.26590703  0.49210308  1
  O  O197  1  0.12297538  0.23131970  0.98192808  1
  O  O198  1  0.14454026  0.74652272  0.50885782  1
  O  O199  1  0.10895303  0.76516790  0.98575597  1
  O  O200  1  0.63756274  0.23432385  0.50127369  1
  O  O201  1  0.62003185  0.24123804  0.98556949  1
  O  O202  1  0.63423796  0.73439772  0.51333410  1
  O  O203  1  0.64015389  0.72328353  0.98411419  1
  O  O204  1  0.49382483  0.25690449  0.13602039  1
  O  O205  1  0.50471030  0.23533600  0.62754536  1
  O  O206  1  0.51279402  0.75498308  0.10781444  1
  O  O207  1  0.48782951  0.74642756  0.62990037  1
  O  O208  1  1.01743452  0.25161762  0.13188085  1
  O  O209  1  0.98054950  0.23293257  0.61137323  1
  O  O210  1  1.01099296  0.71587262  0.12114586  1
  O  O211  1  1.01139680  0.75453836  0.62970843  1
  O  O212  1  0.01841272  0.23893021  0.39938243  1
  O  O213  1  0.00741866  0.22961716  0.86770222  1
  O  O214  1  -0.00147622  0.74306666  0.41238592  1
  O  O215  1  0.01386610  0.74908007  0.85605962  1
  O  O216  1  0.49548908  0.25952660  0.36632666  1
  O  O217  1  0.51114675  0.26115327  0.86954290  1
  O  O218  1  0.48440432  0.77351084  0.37688130  1
  O  O219  1  0.49905950  0.74879266  0.89125314  1
  O  O220  1  0.25892808  0.14120266  0.49214962  1
  O  O221  1  0.25856410  0.12479219  0.98351864  1
  O  O222  1  0.25338917  0.62783198  0.50203836  1
  O  O223  1  0.25393265  0.63906416  0.99205308  1
  O  O224  1  0.73926836  0.13362151  0.49639813  1
  O  O225  1  0.72659510  0.11424792  0.97605836  1
  O  O226  1  0.74546220  0.63639771  0.50589170  1
  O  O227  1  0.75211370  0.60038601  0.99745650  1
  O  O228  1  0.24592713  0.38194188  0.02135124  1
  O  O229  1  0.26778506  0.36432460  0.49491435  1
  O  O230  1  0.24597340  0.85959293  0.01225855  1
  O  O231  1  0.25422625  0.86837845  0.50785029  1
  O  O232  1  0.76214426  0.37667206  -0.01523329  1
  O  O233  1  0.74094333  0.35798897  0.50703528  1
  O  O234  1  0.75560028  0.88653266  0.01174203  1
  O  O235  1  0.73985049  0.86784040  0.51477492  1
  O  O236  1  0.14779419  0.48620550  0.25602127  1
  O  O237  1  0.10491484  0.47163870  0.76911743  1
  O  O238  1  0.12790065  0.96268063  0.29074540  1
  O  O239  1  0.13834312  0.99083640  0.76034875  1
  O  O240  1  0.65751620  0.50374475  0.26975280  1
  O  O241  1  0.63421994  0.48822198  0.74078967  1
  O  O242  1  0.61615356  0.99697951  0.23086580  1
  O  O243  1  0.64001382  1.00532132  0.72973627  1
  O  O244  1  0.36942664  0.00291865  0.26710457  1
  O  O245  1  0.36848350  0.00688280  0.76041680  1
  O  O246  1  0.37370572  0.50543918  0.26087837  1
  O  O247  1  0.33238639  0.49619038  0.72310400  1
  O  O248  1  0.85609140  -0.00625302  0.22988960  1
  O  O249  1  0.86041548  -0.00623538  0.76613547  1
  O  O250  1  0.85721419  0.54181960  0.26014684  1
  O  O251  1  0.85888694  0.49304165  0.73524031  1
  O  O252  1  0.13127461  0.35999712  0.36291972  1
  O  O253  1  0.12404981  0.35079431  0.87279305  1
  O  O254  1  0.12404794  0.89820502  0.34882936  1
  O  O255  1  0.13440067  0.86904731  0.86345912  1
  O  O256  1  0.61165834  0.37704444  0.38668423  1
  O  O257  1  0.62460826  0.36372250  0.85558969  1
  O  O258  1  0.61673631  0.89686465  0.36108154  1
  O  O259  1  0.63207332  0.84196052  0.88291890  1
  O  O260  1  0.37659225  0.13826755  0.12648049  1
  O  O261  1  0.38940504  0.11691142  0.63199607  1
  O  O262  1  0.37428080  0.61605805  0.14466772  1
  O  O263  1  0.38329448  0.64528029  0.62397312  1
  O  O264  1  0.82483906  0.15158166  0.10571305  1
  O  O265  1  0.86410148  0.13000357  0.62842819  1
  O  O266  1  0.85650104  0.65443643  0.13990596  1
  O  O267  1  0.90299129  0.62130208  0.61696992  1
  O  O268  1  0.26793446  0.26029865  0.13223016  1
  O  O269  1  0.25240607  0.24543794  0.61015796  1
  O  O270  1  0.25368700  0.74555192  0.11035147  1
  O  O271  1  0.26159763  0.75916317  0.62158770  1
  O  O272  1  0.70827543  0.29180975  0.13496201  1
  O  O273  1  0.75721780  0.25280876  0.61657251  1
  O  O274  1  0.72573161  0.76819684  0.12576273  1
  O  O275  1  0.74742303  0.76575168  0.62612500  1
  O  O276  1  0.24632193  0.24170339  0.38357926  1
  O  O277  1  0.25913720  0.23747065  0.87275415  1
  O  O278  1  0.26241165  0.73634480  0.38736590  1
  O  O279  1  0.23805701  0.74516699  0.88997931  1
  O  O280  1  0.76076314  0.24726247  0.38355842  1
  O  O281  1  0.73793758  0.23466480  0.86171144  1
  O  O282  1  0.74365336  0.75013276  0.39972661  1
  O  O283  1  0.76148640  0.73749267  0.85976023  1
  O  O284  1  0.00705189  0.12268613  0.01063096  1
  O  O285  1  -0.00671636  0.10479282  0.51896894  1
  O  O286  1  0.00462034  0.61286367  -0.00425740  1
  O  O287  1  0.03332765  0.61253084  0.51478736  1
  O  O288  1  0.51149728  0.12187062  -0.00592010  1
  O  O289  1  0.51254994  0.13112850  0.50972991  1
  O  O290  1  0.50602214  0.60522219  -0.00368047  1
  O  O291  1  0.50686476  0.62805088  0.49681911  1
  O  O292  1  0.49304338  0.37061592  0.49100478  1
  O  O293  1  0.51061771  0.38583203  0.97856947  1
  O  O294  1  0.48414828  0.86821928  0.50083628  1
  O  O295  1  0.50045682  0.89258452  0.99616620  1
  O  O296  1  1.00344922  0.39927747  0.49392406  1
  O  O297  1  0.96786662  0.39185876  0.96717036  1
  O  O298  1  1.00372094  0.89305040  0.51413501  1
  O  O299  1  0.97887051  0.88091738  1.02500456  1
  O  O300  1  0.49622080  0.48678504  0.37599359  1
  O  O301  1  0.50110263  0.48898750  0.86722008  1
  O  O302  1  0.48088146  1.00769935  0.37887260  1
  O  O303  1  0.48528397  1.00891454  0.88423831  1
  O  O304  1  1.00971714  0.52806296  0.35741892  1
  O  O305  1  0.95004434  0.54987898  0.84991157  1
  O  O306  1  0.99028877  1.00727248  0.40141356  1
  O  O307  1  0.98630628  1.01014369  0.86852535  1
  O  O308  1  -0.10945719  0.13944429  0.13916173  1
  O  O309  1  0.00694239  0.00832925  0.62143307  1
  O  O310  1  -0.01753846  0.54151468  0.14297461  1
  O  O311  1  0.00618170  0.50408666  0.63624367  1
  O  O312  1  0.50865170  0.00909878  0.10607110  1
  O  O313  1  0.51372746  0.00809568  0.62165857  1
  O  O314  1  0.51197677  0.48031176  0.11365112  1
  O  O315  1  0.47945978  0.52135194  0.62159971  1
  O  O316  1  0.26179819  0.38771370  0.25519832  1
  O  O317  1  0.23067104  0.37032968  0.75020060  1
  O  O318  1  0.24241864  0.86556368  0.23576315  1
  O  O319  1  0.24513278  0.88317074  0.74642415  1
  O  O320  1  0.77923859  0.39410487  0.27810924  1
  O  O321  1  0.74080580  0.38206696  0.73195561  1
  O  O322  1  0.72934342  0.89139097  0.23154427  1
  O  O323  1  0.75107249  0.88395529  0.73973961  1
  O  O324  1  0.25217151  0.13423593  0.26686021  1
  O  O325  1  0.26388136  0.11850382  0.75075966  1
  O  O326  1  0.25842245  0.61152776  0.25969569  1
  O  O327  1  0.22082305  0.62147747  0.77259629  1
  O  O328  1  0.73986117  0.10900165  0.24847729  1
  O  O329  1  0.74582077  0.11236024  0.75737399  1
  O  O330  1  0.75544181  0.64352738  0.28475361  1
  O  O331  1  0.75166657  0.60999456  0.71952600  1
  O  O332  1  0.36607960  0.11768890  0.37657064  1
  O  O333  1  0.37021103  0.12171136  0.86081545  1
  O  O334  1  0.36913371  0.61339905  0.37287424  1
  O  O335  1  0.35082059  0.61514908  0.86562666  1
  O  O336  1  0.87062786  0.10216343  0.37514784  1
  O  O337  1  0.85400737  0.11294261  0.88330500  1
  O  O338  1  0.86466327  0.63518257  0.40097960  1
  O  O339  1  0.90259421  0.60716471  0.85282082  1
  O  O340  1  0.15295217  0.35806729  0.15262003  1
  O  O341  1  0.11264683  0.36368785  0.64279650  1
  O  O342  1  0.13940271  0.86714551  0.13562861  1
  O  O343  1  0.14159212  0.87503935  0.64089667  1
  O  O344  1  0.65341911  0.34395767  0.12573615  1
  O  O345  1  0.63247918  0.36694817  0.63081221  1
  O  O346  1  0.62550904  0.89245094  0.11611140  1
  O  O347  1  0.62553757  0.88823638  0.61787744  1
  O  O348  1  0.10847510  0.25657116  0.26487162  1
  O  O349  1  0.12750394  0.25156229  0.76401268  1
  O  O350  1  0.13422704  0.75141439  0.25693788  1
  O  O351  1  0.12208596  0.76559869  0.75508655  1
  O  O352  1  0.60849013  0.24230514  0.25062859  1
  O  O353  1  0.62609715  0.25744703  0.75068694  1
  O  O354  1  0.62587595  0.77464083  0.25116694  1
  O  O355  1  0.62096748  0.73948976  0.77189318  1
  O  O356  1  0.38870910  0.24713811  0.24219183  1
  O  O357  1  0.37455944  0.23417518  0.74663191  1
  O  O358  1  0.38148320  0.73628603  0.25163385  1
  O  O359  1  0.36989352  0.76249885  0.73761451  1
  O  O360  1  0.91858524  0.25300397  0.26774348  1
  O  O361  1  0.86833366  0.24623536  0.73598960  1
  O  O362  1  0.85338894  0.76301457  0.27231545  1
  O  O363  1  0.90102733  0.75364507  0.74962598  1
  O  O364  1  0.37822227  0.48663858  0.49216389  1
  O  O365  1  0.39412696  0.49802428  1.00738588  1
  O  O366  1  0.37133438  0.98400897  0.49837617  1
  O  O367  1  0.38441498  1.00852095  0.98722828  1
  O  O368  1  0.90834846  0.49358961  0.48708208  1
  O  O369  1  0.86239491  0.47779018  1.00500071  1
  O  O370  1  0.85973390  0.98570102  0.49092510  1
  O  O371  1  0.87320164  0.99515766  0.98635440  1
  O  O372  1  0.13031642  0.02236549  -0.01370349  1
  O  O373  1  0.12366909  -0.00150423  0.50063822  1
  O  O374  1  0.08431718  0.41825610  0.02179747  1
  O  O375  1  0.15457892  0.49719498  0.51518644  1
  O  O376  1  0.61246498  0.00647743  -0.00171884  1
  O  O377  1  0.63886892  0.01481681  0.51381652  1
  O  O378  1  0.61772955  0.50613607  -0.01204197  1
  O  O379  1  0.62388715  0.51963990  0.50644313  1
  O  O380  1  0.36942170  0.36526290  0.12981905  1
  O  O381  1  0.38483658  0.37399316  0.60884764  1
  O  O382  1  0.35895033  0.87222832  0.12966778  1
  O  O383  1  0.36749648  0.86897957  0.61404733  1
  O  O384  1  0.87578502  0.35481547  0.08703978  1
  O  O385  1  0.86297831  0.35892526  0.62525681  1
  O  O386  1  0.85289143  0.87011133  0.12017661  1
  O  O387  1  0.86299849  0.88170903  0.62786144  1
  O  O388  1  0.13821136  0.13730510  0.37634316  1
  O  O389  1  0.14378945  0.13280240  0.87081172  1
  O  O390  1  0.14631787  0.61537708  0.40116649  1
  O  O391  1  0.12572337  0.64352972  0.88487463  1
  O  O392  1  0.62450851  0.11342701  0.38868944  1
  O  O393  1  0.62523973  0.13940937  0.87288291  1
  O  O394  1  0.63378562  0.62832029  0.39263877  1
  O  O395  1  0.64022731  0.62669471  0.88071286  1
