# generated using pymatgen
data_V35Zn35O128
_symmetry_space_group_name_H-M   'P 1'
_cell_length_a   16.82044668
_cell_length_b   16.81900695
_cell_length_c   16.80225398
_cell_angle_alpha   90.09169445
_cell_angle_beta   90.01421918
_cell_angle_gamma   89.89313811
_symmetry_Int_Tables_number   1
_chemical_formula_structural   V35Zn35O128
_chemical_formula_sum   'V70 Zn70 O256'
_cell_volume   4753.39708261
_cell_formula_units_Z   2
loop_
 _symmetry_equiv_pos_site_id
 _symmetry_equiv_pos_as_xyz
  1  'x, y, z'
loop_
 _atom_site_type_symbol
 _atom_site_label
 _atom_site_symmetry_multiplicity
 _atom_site_fract_x
 _atom_site_fract_y
 _atom_site_fract_z
 _atom_site_occupancy
  V  V0  1  0.50360490  0.37538851  0.37268738  1
  V  V1  1  -0.02806599  0.37728989  0.87811892  1
  V  V2  1  0.50434004  0.24341320  0.24438284  1
  V  V3  1  -0.00456955  0.61818017  0.13457566  1
  V  V4  1  0.36887723  0.12134324  0.74063239  1
  V  V5  1  0.13608638  0.62728386  0.50037853  1
  V  V6  1  0.49278947  0.63011156  0.63260814  1
  V  V7  1  0.36883483  0.36686920  -0.01520315  1
  V  V8  1  0.13015603  0.15182510  -0.00023471  1
  V  V9  1  0.64071910  0.00058461  0.12701186  1
  V  V10  1  0.62532973  0.23177776  0.38349814  1
  V  V11  1  -0.01475024  0.74943148  0.24957076  1
  V  V12  1  0.64781858  0.12919072  -0.00811592  1
  V  V13  1  0.75211989  0.49252978  0.75994775  1
  V  V14  1  0.50573664  0.88005540  0.87102618  1
  V  V15  1  0.24909902  0.40816693  0.62726499  1
  V  V16  1  0.76899303  0.75375048  0.49026913  1
  V  V17  1  0.37694057  0.37089807  0.50580320  1
  V  V18  1  0.12881508  0.38920218  0.75932530  1
  V  V19  1  0.86181514  0.50343164  0.36662187  1
  V  V20  1  -0.01259724  0.75042348  0.75302254  1
  V  V21  1  0.36557119  0.52570393  0.86846587  1
  V  V22  1  0.48704406  0.75269243  0.74706356  1
  V  V23  1  0.51314044  -0.00048880  0.49529911  1
  V  V24  1  0.86940329  0.12041839  0.76100833  1
  V  V25  1  0.50094994  0.49105193  0.00106610  1
  V  V26  1  0.37537856  0.86783792  0.50156323  1
  V  V27  1  0.13753608  0.74770896  0.37518191  1
  V  V28  1  -0.00790893  0.00953821  0.49904635  1
  V  V29  1  0.37222470  -0.00449129  0.37583762  1
  V  V30  1  0.51009876  0.12647650  0.62304074  1
  V  V31  1  0.76419316  0.86567276  0.62835392  1
  V  V32  1  0.12621937  0.01590047  0.62121869  1
  V  V33  1  0.13644046  0.62900975  -0.00664825  1
  V  V34  1  0.63300883  0.26054834  0.87242743  1
  V  V35  1  0.75232820  0.37681938  0.61364577  1
  V  V36  1  0.88181326  0.24558403  0.62378091  1
  V  V37  1  0.39934226  0.63197494  0.24773317  1
  V  V38  1  0.25353493  0.24169144  0.51651115  1
  V  V39  1  0.62434460  0.49889036  0.63244261  1
  V  V40  1  0.50122471  0.25647396  0.75409011  1
  V  V41  1  -0.00854356  0.63040234  0.61844714  1
  V  V42  1  -0.00809258  0.50325805  -0.00567617  1
  V  V43  1  0.76067439  0.00036022  0.26545800  1
  V  V44  1  0.13593497  0.88442729  0.24523885  1
  V  V45  1  0.00165094  0.10646651  0.12525958  1
  V  V46  1  0.75658746  0.62660265  0.87419917  1
  V  V47  1  0.63050722  -0.01337286  0.64266614  1
  V  V48  1  0.12359281  0.37943942  0.24646319  1
  V  V49  1  0.69614866  0.48036808  0.21024239  1
  V  V50  1  -0.00803318  0.87692086  0.88255732  1
  V  V51  1  -0.00403399  0.48874292  0.50388398  1
  V  V52  1  0.49889804  0.01311952  0.00403239  1
  V  V53  1  0.36174752  0.00331323  0.86608693  1
  V  V54  1  0.26384345  0.50624950  0.26391216  1
  V  V55  1  0.24405436  0.12422610  0.37541253  1
  V  V56  1  0.24727387  0.86794111  0.61526591  1
  V  V57  1  0.75751577  0.74887756  0.02203425  1
  V  V58  1  0.27367740  0.36634197  0.13301643  1
  V  V59  1  0.12314484  0.25814014  0.38021497  1
  V  V60  1  0.13028533  0.87440134  0.75451156  1
  V  V61  1  0.49881504  0.49911649  0.49830359  1
  V  V62  1  0.37498605  0.12722490  0.24379230  1
  V  V63  1  0.61556194  0.62678615  0.01563668  1
  V  V64  1  0.74739311  0.23084723  0.49824615  1
  V  V65  1  0.62788542  0.63440717  0.48903661  1
  V  V66  1  0.87737444  0.87478140  0.01857878  1
  V  V67  1  0.62983046  0.75012735  0.86544897  1
  V  V68  1  0.87322280  0.14591103  0.25329031  1
  V  V69  1  0.36510146  0.87030548  0.00514673  1
  Zn  Zn70  1  0.34112848  0.73284590  0.11827541  1
  Zn  Zn71  1  0.00667337  0.25031823  0.75695994  1
  Zn  Zn72  1  -0.01266557  0.36833427  0.37579123  1
  Zn  Zn73  1  -0.00841362  0.87445369  0.38291602  1
  Zn  Zn74  1  0.85750216  0.01122154  0.88609051  1
  Zn  Zn75  1  0.86807702  0.62949351  0.74362015  1
  Zn  Zn76  1  0.18437251  0.19132531  0.18947093  1
  Zn  Zn77  1  0.18036883  0.19822415  0.71116563  1
  Zn  Zn78  1  0.17568283  0.67973287  0.18511995  1
  Zn  Zn79  1  0.17509640  0.69646108  0.67801623  1
  Zn  Zn80  1  0.68244862  0.18256398  0.18507785  1
  Zn  Zn81  1  0.68646747  0.18447944  0.69005048  1
  Zn  Zn82  1  0.69889520  0.67007416  0.20085963  1
  Zn  Zn83  1  0.68744445  0.68834338  0.68045878  1
  Zn  Zn84  1  0.31611260  0.31044377  0.31932171  1
  Zn  Zn85  1  0.30109172  0.30050939  0.80259908  1
  Zn  Zn86  1  0.31175736  0.80440372  0.30517023  1
  Zn  Zn87  1  0.31337117  0.81744123  0.81277030  1
  Zn  Zn88  1  0.80575046  0.32729879  0.30947513  1
  Zn  Zn89  1  0.81045442  0.30721750  0.80868385  1
  Zn  Zn90  1  0.80377675  0.81330517  0.30706357  1
  Zn  Zn91  1  0.78910143  0.85567410  0.82605221  1
  Zn  Zn92  1  0.18875706  0.44400460  0.44173592  1
  Zn  Zn93  1  0.18761008  0.45031851  0.94347058  1
  Zn  Zn94  1  0.17756894  0.93734697  0.43762055  1
  Zn  Zn95  1  0.18597209  0.93008472  0.93392832  1
  Zn  Zn96  1  0.68163766  0.43395273  0.43400404  1
  Zn  Zn97  1  0.68630184  0.43653621  0.94732264  1
  Zn  Zn98  1  0.81631487  0.93798188  0.43942884  1
  Zn  Zn99  1  0.69061311  0.93680721  0.94782270  1
  Zn  Zn100  1  0.30818425  0.06655167  0.05253275  1
  Zn  Zn101  1  0.31139249  0.05476039  0.56613848  1
  Zn  Zn102  1  0.31129367  0.54921445  0.07347428  1
  Zn  Zn103  1  0.31858872  0.56929584  0.55468988  1
  Zn  Zn104  1  0.82440177  0.06881917  0.06719653  1
  Zn  Zn105  1  0.81177534  0.06013058  0.57787862  1
  Zn  Zn106  1  0.81324297  0.56003552  0.06836564  1
  Zn  Zn107  1  0.81237382  0.56373251  0.55191781  1
  Zn  Zn108  1  0.45243380  0.44610071  0.19083276  1
  Zn  Zn109  1  0.43118160  0.44202718  0.69137538  1
  Zn  Zn110  1  0.42770324  0.94785645  0.17936448  1
  Zn  Zn111  1  0.44041297  0.93684518  0.68215163  1
  Zn  Zn112  1  0.94015231  0.44073659  0.19211704  1
  Zn  Zn113  1  0.93682249  0.44207263  0.68801057  1
  Zn  Zn114  1  0.93984514  0.93925620  0.20154583  1
  Zn  Zn115  1  0.94351872  0.94162459  0.68421859  1
  Zn  Zn116  1  0.05313937  0.06685105  0.31147044  1
  Zn  Zn117  1  0.05980895  0.05621484  0.80939875  1
  Zn  Zn118  1  0.06299056  0.55815384  0.32026961  1
  Zn  Zn119  1  0.06134122  0.56275386  0.81335078  1
  Zn  Zn120  1  0.56369689  0.05709052  0.31122302  1
  Zn  Zn121  1  0.56565782  0.06655684  0.81301046  1
  Zn  Zn122  1  0.57657087  0.55791384  0.29767503  1
  Zn  Zn123  1  0.55973904  0.56198145  0.81938922  1
  Zn  Zn124  1  0.43395814  0.18484872  0.43975432  1
  Zn  Zn125  1  0.42814470  0.18820187  0.92369989  1
  Zn  Zn126  1  0.42582773  0.67221558  0.44261121  1
  Zn  Zn127  1  0.43605816  0.69243100  0.94069146  1
  Zn  Zn128  1  0.93699318  0.18447935  0.44452288  1
  Zn  Zn129  1  0.97753604  0.16296213  0.91185122  1
  Zn  Zn130  1  0.94068165  0.68294301  0.42818337  1
  Zn  Zn131  1  0.94311984  0.69118582  0.94134465  1
  Zn  Zn132  1  0.07155972  0.32846448  0.05521899  1
  Zn  Zn133  1  0.07965194  0.31041603  0.57977991  1
  Zn  Zn134  1  0.07298865  0.80140999  0.06911056  1
  Zn  Zn135  1  0.05610509  0.81527865  0.56052414  1
  Zn  Zn136  1  0.51819434  0.27733031  0.03496589  1
  Zn  Zn137  1  0.56795096  0.31315379  0.56642479  1
  Zn  Zn138  1  0.56617725  0.82169221  0.05475314  1
  Zn  Zn139  1  0.56310593  0.81446640  0.55638645  1
  O  O140  1  0.11217975  0.13944402  0.11789519  1
  O  O141  1  0.13253197  0.11383948  0.64345225  1
  O  O142  1  0.10607038  0.62262688  0.11125243  1
  O  O143  1  0.11481458  0.62934738  0.60995904  1
  O  O144  1  0.62619571  0.11765375  0.10268056  1
  O  O145  1  0.61696037  0.10759176  0.62875819  1
  O  O146  1  0.62542591  0.63119659  0.11419668  1
  O  O147  1  0.61536819  0.61761404  0.61440934  1
  O  O148  1  0.39161471  0.36540426  0.39282259  1
  O  O149  1  0.35889642  0.36124846  0.88431682  1
  O  O150  1  0.36492875  0.88859356  0.38360543  1
  O  O151  1  0.38575496  0.88527550  0.87647735  1
  O  O152  1  0.87556687  0.38527056  0.37821080  1
  O  O153  1  0.87189719  0.37842083  0.87667199  1
  O  O154  1  0.87795537  0.87706398  0.36737254  1
  O  O155  1  0.88724970  0.86188809  0.88601459  1
  O  O156  1  0.25848700  0.01473915  0.38567427  1
  O  O157  1  0.26285208  -0.00441429  0.87263911  1
  O  O158  1  0.26121181  0.49047570  0.36563095  1
  O  O159  1  0.26755641  0.49930697  0.87929477  1
  O  O160  1  0.75219453  0.00621338  0.36562122  1
  O  O161  1  0.75856040  -0.03882543  0.86322946  1
  O  O162  1  0.76217457  0.49830770  0.39381348  1
  O  O163  1  0.73897187  0.50797022  0.86649830  1
  O  O164  1  0.25510677  0.47741799  0.14596830  1
  O  O165  1  0.26205379  0.50708815  0.63264241  1
  O  O166  1  0.21317439  0.98882270  0.08527135  1
  O  O167  1  0.23681820  0.98737537  0.62340806  1
  O  O168  1  0.73578045  0.49172856  0.11522663  1
  O  O169  1  0.74484753  0.49250940  0.62889981  1
  O  O170  1  0.74189128  1.00473221  0.11927757  1
  O  O171  1  0.73714270  0.98379120  0.62166546  1
  O  O172  1  0.02005324  0.38100610  0.25661983  1
  O  O173  1  0.00150774  0.38513768  0.76790291  1
  O  O174  1  0.00594133  0.85884913  0.25350786  1
  O  O175  1  0.00000425  0.86550674  0.75782369  1
  O  O176  1  0.48770869  0.35826633  0.26782499  1
  O  O177  1  0.49289301  0.35436069  0.73584016  1
  O  O178  1  0.49473918  0.84868113  0.21034875  1
  O  O179  1  0.49784298  0.86311946  0.75598877  1
  O  O180  1  0.48906068  0.13251669  0.25441261  1
  O  O181  1  0.49736712  0.12775382  0.73789639  1
  O  O182  1  0.50020552  0.62813021  0.24593976  1
  O  O183  1  0.50460811  0.63566784  0.74039269  1
  O  O184  1  0.99350386  0.13123610  0.23516384  1
  O  O185  1  0.98878996  0.13723611  0.76712061  1
  O  O186  1  1.00782309  0.62854395  0.24285099  1
  O  O187  1  1.00068905  0.63446522  0.74039895  1
  O  O188  1  0.40074716  0.26564909  0.00396166  1
  O  O189  1  0.36497963  0.25724793  0.50311162  1
  O  O190  1  0.39348031  0.76773443  0.01694045  1
  O  O191  1  0.38872897  0.76894952  0.49032000  1
  O  O192  1  0.90887523  0.30354143  0.09197209  1
  O  O193  1  0.85672337  0.24478212  0.51014724  1
  O  O194  1  0.86257610  0.75292325  0.00219457  1
  O  O195  1  0.86775644  0.74080674  0.49797804  1
  O  O196  1  0.14534490  0.25750273  0.49360197  1
  O  O197  1  0.12752636  0.25224890  0.99215771  1
  O  O198  1  0.11626090  0.74035702  0.48908564  1
  O  O199  1  0.12494622  0.73298886  0.99607120  1
  O  O200  1  0.63393261  0.24815561  0.49532474  1
  O  O201  1  0.61442904  0.23551003  0.98694462  1
  O  O202  1  0.61266842  0.73589727  0.49146858  1
  O  O203  1  0.63400537  0.74349701  0.99816582  1
  O  O204  1  0.51368933  0.25625005  0.14660599  1
  O  O205  1  0.51257414  0.23267987  0.63093587  1
  O  O206  1  0.50394023  0.79271583  0.15841388  1
  O  O207  1  0.50857656  0.74254352  0.63741435  1
  O  O208  1  0.98069102  0.28646071  0.12415096  1
  O  O209  1  0.97906958  0.25912227  0.60846043  1
  O  O210  1  1.00401358  0.73758593  0.14160917  1
  O  O211  1  1.00161344  0.73937464  0.63314292  1
  O  O212  1  0.02010463  0.25278788  0.39357314  1
  O  O213  1  -0.00654841  0.27427461  0.87768796  1
  O  O214  1  0.00580680  0.74741591  0.36150345  1
  O  O215  1  0.00079524  0.75384535  0.86037249  1
  O  O216  1  0.50946895  0.25203030  0.37834947  1
  O  O217  1  0.50722314  0.24583471  0.85974450  1
  O  O218  1  0.59594776  0.75187455  0.30423924  1
  O  O219  1  0.50685757  0.75557912  0.86477966  1
  O  O220  1  0.26027751  0.13532081  0.49378617  1
  O  O221  1  0.23090866  0.13095763  1.00330333  1
  O  O222  1  0.23680978  0.62553551  0.50206452  1
  O  O223  1  0.23583231  0.61067972  1.01205879  1
  O  O224  1  0.74539858  0.13278526  0.50905509  1
  O  O225  1  0.74742133  0.12498123  0.99511982  1
  O  O226  1  0.73452703  0.63725393  0.50659871  1
  O  O227  1  0.74151501  0.63457434  0.99438691  1
  O  O228  1  0.26534213  0.37702326  0.01599327  1
  O  O229  1  0.26083333  0.37334404  0.50981981  1
  O  O230  1  0.26909753  0.86106266  -0.02675030  1
  O  O231  1  0.25933018  0.87625021  0.50640018  1
  O  O232  1  0.74456525  0.35404479  0.01517151  1
  O  O233  1  0.74831701  0.37123563  0.51247467  1
  O  O234  1  0.76087570  0.85756741  0.00739796  1
  O  O235  1  0.75565243  0.86215278  0.50800393  1
  O  O236  1  0.13975977  0.48302465  0.26509943  1
  O  O237  1  0.11831090  0.48832226  0.74434640  1
  O  O238  1  0.11694323  0.98395988  0.26178953  1
  O  O239  1  0.11326396  0.98250414  0.73719863  1
  O  O240  1  0.59121154  0.47356126  0.21641119  1
  O  O241  1  0.63326035  0.51024200  0.74062315  1
  O  O242  1  0.63859573  1.01546537  0.23519472  1
  O  O243  1  0.62087821  0.99273938  0.74212815  1
  O  O244  1  0.38472313  0.00868508  0.26712160  1
  O  O245  1  0.38338821  0.00361245  0.75946280  1
  O  O246  1  0.37417696  0.51400096  0.25025846  1
  O  O247  1  0.38448358  0.50724740  0.76889390  1
  O  O248  1  0.86636815  0.01546566  0.24534506  1
  O  O249  1  0.88250286  0.01880890  0.74621378  1
  O  O250  1  0.87054950  0.49498985  0.26284415  1
  O  O251  1  0.85504853  0.50667333  0.74618821  1
  O  O252  1  0.13087174  0.36518365  0.37454135  1
  O  O253  1  0.13659157  0.37851293  0.85944443  1
  O  O254  1  0.11865751  0.86158473  0.37256892  1
  O  O255  1  0.11171678  0.88081434  0.86317523  1
  O  O256  1  0.60922134  0.35964773  0.38303233  1
  O  O257  1  0.62332224  0.36071527  0.88419423  1
  O  O258  1  0.56432259  0.81173703  0.33743855  1
  O  O259  1  0.61514567  0.85913830  0.88809259  1
  O  O260  1  0.36251674  0.10865735  0.14527058  1
  O  O261  1  0.39354591  0.10841709  0.63383650  1
  O  O262  1  0.37217219  0.62285487  0.13797105  1
  O  O263  1  0.39379543  0.62956882  0.61810843  1
  O  O264  1  0.89402965  0.13158600  0.12984117  1
  O  O265  1  0.87335485  0.14051870  0.63508748  1
  O  O266  1  0.89307108  0.62473791  0.12177344  1
  O  O267  1  0.88651516  0.62486766  0.62363174  1
  O  O268  1  0.25736214  0.26555701  0.13916877  1
  O  O269  1  0.24687631  0.24764482  0.61585745  1
  O  O270  1  0.23232407  0.75579217  0.12473929  1
  O  O271  1  0.25074593  0.76735902  0.62645936  1
  O  O272  1  0.73989476  0.26836569  0.11599413  1
  O  O273  1  0.74665670  0.25997360  0.61664825  1
  O  O274  1  0.75318552  0.73754037  0.12070488  1
  O  O275  1  0.74011119  0.75809226  0.60687588  1
  O  O276  1  0.24773811  0.24048055  0.38791529  1
  O  O277  1  0.21382217  0.23117007  0.81608272  1
  O  O278  1  0.23754262  0.75020731  0.37742869  1
  O  O279  1  0.24399600  0.71475558  0.83618007  1
  O  O280  1  0.73642824  0.25141464  0.38855000  1
  O  O281  1  0.73308844  0.24962713  0.86824502  1
  O  O282  1  0.74906408  0.75362543  0.39014179  1
  O  O283  1  0.73718441  0.74875669  0.87781734  1
  O  O284  1  0.00611972  0.13650590  0.02148729  1
  O  O285  1  0.00008151  0.11226835  0.50579584  1
  O  O286  1  0.00494837  0.61722033  0.00438960  1
  O  O287  1  0.00301855  0.62132641  0.51099705  1
  O  O288  1  0.49207720  0.11345984  -0.00751494  1
  O  O289  1  0.49360371  0.11319897  0.51398313  1
  O  O290  1  0.51372767  0.63205900  0.00192780  1
  O  O291  1  0.50503062  0.61883563  0.50916407  1
  O  O292  1  0.49628910  0.37923681  0.50113408  1
  O  O293  1  0.49384671  0.38619309  0.99711948  1
  O  O294  1  0.48649702  0.88958867  0.50647601  1
  O  O295  1  0.49063883  0.88778746  0.98927312  1
  O  O296  1  1.01392920  0.38889590  0.50946226  1
  O  O297  1  1.00172645  0.38916685  0.98602665  1
  O  O298  1  1.00234659  0.89261399  0.50027933  1
  O  O299  1  0.99149959  0.85806478  0.99099858  1
  O  O300  1  0.51040414  0.48181081  0.38290582  1
  O  O301  1  0.48522050  0.51374072  0.89062114  1
  O  O302  1  0.48914418  1.00555605  0.38641075  1
  O  O303  1  0.49949345  0.99306644  0.88098273  1
  O  O304  1  0.99264636  0.49386224  0.38888681  1
  O  O305  1  0.99408652  0.49367800  0.88317180  1
  O  O306  1  1.00698472  1.00147306  0.39349437  1
  O  O307  1  0.98742643  0.97900757  0.87413827  1
  O  O308  1  0.00388547  0.00671603  0.12588703  1
  O  O309  1  0.01614892  -0.00296461  0.61547069  1
  O  O310  1  -0.00130452  0.50769230  0.11715964  1
  O  O311  1  -0.00245306  0.51302193  0.61654847  1
  O  O312  1  0.50380985  0.00213610  0.10769741  1
  O  O313  1  0.51265500  0.00305884  0.61751042  1
  O  O314  1  0.48781184  0.50786878  0.09957119  1
  O  O315  1  0.50535277  0.51036538  0.62305163  1
  O  O316  1  0.25437670  0.37901647  0.24980507  1
  O  O317  1  0.24173330  0.37780034  0.73193745  1
  O  O318  1  0.23765095  0.87782511  0.25803303  1
  O  O319  1  0.23672731  0.87274393  0.74588460  1
  O  O320  1  0.73171787  0.39517412  0.25438201  1
  O  O321  1  0.74684882  0.38980020  0.74598517  1
  O  O322  1  0.75793530  0.90023148  0.24598279  1
  O  O323  1  0.74022100  0.85290786  0.72630298  1
  O  O324  1  0.26204920  0.13263586  0.26639106  1
  O  O325  1  0.27113792  0.11931857  0.73207047  1
  O  O326  1  0.24055218  0.60446965  0.24889075  1
  O  O327  1  0.24143845  0.66425814  0.77972047  1
  O  O328  1  0.76468226  0.12085190  0.23813768  1
  O  O329  1  0.76789317  0.13190393  0.74894003  1
  O  O330  1  0.70776250  0.57414474  0.25900190  1
  O  O331  1  0.74665860  0.61904575  0.75676982  1
  O  O332  1  0.36675627  0.11620122  0.37069733  1
  O  O333  1  0.37530033  0.11073992  0.86006396  1
  O  O334  1  0.37877629  0.63565326  0.35161386  1
  O  O335  1  0.36716579  0.62692004  0.88231925  1
  O  O336  1  0.88634679  0.13612430  0.35384579  1
  O  O337  1  0.87397993  0.12592935  0.87056553  1
  O  O338  1  0.87786109  0.60452695  0.37823767  1
  O  O339  1  0.85851789  0.63496579  0.87472875  1
  O  O340  1  0.13649418  0.36750734  0.14358175  1
  O  O341  1  0.14885330  0.40009009  0.61039193  1
  O  O342  1  0.12057534  0.87038180  0.14443957  1
  O  O343  1  0.13583512  0.87882041  0.62930039  1
  O  O344  1  0.70277273  0.32714523  0.07795098  1
  O  O345  1  0.63669767  0.38646548  0.62497745  1
  O  O346  1  0.62537578  0.90150830  0.11127562  1
  O  O347  1  0.62287940  0.88547906  0.62171699  1
  O  O348  1  0.13502978  0.26287436  0.27109902  1
  O  O349  1  0.10269806  0.28887129  0.70468836  1
  O  O350  1  0.12105637  0.75321981  0.26448954  1
  O  O351  1  0.11108225  0.76924973  0.74293182  1
  O  O352  1  0.61323238  0.23877854  0.26696349  1
  O  O353  1  0.61397505  0.24407300  0.75989016  1
  O  O354  1  0.65667169  0.76863128  0.25055321  1
  O  O355  1  0.61909201  0.74599668  0.76339554  1
  O  O356  1  0.38775903  0.23558110  0.25798279  1
  O  O357  1  0.38835428  0.23108558  0.75334539  1
  O  O358  1  0.37270080  0.73956402  0.23559786  1
  O  O359  1  0.38783887  0.75017806  0.75199340  1
  O  O360  1  0.85979223  0.24669319  0.24493725  1
  O  O361  1  0.87942053  0.24688713  0.73759327  1
  O  O362  1  0.88533226  0.74714479  0.25199976  1
  O  O363  1  0.88696843  0.75016237  0.74822834  1
  O  O364  1  0.39161854  0.49383442  0.50127336  1
  O  O365  1  0.38089512  0.48573566  0.98773340  1
  O  O366  1  0.38055019  0.99356704  0.48984110  1
  O  O367  1  0.38189729  0.99806137  0.98465358  1
  O  O368  1  0.89011159  0.49756032  0.49882376  1
  O  O369  1  0.88973978  0.50501762  1.00137091  1
  O  O370  1  0.88357063  1.00519844  0.50738688  1
  O  O371  1  0.86846294  0.97883078  1.00157345  1
  O  O372  1  0.15551586  -0.00853790  0.03374187  1
  O  O373  1  0.12289905  0.00701049  0.51351612  1
  O  O374  1  0.10773706  0.50567972  0.00214399  1
  O  O375  1  0.11226851  0.51891906  0.48945719  1
  O  O376  1  0.61640013  0.01277674  -0.00068223  1
  O  O377  1  0.61033089  -0.00330479  0.49876576  1
  O  O378  1  0.61249930  0.51458411  -0.00681379  1
  O  O379  1  0.61477476  0.50466248  0.51113567  1
  O  O380  1  0.37710585  0.37438474  0.12388202  1
  O  O381  1  0.36464109  0.38156162  0.61618597  1
  O  O382  1  0.35798960  0.89828855  0.10319404  1
  O  O383  1  0.36289026  0.88409178  0.61228237  1
  O  O384  1  0.87417557  0.36680895  0.12177948  1
  O  O385  1  0.85794778  0.36560787  0.63352211  1
  O  O386  1  0.88769651  0.87267197  0.11655413  1
  O  O387  1  0.86380161  0.87751967  0.62996294  1
  O  O388  1  0.13915962  0.13624039  0.36962841  1
  O  O389  1  0.09800696  0.11280416  0.90524626  1
  O  O390  1  0.12018661  0.63674090  0.38624564  1
  O  O391  1  0.12360182  0.61531534  0.89055430  1
  O  O392  1  0.61871625  0.13270098  0.38320447  1
  O  O393  1  0.62629663  0.12824041  0.88659177  1
  O  O394  1  0.61607610  0.61097005  0.39224068  1
  O  O395  1  0.63077276  0.63888167  0.88393616  1
