# generated using pymatgen
data_V35Zn35O128
_symmetry_space_group_name_H-M   'P 1'
_cell_length_a   16.92114770
_cell_length_b   16.90263477
_cell_length_c   16.89754910
_cell_angle_alpha   89.88716711
_cell_angle_beta   89.96616093
_cell_angle_gamma   89.93765464
_symmetry_Int_Tables_number   1
_chemical_formula_structural   V35Zn35O128
_chemical_formula_sum   'V70 Zn70 O256'
_cell_volume   4832.88839793
_cell_formula_units_Z   2
loop_
 _symmetry_equiv_pos_site_id
 _symmetry_equiv_pos_as_xyz
  1  'x, y, z'
loop_
 _atom_site_type_symbol
 _atom_site_label
 _atom_site_symmetry_multiplicity
 _atom_site_fract_x
 _atom_site_fract_y
 _atom_site_fract_z
 _atom_site_occupancy
  V  V0  1  0.63280072  0.13363518  0.49671943  1
  V  V1  1  0.75119054  0.64103131  0.37645917  1
  V  V2  1  0.00465489  0.12146931  0.12873784  1
  V  V3  1  0.24736169  0.47315284  0.74254929  1
  V  V4  1  0.74926545  0.38265293  0.58824690  1
  V  V5  1  0.28894509  0.00352856  0.77496689  1
  V  V6  1  0.75590159  0.13632297  0.37654440  1
  V  V7  1  0.23998809  0.36937693  0.12192489  1
  V  V8  1  0.63676266  0.87098588  0.73808339  1
  V  V9  1  0.14324003  -0.01941439  0.64928171  1
  V  V10  1  0.13121700  0.88182007  0.25766364  1
  V  V11  1  0.36981690  0.36385711  -0.00278798  1
  V  V12  1  0.48890193  0.74483531  0.22861341  1
  V  V13  1  0.38166985  0.75757251  0.61016839  1
  V  V14  1  0.38078550  0.49854222  0.37915763  1
  V  V15  1  0.02851205  0.61125889  0.61213870  1
  V  V16  1  0.64356025  0.84373587  0.24221099  1
  V  V17  1  0.01332836  0.27207185  0.25172046  1
  V  V18  1  -0.01326255  -0.02525719  0.54190150  1
  V  V19  1  -0.01092135  0.87200159  0.37895083  1
  V  V20  1  0.74610709  0.00326500  0.24672853  1
  V  V21  1  0.88472468  0.12956116  0.25264349  1
  V  V22  1  0.49520919  0.50349692  0.00599820  1
  V  V23  1  0.49866889  0.87965076  0.37214721  1
  V  V24  1  0.75323561  0.60608201  0.86906595  1
  V  V25  1  0.75011257  0.49391290  0.24694525  1
  V  V26  1  0.01144427  0.13364821  0.64393477  1
  V  V27  1  0.75400859  0.76518502  0.50908311  1
  V  V28  1  -0.00455640  -0.00503346  -0.01614513  1
  V  V29  1  0.49135099  0.74747033  0.75922751  1
  V  V30  1  0.86556348  0.25373010  0.61930249  1
  V  V31  1  0.37158958  0.10253132  0.25759322  1
  V  V32  1  0.63048304  -0.00205837  0.11298721  1
  V  V33  1  0.37623364  0.49854105  0.87205837  1
  V  V34  1  0.63318639  0.38475208  0.74560300  1
  V  V35  1  0.60800912  0.51162923  0.60907098  1
  V  V36  1  0.17754285  0.17343569  0.44114507  1
  V  V37  1  0.37594754  0.25204429  0.14016223  1
  V  V38  1  0.12049646  0.27338347  0.83871239  1
  V  V39  1  0.00701996  0.38531026  0.39914909  1
  V  V40  1  0.87621993  0.50174969  0.39022366  1
  V  V41  1  0.37579757  0.24415944  0.62672606  1
  V  V42  1  0.88006299  0.25253999  0.12060556  1
  V  V43  1  0.51023126  0.13530670  0.12659087  1
  V  V44  1  0.51187098  0.11713604  0.63056457  1
  V  V45  1  0.47643264  -0.00310087  -0.00409908  1
  V  V46  1  0.37350369  0.35904499  0.49922707  1
  V  V47  1  0.11605891  0.51484827  0.11462051  1
  V  V48  1  0.89134318  0.38102601  -0.00789015  1
  V  V49  1  0.57428960  0.68828428  0.42920556  1
  V  V50  1  0.74856011  0.37267282  0.11847564  1
  V  V51  1  0.23897591  0.49454398  0.24968129  1
  V  V52  1  0.36919624  0.62401126  0.23134098  1
  V  V53  1  0.13940905  0.13232970  0.00612891  1
  V  V54  1  0.87965759  -0.00260705  0.37835094  1
  V  V55  1  0.87744472  0.62110788  0.73177234  1
  V  V56  1  0.23739862  0.63114939  0.86882782  1
  V  V57  1  0.54987567  0.32076851  0.92778315  1
  V  V58  1  0.75906626  0.12682394  0.86636972  1
  V  V59  1  0.00431185  0.74507422  0.23612690  1
  V  V60  1  0.13050513  0.74664189  0.39143173  1
  V  V61  1  0.62585821  0.62480175  0.00593252  1
  V  V62  1  0.63086241  0.74867388  0.87735805  1
  V  V63  1  0.00150583  0.52462529  -0.02657472  1
  V  V64  1  0.51295598  0.25536538  0.74751370  1
  V  V65  1  0.13263167  -0.01001655  0.12745656  1
  V  V66  1  0.50539337  -0.00042167  0.49528828  1
  V  V67  1  0.87884733  0.62877894  0.23581310  1
  V  V68  1  0.50241877  0.36146743  0.36451315  1
  V  V69  1  0.25935418  0.86071378  0.11874514  1
  Zn  Zn70  1  0.24165529  0.62574628  0.37906027  1
  Zn  Zn71  1  0.38362031  0.61092573  0.73311549  1
  Zn  Zn72  1  0.35519494  0.88929541  0.49414264  1
  Zn  Zn73  1  0.61367032  0.49423712  0.13014499  1
  Zn  Zn74  1  0.63651625  0.26011049  0.36319510  1
  Zn  Zn75  1  0.25884273  0.12965128  0.88298994  1
  Zn  Zn76  1  0.19043631  0.18399927  0.19848155  1
  Zn  Zn77  1  0.19615426  0.17747564  0.69236945  1
  Zn  Zn78  1  0.18559294  0.68833966  0.18906761  1
  Zn  Zn79  1  0.23065123  0.65257723  0.66020250  1
  Zn  Zn80  1  0.69536342  0.18491102  0.18277279  1
  Zn  Zn81  1  0.69443874  0.19604418  0.67815146  1
  Zn  Zn82  1  0.67918300  0.67294579  0.19308196  1
  Zn  Zn83  1  0.68999884  0.68662622  0.69070891  1
  Zn  Zn84  1  0.29842177  0.30537689  0.32072353  1
  Zn  Zn85  1  0.31740023  0.28609615  0.82200319  1
  Zn  Zn86  1  0.31218376  0.81475360  0.31326329  1
  Zn  Zn87  1  0.27103635  0.79821067  0.75608119  1
  Zn  Zn88  1  0.82704338  0.31787398  0.31522857  1
  Zn  Zn89  1  0.82639876  0.32900754  0.80021930  1
  Zn  Zn90  1  0.82049051  0.81857604  0.21077182  1
  Zn  Zn91  1  0.84822597  0.82391129  0.77842345  1
  Zn  Zn92  1  0.19412770  0.43072149  0.44108685  1
  Zn  Zn93  1  0.18163181  0.43687982  0.93005002  1
  Zn  Zn94  1  0.20038336  0.99664921  0.45245688  1
  Zn  Zn95  1  0.20210801  0.94011803  0.93649827  1
  Zn  Zn96  1  0.67445552  0.45255613  0.42714695  1
  Zn  Zn97  1  0.68685199  0.43624654  0.94159198  1
  Zn  Zn98  1  0.68180279  0.93955981  0.42501938  1
  Zn  Zn99  1  0.69617195  0.93354871  0.91753423  1
  Zn  Zn100  1  0.31338768  0.06234649  0.08316482  1
  Zn  Zn101  1  0.31864309  0.06330960  0.56989539  1
  Zn  Zn102  1  0.29839281  0.56276030  0.05203649  1
  Zn  Zn103  1  0.32864839  0.54903155  0.56510793  1
  Zn  Zn104  1  0.82262094  -0.04720060  0.06599724  1
  Zn  Zn105  1  0.83787051  0.08912546  0.54867675  1
  Zn  Zn106  1  0.81611272  0.56083744  0.05374557  1
  Zn  Zn107  1  0.79078467  0.57164715  0.56495179  1
  Zn  Zn108  1  0.42654368  0.43810315  0.18765091  1
  Zn  Zn109  1  0.43996322  0.42910468  0.68337004  1
  Zn  Zn110  1  0.44321244  0.93442528  0.17998751  1
  Zn  Zn111  1  0.44764413  0.92843360  0.68827460  1
  Zn  Zn112  1  0.93427627  0.44576072  0.18242700  1
  Zn  Zn113  1  0.92266131  0.45717383  0.65311514  1
  Zn  Zn114  1  0.94745416  0.94338904  0.19942220  1
  Zn  Zn115  1  0.97632769  0.96889452  0.76402747  1
  Zn  Zn116  1  0.06973425  0.07090591  0.33207609  1
  Zn  Zn117  1  0.06395345  0.09590101  0.82065760  1
  Zn  Zn118  1  0.06037969  0.56335637  0.31797363  1
  Zn  Zn119  1  0.06623372  0.56002144  0.78540485  1
  Zn  Zn120  1  0.56310486  0.07191780  0.31072795  1
  Zn  Zn121  1  0.55859241  0.04802565  0.81163391  1
  Zn  Zn122  1  0.55735344  0.55915293  0.30168494  1
  Zn  Zn123  1  0.55836635  0.56045326  0.81229886  1
  Zn  Zn124  1  0.44091543  0.18222937  0.43437159  1
  Zn  Zn125  1  0.43737616  0.16721930  0.93625631  1
  Zn  Zn126  1  0.41446619  0.69081790  0.43118473  1
  Zn  Zn127  1  0.44242280  0.67513753  0.92917629  1
  Zn  Zn128  1  0.96310565  0.19430588  0.44153267  1
  Zn  Zn129  1  0.95687984  0.19193123  0.94007310  1
  Zn  Zn130  1  0.93323132  0.69578151  0.44249308  1
  Zn  Zn131  1  0.93104750  0.69605595  0.90175208  1
  Zn  Zn132  1  0.06234504  0.31545407  0.06108713  1
  Zn  Zn133  1  0.06619960  0.29460868  0.56216836  1
  Zn  Zn134  1  -0.04647572  0.81880655  0.06210502  1
  Zn  Zn135  1  0.19888240  0.82425460  0.56243110  1
  Zn  Zn136  1  0.56641369  0.31239074  0.19298593  1
  Zn  Zn137  1  0.56046158  0.31688588  0.55445703  1
  Zn  Zn138  1  0.55878240  0.81771928  0.05707447  1
  Zn  Zn139  1  0.56436669  0.81289118  0.56735082  1
  O  O140  1  0.12134436  0.11369366  0.12953797  1
  O  O141  1  0.11166669  0.11714830  0.63764468  1
  O  O142  1  0.13263778  0.61277494  0.12072426  1
  O  O143  1  0.12728694  0.62924410  0.62524543  1
  O  O144  1  0.61851507  0.11484057  0.12297132  1
  O  O145  1  0.62441147  0.13172341  0.60777610  1
  O  O146  1  0.62610561  0.61592974  0.11100692  1
  O  O147  1  0.63073403  0.60737455  0.63230207  1
  O  O148  1  0.37987852  0.37832923  0.37532422  1
  O  O149  1  0.36689957  0.37662722  0.89343613  1
  O  O150  1  0.39426053  0.86664737  0.37844943  1
  O  O151  1  0.36367451  0.82035397  0.94582214  1
  O  O152  1  0.88289108  0.39646074  0.37640823  1
  O  O153  1  0.86955623  0.36916433  0.89526675  1
  O  O154  1  0.88753092  0.88309496  0.36070234  1
  O  O155  1  0.84228569  0.84189773  0.93640989  1
  O  O156  1  0.17470717  0.07045229  0.37462878  1
  O  O157  1  0.27729517  0.00720682  0.88139900  1
  O  O158  1  0.25817912  0.49014288  0.35701333  1
  O  O159  1  0.26329403  0.49683541  0.86981997  1
  O  O160  1  0.75946435  0.01504566  0.36574332  1
  O  O161  1  0.76522446  0.02315578  0.87181328  1
  O  O162  1  0.75904392  0.50534781  0.36198852  1
  O  O163  1  0.73434952  0.50722604  0.86859904  1
  O  O164  1  0.24052453  0.49319981  0.13101968  1
  O  O165  1  0.27746940  0.48521850  0.64469886  1
  O  O166  1  0.23491355  0.99021296  0.13235776  1
  O  O167  1  0.24394015  1.00880633  0.64481805  1
  O  O168  1  0.75820930  0.49147493  0.13540530  1
  O  O169  1  0.73312633  0.48592700  0.61453908  1
  O  O170  1  0.74424149  1.00320393  0.13586018  1
  O  O171  1  0.75746276  1.00336086  0.61619433  1
  O  O172  1  0.00543971  0.37158105  0.23726716  1
  O  O173  1  0.02197033  0.38550993  0.70022724  1
  O  O174  1  0.00701521  0.85992253  0.25605132  1
  O  O175  1  -0.00811924  0.84297801  0.76839250  1
  O  O176  1  0.49655623  0.37947853  0.25572489  1
  O  O177  1  0.51368872  0.36048965  0.74614046  1
  O  O178  1  0.49388986  0.85466052  0.25683227  1
  O  O179  1  0.51595086  0.85332884  0.74527007  1
  O  O180  1  0.49205687  0.11524669  0.23219754  1
  O  O181  1  0.52238158  0.13083850  0.73535987  1
  O  O182  1  0.48066806  0.62966353  0.24662310  1
  O  O183  1  0.49548395  0.63810789  0.75167990  1
  O  O184  1  0.99691282  0.13088792  0.24972864  1
  O  O185  1  0.97857982  0.09599698  0.73386660  1
  O  O186  1  0.98950268  0.63373291  0.25351859  1
  O  O187  1  0.99382142  0.62367605  0.71822912  1
  O  O188  1  0.37926557  0.26322225  0.01488992  1
  O  O189  1  0.38286367  0.25148400  0.50696952  1
  O  O190  1  0.37626966  0.76173311  -0.01087743  1
  O  O191  1  0.36520226  0.75774909  0.50662795  1
  O  O192  1  0.89571842  0.26154662  0.01235501  1
  O  O193  1  0.89109234  0.23827517  0.51643313  1
  O  O194  1  0.87938568  0.77706581  -0.02241024  1
  O  O195  1  0.85285486  0.75865181  0.49219148  1
  O  O196  1  0.15014605  0.24310249  0.51295425  1
  O  O197  1  0.11920017  0.23150597  1.00963959  1
  O  O198  1  0.13158610  0.76077501  0.48935469  1
  O  O199  1  0.09930728  0.80598868  0.91624902  1
  O  O200  1  0.61960372  0.23695840  0.48652102  1
  O  O201  1  0.60439704  0.27261337  0.98964645  1
  O  O202  1  0.62822974  0.74444665  0.49484813  1
  O  O203  1  0.60962516  0.73209460  0.99389979  1
  O  O204  1  0.49605213  0.24026912  0.12786107  1
  O  O205  1  0.50576798  0.23998728  0.63120506  1
  O  O206  1  0.48968292  0.75532408  0.13016085  1
  O  O207  1  0.48600968  0.74555584  0.62574869  1
  O  O208  1  0.99912217  0.24452215  0.13646764  1
  O  O209  1  0.99357876  0.23426140  0.62954736  1
  O  O210  1  1.00462817  0.74823588  0.13696937  1
  O  O211  1  0.97637165  0.77864887  0.65413223  1
  O  O212  1  -0.01277323  0.28223436  0.35933476  1
  O  O213  1  0.03450047  0.21136242  0.85991719  1
  O  O214  1  0.00656852  0.76009676  0.37254211  1
  O  O215  1  0.05736796  0.75657704  0.87620427  1
  O  O216  1  0.49871505  0.26011222  0.36524845  1
  O  O217  1  0.50625049  0.24671631  0.86200733  1
  O  O218  1  0.50557932  0.75351412  0.37828112  1
  O  O219  1  0.50475007  0.74622715  0.86543407  1
  O  O220  1  0.23963606  0.11055158  0.50170893  1
  O  O221  1  0.24070214  0.12671403  1.02187564  1
  O  O222  1  0.23344099  0.58291746  0.49390312  1
  O  O223  1  0.25144966  0.62408423  0.97179736  1
  O  O224  1  0.74115046  0.12180684  0.49011572  1
  O  O225  1  0.75575380  0.13495054  0.96994926  1
  O  O226  1  0.74713793  0.63846847  0.48110600  1
  O  O227  1  0.72970684  0.61088184  0.99358799  1
  O  O228  1  0.25942288  0.38386906  0.01267507  1
  O  O229  1  0.27298420  0.36771916  0.49195600  1
  O  O230  1  0.24054691  0.87430294  0.02026167  1
  O  O231  1  0.24311230  0.90297903  0.49007249  1
  O  O232  1  0.76440285  0.38781047  0.01481245  1
  O  O233  1  0.73537852  0.37461062  0.49028246  1
  O  O234  1  0.78015700  0.87438344  -0.01779993  1
  O  O235  1  0.73231864  0.86275215  0.48913834  1
  O  O236  1  0.13533547  0.50723537  0.24205638  1
  O  O237  1  0.14760193  0.48744303  0.74664029  1
  O  O238  1  0.11342388  0.98543925  0.24488024  1
  O  O239  1  0.09453552  0.99567403  0.74016232  1
  O  O240  1  0.64468024  0.50779641  0.24476866  1
  O  O241  1  0.61335005  0.48628889  0.74180626  1
  O  O242  1  0.64207510  1.01364846  0.24277997  1
  O  O243  1  0.62715890  0.96800445  0.77367847  1
  O  O244  1  0.37933616  0.00277260  0.24683928  1
  O  O245  1  0.38752198  0.00349746  0.75004471  1
  O  O246  1  0.36415751  0.51074942  0.25344754  1
  O  O247  1  0.38462084  0.48668510  0.76741634  1
  O  O248  1  0.86976583  0.01229981  0.25598194  1
  O  O249  1  0.87145495  -0.06564781  0.78854288  1
  O  O250  1  0.87049626  0.51422183  0.25466195  1
  O  O251  1  0.88284776  0.51931882  0.74320945  1
  O  O252  1  0.10615224  0.39406963  0.38065070  1
  O  O253  1  0.11066024  0.36932726  0.87221010  1
  O  O254  1  0.11303210  0.86597690  0.36307957  1
  O  O255  1  0.13330177  0.86437714  0.87142173  1
  O  O256  1  0.60636598  0.37785661  0.37203285  1
  O  O257  1  0.61623997  0.37717665  0.86690625  1
  O  O258  1  0.61592738  0.87291206  0.34553164  1
  O  O259  1  0.62931907  0.85090890  0.88250801  1
  O  O260  1  0.38670043  0.13557789  0.13628848  1
  O  O261  1  0.40190977  0.13474673  0.61750757  1
  O  O262  1  0.36263109  0.62069828  0.13302105  1
  O  O263  1  0.35625040  0.64346376  0.62183095  1
  O  O264  1  0.89011787  0.13635165  0.13707883  1
  O  O265  1  0.84400168  0.15467105  0.64124286  1
  O  O266  1  0.86760743  0.62640236  0.13678991  1
  O  O267  1  0.85838890  0.63502985  0.63435935  1
  O  O268  1  0.25325488  0.26595208  0.13275251  1
  O  O269  1  0.27821830  0.23316543  0.63288193  1
  O  O270  1  0.24703702  0.76125124  0.13194376  1
  O  O271  1  0.26363728  0.76448399  0.64214947  1
  O  O272  1  0.76591381  0.26393789  0.12882300  1
  O  O273  1  0.75344477  0.27493709  0.61943941  1
  O  O274  1  0.71703202  0.77910463  0.18924460  1
  O  O275  1  0.74056689  0.74869026  0.60800193  1
  O  O276  1  0.23111853  0.23162317  0.37467729  1
  O  O277  1  0.21398165  0.24536686  0.87211112  1
  O  O278  1  0.23461683  0.74809456  0.36979610  1
  O  O279  1  0.25080048  0.72972346  0.84470590  1
  O  O280  1  0.76110955  0.23959523  0.36792684  1
  O  O281  1  0.75624041  0.23157584  0.85785171  1
  O  O282  1  0.74653145  0.73822355  0.36778831  1
  O  O283  1  0.72852827  0.72573766  0.87966021  1
  O  O284  1  0.01386131  0.11662444  0.01403647  1
  O  O285  1  -0.03202024  0.08656154  0.55809741  1
  O  O286  1  -0.00996968  0.62425531  -0.02069024  1
  O  O287  1  -0.00606784  0.65881088  0.52991242  1
  O  O288  1  0.49332175  0.11702466  0.02080315  1
  O  O289  1  0.51466791  0.11999122  0.50325809  1
  O  O290  1  0.50314186  0.60976806  0.00200369  1
  O  O291  1  0.50869310  0.63264157  0.47837361  1
  O  O292  1  0.48716787  0.36969851  0.47809308  1
  O  O293  1  0.48634650  0.38179563  0.99426563  1
  O  O294  1  0.51711172  0.88187217  0.48085736  1
  O  O295  1  0.50454441  0.89885564  1.00050359  1
  O  O296  1  1.00383160  0.36981309  0.49724329  1
  O  O297  1  0.99421467  0.38364594  0.99871295  1
  O  O298  1  0.99342083  0.88217322  0.48228772  1
  O  O299  1  1.00693630  0.89508967  0.99805645  1
  O  O300  1  0.48286207  0.49393674  0.36291550  1
  O  O301  1  0.48577814  0.49809195  0.88859981  1
  O  O302  1  0.50613853  0.98539618  0.37322708  1
  O  O303  1  0.49189826  1.02911525  0.89883615  1
  O  O304  1  0.98696270  0.49787301  0.37834045  1
  O  O305  1  1.00532220  0.50812206  0.87624212  1
  O  O306  1  0.99280278  0.98578201  0.36526337  1
  O  O307  1  1.00444224  1.01034265  0.88217395  1
  O  O308  1  0.00974338  0.01052835  0.12898727  1
  O  O309  1  -0.03812385  -0.05466315  0.63089664  1
  O  O310  1  0.01548305  0.50481881  0.12620549  1
  O  O311  1  0.00583308  0.51341597  0.59824997  1
  O  O312  1  0.51567991  0.00676461  0.11394166  1
  O  O313  1  0.50897314  0.01358214  0.61885136  1
  O  O314  1  0.49598245  0.49077620  0.11115237  1
  O  O315  1  0.50692570  0.49806770  0.62366836  1
  O  O316  1  0.25429807  0.38741888  0.23651007  1
  O  O317  1  0.26680070  0.37486146  0.76247021  1
  O  O318  1  0.23391838  0.87228744  0.24863864  1
  O  O319  1  0.25403354  0.90800359  0.76600113  1
  O  O320  1  0.76414430  0.38915398  0.24210507  1
  O  O321  1  0.73231698  0.37555391  0.75617322  1
  O  O322  1  0.74907608  0.90107571  0.26156211  1
  O  O323  1  0.73459252  0.84511932  0.75377391  1
  O  O324  1  0.27262247  0.12084683  0.23860888  1
  O  O325  1  0.24276590  0.10085873  0.76337891  1
  O  O326  1  0.25624990  0.61373219  0.25243714  1
  O  O327  1  0.26743676  0.59688824  0.75748175  1
  O  O328  1  0.76737451  0.12147119  0.25409555  1
  O  O329  1  0.75347647  0.12300213  0.76057690  1
  O  O330  1  0.76197794  0.61729036  0.25581960  1
  O  O331  1  0.76365289  0.62773994  0.76244620  1
  O  O332  1  0.38763152  0.12315556  0.35600116  1
  O  O333  1  0.35583558  0.18367731  0.86706226  1
  O  O334  1  0.36206707  0.60765996  0.37352917  1
  O  O335  1  0.37124295  0.60490904  0.87353652  1
  O  O336  1  0.87744546  0.12034000  0.36964112  1
  O  O337  1  0.86306255  0.13346608  0.86823778  1
  O  O338  1  0.86541731  0.62014960  0.36779279  1
  O  O339  1  0.84940755  0.60928696  0.89608525  1
  O  O340  1  0.13734873  0.38544593  0.11683843  1
  O  O341  1  0.08003118  0.37990035  0.65364779  1
  O  O342  1  0.12686377  0.88351968  0.13973902  1
  O  O343  1  0.14059840  0.88097390  0.64520380  1
  O  O344  1  0.64571674  0.37612462  0.12742426  1
  O  O345  1  0.63070466  0.38144674  0.62876051  1
  O  O346  1  0.61536648  0.89049938  0.14190509  1
  O  O347  1  0.62598726  0.87651917  0.63731799  1
  O  O348  1  0.11080884  0.24916027  0.24928082  1
  O  O349  1  0.13089826  0.26098489  0.73768139  1
  O  O350  1  0.11299992  0.75434279  0.25579741  1
  O  O351  1  0.02416971  0.80309108  0.70705204  1
  O  O352  1  0.62953673  0.24193483  0.25117052  1
  O  O353  1  0.61968358  0.26160664  0.74182091  1
  O  O354  1  0.59297250  0.73705910  0.24928512  1
  O  O355  1  0.61562774  0.74705304  0.76219960  1
  O  O356  1  0.37126301  0.25603042  0.24095589  1
  O  O357  1  0.39963466  0.25774920  0.73143979  1
  O  O358  1  0.37823921  0.73267727  0.25717842  1
  O  O359  1  0.38798466  0.75572060  0.74276684  1
  O  O360  1  0.88923357  0.24771855  0.24166626  1
  O  O361  1  0.88646518  0.28739875  0.71770521  1
  O  O362  1  0.88988781  0.73806064  0.25252516  1
  O  O363  1  0.89200511  0.71799463  0.79191584  1
  O  O364  1  0.37569652  0.48461922  0.48302643  1
  O  O365  1  0.38106382  0.49126251  0.99594152  1
  O  O366  1  0.39965698  1.00130281  0.50613970  1
  O  O367  1  0.37804104  0.99871508  1.01369219  1
  O  O368  1  0.86370421  0.51382266  0.48708669  1
  O  O369  1  0.89618825  0.49254751  1.00614633  1
  O  O370  1  0.88169534  0.99808531  0.48532224  1
  O  O371  1  0.89678219  1.00999604  1.00335773  1
  O  O372  1  0.11870432  0.00409107  0.01987504  1
  O  O373  1  0.09176036  -0.00863348  0.54858330  1
  O  O374  1  0.10971964  0.50165145  0.00446773  1
  O  O375  1  0.17268586  0.52951008  0.50150849  1
  O  O376  1  0.64715712  -0.01480976  0.01489041  1
  O  O377  1  0.61612043  0.01562134  0.48726082  1
  O  O378  1  0.60802929  0.50221315  0.00148585  1
  O  O379  1  0.61680960  0.50588296  0.50764541  1
  O  O380  1  0.36396040  0.37102688  0.11749562  1
  O  O381  1  0.38899457  0.35799418  0.60706876  1
  O  O382  1  0.35838450  0.87556650  0.13294627  1
  O  O383  1  0.38443606  0.86492050  0.61390784  1
  O  O384  1  0.87210537  0.37060892  0.11657728  1
  O  O385  1  0.85409659  0.38280859  0.60053698  1
  O  O386  1  0.87995355  0.87741925  0.13276728  1
  O  O387  1  0.79108134  0.94190162  0.63767985  1
  O  O388  1  0.06681404  0.15492426  0.41812152  1
  O  O389  1  0.14241145  0.10323086  0.90590096  1
  O  O390  1  0.12100466  0.64147619  0.37591986  1
  O  O391  1  0.13884909  0.61571649  0.85552288  1
  O  O392  1  0.63804084  0.12888723  0.37975260  1
  O  O393  1  0.65463161  0.12201936  0.86647195  1
  O  O394  1  0.63441001  0.62302126  0.36733721  1
  O  O395  1  0.62221422  0.62419455  0.88682481  1
