# generated using pymatgen
data_V35Zn35O128
_symmetry_space_group_name_H-M   'P 1'
_cell_length_a   16.92760993
_cell_length_b   16.89163332
_cell_length_c   16.85537532
_cell_angle_alpha   89.81385349
_cell_angle_beta   89.90370509
_cell_angle_gamma   89.42521360
_symmetry_Int_Tables_number   1
_chemical_formula_structural   V35Zn35O128
_chemical_formula_sum   'V70 Zn70 O256'
_cell_volume   4819.26690776
_cell_formula_units_Z   2
loop_
 _symmetry_equiv_pos_site_id
 _symmetry_equiv_pos_as_xyz
  1  'x, y, z'
loop_
 _atom_site_type_symbol
 _atom_site_label
 _atom_site_symmetry_multiplicity
 _atom_site_fract_x
 _atom_site_fract_y
 _atom_site_fract_z
 _atom_site_occupancy
  V  V0  1  0.63171224  0.63245478  0.49625482  1
  V  V1  1  0.63088573  0.73763238  0.85273522  1
  V  V2  1  0.25580881  -0.00111334  0.75361854  1
  V  V3  1  0.49384780  0.74327511  0.74820673  1
  V  V4  1  0.76732725  0.12422110  0.87296391  1
  V  V5  1  0.73681638  0.75721554  -0.00331206  1
  V  V6  1  0.00810384  0.11952761  0.11996476  1
  V  V7  1  -0.03919099  0.92884810  0.92351224  1
  V  V8  1  0.73973175  0.51299530  0.26130147  1
  V  V9  1  0.49519916  0.00049595  0.49779912  1
  V  V10  1  0.61144394  0.49085523  0.12068312  1
  V  V11  1  0.02943658  0.74859700  0.77826962  1
  V  V12  1  0.18295663  0.58068606  0.56599601  1
  V  V13  1  0.25447687  0.13084267  0.37423711  1
  V  V14  1  0.49652002  0.63235517  0.12448411  1
  V  V15  1  0.62603625  0.36137468  0.73683177  1
  V  V16  1  -0.00421645  0.36366309  0.85512405  1
  V  V17  1  0.52311249  0.37942781  0.88818197  1
  V  V18  1  0.24172417  0.86536538  0.63064382  1
  V  V19  1  0.37440174  0.62447836  0.24459370  1
  V  V20  1  0.36915266  0.62462860  0.76123596  1
  V  V21  1  0.24814819  0.48765699  0.25075414  1
  V  V22  1  0.00053940  0.62902354  0.62350038  1
  V  V23  1  0.76397882  0.36884444  0.61573770  1
  V  V24  1  0.73766586  0.50456446  0.74011178  1
  V  V25  1  -0.00790523  0.49520161  0.51266781  1
  V  V26  1  0.61495013  0.61087499  -0.02038064  1
  V  V27  1  0.26450391  0.76051784  0.00210421  1
  V  V28  1  0.88310754  0.24939578  0.13189034  1
  V  V29  1  0.62740540  0.02067476  0.62784756  1
  V  V30  1  0.75142612  0.24879953  -0.00458405  1
  V  V31  1  0.12254504  0.74289299  0.36102218  1
  V  V32  1  -0.05309255  0.56102473  0.04285911  1
  V  V33  1  0.62415938  0.13887502  0.47835411  1
  V  V34  1  0.50201516  0.36065971  0.37484931  1
  V  V35  1  0.11848193  0.00166303  0.63332320  1
  V  V36  1  0.12945417  0.50388935  0.09788281  1
  V  V37  1  0.24180797  0.75947058  0.48844337  1
  V  V38  1  0.27085515  0.88306866  0.12562615  1
  V  V39  1  0.27101834  0.00377762  0.26090926  1
  V  V40  1  0.11243171  0.88733008  0.24889538  1
  V  V41  1  0.12117324  0.22947835  0.88423875  1
  V  V42  1  -0.00132175  0.87503732  0.37707236  1
  V  V43  1  0.86852694  0.11405235  0.25378071  1
  V  V44  1  0.76734037  0.25132761  0.48548359  1
  V  V45  1  0.58228337  0.91525156  0.76567715  1
  V  V46  1  0.86961863  0.50678623  0.86417364  1
  V  V47  1  0.47814953  0.25161295  0.74281783  1
  V  V48  1  0.86724833  0.01177420  0.37730324  1
  V  V49  1  0.00296748  0.00984610  0.50413711  1
  V  V50  1  0.76932060  -0.00018516  0.75246344  1
  V  V51  1  0.38145919  0.49449191  0.36890141  1
  V  V52  1  0.37185385  0.36671333  0.51939021  1
  V  V53  1  0.26400911  0.10791318  0.88947365  1
  V  V54  1  0.38548968  0.75310087  0.60530456  1
  V  V55  1  0.49246193  0.12321841  0.11123430  1
  V  V56  1  0.63240116  0.11428960  0.00163770  1
  V  V57  1  0.62675604  0.35853149  0.25384017  1
  V  V58  1  0.25718114  0.36744717  0.10639393  1
  V  V59  1  0.88567038  0.37368022  0.00035168  1
  V  V60  1  0.90990953  0.51143186  0.33939180  1
  V  V61  1  0.87251734  0.75647824  0.63290895  1
  V  V62  1  0.75282758  0.37445027  0.13102576  1
  V  V63  1  0.15245836  0.38261223  0.75593620  1
  V  V64  1  0.88882647  0.14548893  0.72543270  1
  V  V65  1  0.50388924  0.49941991  0.51339697  1
  V  V66  1  0.75311508  0.75420115  0.48279057  1
  V  V67  1  0.48006863  0.24398988  0.24027738  1
  V  V68  1  0.00668532  0.25883646  0.26640751  1
  V  V69  1  0.13167841  0.01184116  0.11760825  1
  Zn  Zn70  1  0.74481177  0.87446152  0.63233590  1
  Zn  Zn71  1  0.86692208  0.63165260  0.75338616  1
  Zn  Zn72  1  0.26326879  0.24727347  0.49880812  1
  Zn  Zn73  1  0.11030608  0.67108679  0.94872544  1
  Zn  Zn74  1  0.87404547  0.87841221  0.50190470  1
  Zn  Zn75  1  0.12458258  0.13833417  0.50281523  1
  Zn  Zn76  1  0.18793635  0.19382021  0.20047334  1
  Zn  Zn77  1  0.17041310  0.18316479  0.70470519  1
  Zn  Zn78  1  0.15694065  0.71006104  0.14551829  1
  Zn  Zn79  1  0.16624410  0.62400507  0.74975324  1
  Zn  Zn80  1  0.68927494  0.18071001  0.18368356  1
  Zn  Zn81  1  0.70343229  0.19171795  0.68423540  1
  Zn  Zn82  1  0.69035784  0.68060943  0.16969400  1
  Zn  Zn83  1  0.68212414  0.68083716  0.66884718  1
  Zn  Zn84  1  0.31212082  0.31199592  0.31095963  1
  Zn  Zn85  1  0.30424434  0.29647630  0.82871966  1
  Zn  Zn86  1  0.30887384  0.80683421  0.30014084  1
  Zn  Zn87  1  0.23833742  0.77348797  0.79851071  1
  Zn  Zn88  1  0.83303084  0.32673788  0.31995769  1
  Zn  Zn89  1  0.81150298  0.31536031  0.80778879  1
  Zn  Zn90  1  0.80633128  0.83753138  0.30425285  1
  Zn  Zn91  1  0.81272007  0.81672072  0.82583166  1
  Zn  Zn92  1  0.20448329  0.44722222  0.44869573  1
  Zn  Zn93  1  0.19180192  0.43534636  0.92218321  1
  Zn  Zn94  1  0.18525342  0.94103545  0.43503717  1
  Zn  Zn95  1  0.18004282  0.91752593  0.92995596  1
  Zn  Zn96  1  0.68138700  0.43436062  0.43964870  1
  Zn  Zn97  1  0.69344067  0.43335183  0.93302466  1
  Zn  Zn98  1  0.68758870  0.94466809  0.44992083  1
  Zn  Zn99  1  0.62815580  0.91061923  0.95184519  1
  Zn  Zn100  1  0.30177376  0.19286808  0.05330438  1
  Zn  Zn101  1  0.30537944  0.06447564  0.56344078  1
  Zn  Zn102  1  0.29677939  0.57695222  0.06945262  1
  Zn  Zn103  1  0.34853273  0.57671727  0.55561315  1
  Zn  Zn104  1  0.83148889  0.04700513  0.05343726  1
  Zn  Zn105  1  0.81112967  0.07101487  0.55984758  1
  Zn  Zn106  1  0.78668497  0.56149965  0.05687456  1
  Zn  Zn107  1  0.81131854  0.56651957  0.56298964  1
  Zn  Zn108  1  0.43225901  0.42419415  0.18046637  1
  Zn  Zn109  1  0.43293646  0.44019347  0.70010491  1
  Zn  Zn110  1  0.45806652  0.92640688  0.06653018  1
  Zn  Zn111  1  0.42769766  0.94414396  0.66099109  1
  Zn  Zn112  1  0.94819580  0.44561953  0.18717890  1
  Zn  Zn113  1  0.93674956  0.43707357  0.68122399  1
  Zn  Zn114  1  0.87543110  0.88074019  0.10558987  1
  Zn  Zn115  1  0.94880028  0.93590447  0.71054232  1
  Zn  Zn116  1  0.06222138  0.07576008  0.31640244  1
  Zn  Zn117  1  0.05065421  0.05976008  0.80737968  1
  Zn  Zn118  1  0.07480983  0.54904894  0.32225696  1
  Zn  Zn119  1  0.04625713  0.55230207  0.81735621  1
  Zn  Zn120  1  0.53221833  0.07282343  0.31939275  1
  Zn  Zn121  1  0.58334511  0.08732251  0.81037452  1
  Zn  Zn122  1  0.55992336  0.56128901  0.31704670  1
  Zn  Zn123  1  0.54417750  0.55250701  0.80059695  1
  Zn  Zn124  1  0.43887029  0.18104057  0.44089488  1
  Zn  Zn125  1  0.45825567  0.17680628  0.90529596  1
  Zn  Zn126  1  0.45485981  0.67875470  0.42457092  1
  Zn  Zn127  1  0.44146916  0.69792058  0.93728684  1
  Zn  Zn128  1  0.97648416  0.23391604  0.47943615  1
  Zn  Zn129  1  0.94017588  0.18578898  0.93849038  1
  Zn  Zn130  1  0.93873816  0.68256665  0.43779385  1
  Zn  Zn131  1  0.93834082  0.75450160  0.96522993  1
  Zn  Zn132  1  0.07193626  0.31271708  0.06927839  1
  Zn  Zn133  1  0.10119633  0.33471423  0.58051295  1
  Zn  Zn134  1  0.06912271  0.84114801  0.04589869  1
  Zn  Zn135  1  0.06263566  0.81234993  0.56020030  1
  Zn  Zn136  1  0.56561731  0.30564699  0.06290288  1
  Zn  Zn137  1  0.56057621  0.30572295  0.56704221  1
  Zn  Zn138  1  0.58351562  0.79160073  0.07196327  1
  Zn  Zn139  1  0.57594839  0.82348050  0.57238924  1
  O  O140  1  0.11927262  0.12066832  0.13704604  1
  O  O141  1  0.12908574  0.10512319  0.62538685  1
  O  O142  1  0.12922143  0.59925625  0.13617953  1
  O  O143  1  0.11759867  0.62777000  0.63774529  1
  O  O144  1  0.62256428  0.12891033  0.10798309  1
  O  O145  1  0.63416298  0.12246616  0.62310258  1
  O  O146  1  0.60790298  0.60908416  0.11672740  1
  O  O147  1  0.60742488  0.63263954  0.59404108  1
  O  O148  1  0.38786698  0.37661359  0.37544960  1
  O  O149  1  0.35765134  0.31933413  0.93697820  1
  O  O150  1  0.41116883  0.84053375  0.36579292  1
  O  O151  1  0.40193309  0.91693022  0.89673352  1
  O  O152  1  0.88027927  0.41698099  0.36873883  1
  O  O153  1  0.88160006  0.37404054  0.88148184  1
  O  O154  1  0.88440252  0.88863062  0.37408216  1
  O  O155  1  0.89561113  0.85300568  0.89261419  1
  O  O156  1  0.25414074  0.00201237  0.36752480  1
  O  O157  1  0.23883495  -0.00444977  0.86437626  1
  O  O158  1  0.26762315  0.48932750  0.36195094  1
  O  O159  1  0.30750718  0.49866515  0.91248512  1
  O  O160  1  0.76954547  0.00191332  0.39110984  1
  O  O161  1  0.76219522  0.01164424  0.85599636  1
  O  O162  1  0.73011653  0.50307654  0.36127654  1
  O  O163  1  0.76136018  0.48784971  0.85700146  1
  O  O164  1  0.24345393  0.48919313  0.12632456  1
  O  O165  1  0.25050628  0.52744802  0.61557684  1
  O  O166  1  0.23982967  0.99629327  0.14624327  1
  O  O167  1  0.23871695  0.98770508  0.63068073  1
  O  O168  1  0.73417234  0.48804840  0.12881264  1
  O  O169  1  0.75393650  0.48846692  0.63270441  1
  O  O170  1  0.80433954  0.96206026  0.11916934  1
  O  O171  1  0.74357899  1.00066401  0.62646721  1
  O  O172  1  -0.01016101  0.35708928  0.24465126  1
  O  O173  1  -0.00498925  0.36657892  0.75418959  1
  O  O174  1  0.01165233  0.88177142  0.26088404  1
  O  O175  1  -0.00133688  0.83919508  0.74724109  1
  O  O176  1  0.50576818  0.35898952  0.25245352  1
  O  O177  1  0.51621614  0.36625796  0.74134871  1
  O  O178  1  0.51373006  0.91895533  0.25758819  1
  O  O179  1  0.49923447  0.86177881  0.73291075  1
  O  O180  1  0.50246762  0.13621190  0.23021814  1
  O  O181  1  0.49714300  0.15614767  0.78609086  1
  O  O182  1  0.49322575  0.61266338  0.23313288  1
  O  O183  1  0.48913155  0.63552198  0.73859710  1
  O  O184  1  0.98972833  0.13559962  0.24411204  1
  O  O185  1  0.98828834  0.13037621  0.74129264  1
  O  O186  1  0.98040976  0.53133608  0.26221993  1
  O  O187  1  0.99654611  0.64468095  0.74362127  1
  O  O188  1  0.37780923  0.25525391  -0.02265481  1
  O  O189  1  0.38508152  0.26374004  0.50191828  1
  O  O190  1  0.36501581  0.76647261  -0.01054528  1
  O  O191  1  0.36569661  0.74185505  0.50185276  1
  O  O192  1  0.87146468  0.25529245  0.01287819  1
  O  O193  1  0.86546111  0.24726259  0.49835317  1
  O  O194  1  0.83362155  0.73407921  0.00758390  1
  O  O195  1  0.86456661  0.74735995  0.50679553  1
  O  O196  1  0.12229817  0.31336431  0.40497089  1
  O  O197  1  0.12190578  0.25310224  0.98249605  1
  O  O198  1  0.13505037  0.75251711  0.48443818  1
  O  O199  1  0.12975801  0.74498447  1.03473442  1
  O  O200  1  0.62351249  0.24187812  0.49223733  1
  O  O201  1  0.65001111  0.24689642  1.00581815  1
  O  O202  1  0.64345085  0.74950691  0.50112699  1
  O  O203  1  0.61922161  0.73133965  0.96787807  1
  O  O204  1  0.50370524  0.24766069  0.13556654  1
  O  O205  1  0.50081830  0.24424299  0.64415164  1
  O  O206  1  0.49953260  0.73151672  0.12464229  1
  O  O207  1  0.48901238  0.75813041  0.61797865  1
  O  O208  1  0.99606691  0.24464774  0.13297511  1
  O  O209  1  1.07739115  0.24032030  0.53028461  1
  O  O210  1  0.96921831  0.73027433  0.18319704  1
  O  O211  1  0.98773836  0.74189104  0.61674245  1
  O  O212  1  -0.01712943  0.25090910  0.36514257  1
  O  O213  1  0.00491874  0.25791924  0.87530930  1
  O  O214  1  0.01303293  0.75882550  0.38091533  1
  O  O215  1  0.01922815  0.73966502  0.88008744  1
  O  O216  1  0.49264264  0.25044939  0.35635006  1
  O  O217  1  0.48871845  0.28389135  0.86114065  1
  O  O218  1  0.46838603  0.79011730  0.37266940  1
  O  O219  1  0.51061497  0.74886851  0.85297861  1
  O  O220  1  0.24373706  0.13219553  0.49404002  1
  O  O221  1  0.25182940  0.11167046  0.98942413  1
  O  O222  1  0.24599398  0.64091549  0.50622233  1
  O  O223  1  0.25332820  0.65790062  1.00169359  1
  O  O224  1  0.73873527  0.14322696  0.49694804  1
  O  O225  1  0.75830487  0.13246528  0.99982110  1
  O  O226  1  0.73916882  0.63288818  0.49488088  1
  O  O227  1  0.71852146  0.63230998  1.00180115  1
  O  O228  1  0.24159332  0.37223214  0.00647818  1
  O  O229  1  0.26468356  0.36462321  0.50042823  1
  O  O230  1  0.24856356  0.88831488  0.02459666  1
  O  O231  1  0.24840934  0.86453452  0.50153342  1
  O  O232  1  0.76069010  0.36659291  0.00734517  1
  O  O233  1  0.74481567  0.36908076  0.50853684  1
  O  O234  1  0.72966515  0.85557413  -0.02583814  1
  O  O235  1  0.75172707  0.86362525  0.50643518  1
  O  O236  1  0.14887725  0.49304512  0.25786011  1
  O  O237  1  0.11524695  0.47790749  0.74997274  1
  O  O238  1  0.12754644  0.99164322  0.25474676  1
  O  O239  1  0.12456016  0.99306435  0.73669410  1
  O  O240  1  0.62605750  0.48575801  0.24126038  1
  O  O241  1  0.63525713  0.49136254  0.74834552  1
  O  O242  1  0.56364856  0.97140243  0.24613507  1
  O  O243  1  0.65081776  1.01212027  0.74172755  1
  O  O244  1  0.36621680  0.00213695  0.25200259  1
  O  O245  1  0.35400652  -0.00712892  0.73948746  1
  O  O246  1  0.37716125  0.49413954  0.25556103  1
  O  O247  1  0.36900328  0.52573493  0.73843419  1
  O  O248  1  0.87976169  0.00916358  0.26616000  1
  O  O249  1  0.86829823  0.01937563  0.72769436  1
  O  O250  1  0.84277866  0.49977188  0.24463032  1
  O  O251  1  0.86496438  0.49978480  0.75422556  1
  O  O252  1  0.12538440  0.38184831  0.37589868  1
  O  O253  1  0.10044174  0.37538057  0.87328348  1
  O  O254  1  0.11788759  0.87109602  0.36566542  1
  O  O255  1  0.06490846  0.90207698  0.94212613  1
  O  O256  1  0.61065940  0.37491290  0.36665555  1
  O  O257  1  0.62582905  0.37758041  0.85914311  1
  O  O258  1  0.65021895  0.88894283  0.35087046  1
  O  O259  1  0.62754028  0.85800898  0.84140470  1
  O  O260  1  0.39563441  0.14112471  0.09546062  1
  O  O261  1  0.32414032  0.16309968  0.63603881  1
  O  O262  1  0.39037430  0.60894760  0.12817434  1
  O  O263  1  0.36583892  0.65451046  0.63815719  1
  O  O264  1  0.88932999  0.12994106  0.13359060  1
  O  O265  1  0.87440027  0.13889265  0.62530737  1
  O  O266  1  0.88333262  0.60214163  0.10814605  1
  O  O267  1  0.88470546  0.63616122  0.62841717  1
  O  O268  1  0.24188755  0.26003352  0.12373070  1
  O  O269  1  0.26610730  0.21607178  0.63007683  1
  O  O270  1  0.25687583  0.77442268  0.12095279  1
  O  O271  1  0.24740787  0.76263392  0.60943311  1
  O  O272  1  0.76309116  0.25774534  0.11974331  1
  O  O273  1  0.74946425  0.26383673  0.60971108  1
  O  O274  1  0.69463724  0.76561152  0.09965243  1
  O  O275  1  0.76233145  0.74928007  0.61727023  1
  O  O276  1  0.25144652  0.23815316  0.37268075  1
  O  O277  1  0.23451031  0.21543459  0.87329595  1
  O  O278  1  0.23917741  0.75709708  0.37995689  1
  O  O279  1  0.22382412  0.79894332  0.90835951  1
  O  O280  1  0.75802114  0.26967196  0.38625869  1
  O  O281  1  0.76308782  0.24777715  0.89178452  1
  O  O282  1  0.76375525  0.75919321  0.38364365  1
  O  O283  1  0.73594726  0.74008551  0.87007669  1
  O  O284  1  0.00051153  0.13399382  0.02099580  1
  O  O285  1  -0.00272613  0.10903786  0.49994428  1
  O  O286  1  -0.00603792  0.63482628  -0.00570009  1
  O  O287  1  0.00517186  0.61856500  0.51789286  1
  O  O288  1  0.52458380  0.13936548  -0.00403013  1
  O  O289  1  0.51838479  0.12000026  0.50159247  1
  O  O290  1  0.50857961  0.62530389  0.00668527  1
  O  O291  1  0.46444522  0.59681221  0.50876213  1
  O  O292  1  0.49500695  0.37806273  0.49436125  1
  O  O293  1  0.52175776  0.37806456  0.98873488  1
  O  O294  1  0.52035800  0.90189397  0.50879335  1
  O  O295  1  0.53935643  0.87457504  1.01338568  1
  O  O296  1  1.01652605  0.39934318  0.53964304  1
  O  O297  1  0.98649753  0.36770666  0.99813014  1
  O  O298  1  0.99724429  0.88129939  0.48999470  1
  O  O299  1  0.95646493  0.84196309  1.04056270  1
  O  O300  1  0.49451568  0.48296672  0.37998716  1
  O  O301  1  0.48610436  0.47061570  0.85614588  1
  O  O302  1  0.48251398  1.00737175  0.39761865  1
  O  O303  1  0.53351574  0.98202420  0.82491971  1
  O  O304  1  1.00767893  0.50200575  0.40709158  1
  O  O305  1  0.97749599  0.47988753  0.86928942  1
  O  O306  1  0.99633548  0.99522163  0.38854677  1
  O  O307  1  0.97762480  0.97706379  0.83256640  1
  O  O308  1  0.01745158  0.01592306  0.12886043  1
  O  O309  1  0.01014792  -0.01357757  0.61662977  1
  O  O310  1  0.01122204  0.49780796  0.09844756  1
  O  O311  1  -0.00302352  0.52267910  0.63209847  1
  O  O312  1  0.49668359  0.02371847  0.11103728  1
  O  O313  1  0.52645999  0.00625554  0.64370398  1
  O  O314  1  0.51024226  0.48717654  0.12147418  1
  O  O315  1  0.50153417  0.48487063  0.61144564  1
  O  O316  1  0.26048048  0.38323785  0.23456687  1
  O  O317  1  0.24084582  0.39278785  0.81121702  1
  O  O318  1  0.24767247  0.88690700  0.24545970  1
  O  O319  1  0.24391214  0.87577159  0.73656641  1
  O  O320  1  0.74399604  0.37700792  0.24283412  1
  O  O321  1  0.74274784  0.37958591  0.73643907  1
  O  O322  1  0.69791313  0.89372627  0.29023218  1
  O  O323  1  0.77003531  0.89549866  0.75134092  1
  O  O324  1  0.24799149  0.11415789  0.26245957  1
  O  O325  1  0.23881955  0.10215117  0.76146357  1
  O  O326  1  0.27302711  0.59792040  0.23457996  1
  O  O327  1  0.26993042  0.66493446  0.76390494  1
  O  O328  1  0.76989628  0.12444132  0.23954854  1
  O  O329  1  0.76544875  0.12429326  0.75500041  1
  O  O330  1  0.73064630  0.61304739  0.24597191  1
  O  O331  1  0.74621370  0.60784501  0.73625394  1
  O  O332  1  0.35642114  0.12229351  0.38765942  1
  O  O333  1  0.36243977  0.11497007  0.87903844  1
  O  O334  1  0.38918077  0.60765557  0.35593003  1
  O  O335  1  0.39090318  0.63006973  0.86014710  1
  O  O336  1  0.87765002  0.11716258  0.36422936  1
  O  O337  1  0.87127948  0.13087594  0.86757327  1
  O  O338  1  0.88136212  0.60072379  0.38161626  1
  O  O339  1  0.87429316  0.60625136  0.87055046  1
  O  O340  1  0.13309404  0.39473155  0.11928846  1
  O  O341  1  0.17488258  0.36113224  0.65785935  1
  O  O342  1  0.12399658  0.89270670  0.13894006  1
  O  O343  1  0.13566913  0.88182661  0.61649160  1
  O  O344  1  0.63563879  0.37374864  0.13205209  1
  O  O345  1  0.63437038  0.37286464  0.63283678  1
  O  O346  1  0.58122856  0.79439830  0.23660288  1
  O  O347  1  0.63031843  0.89161955  0.65205129  1
  O  O348  1  0.10680727  0.24785139  0.25789045  1
  O  O349  1  0.13141949  0.26692222  0.77333398  1
  O  O350  1  0.13225461  0.76816702  0.25415255  1
  O  O351  1  0.12824255  0.74632796  0.75630291  1
  O  O352  1  0.62826325  0.25708416  0.24673802  1
  O  O353  1  0.63277864  0.26098083  0.74943090  1
  O  O354  1  0.62603589  0.74293447  0.26646777  1
  O  O355  1  0.61231577  0.73374186  0.74325532  1
  O  O356  1  0.38179558  0.24916574  0.23961847  1
  O  O357  1  0.37851379  0.26917531  0.74906214  1
  O  O358  1  0.36753491  0.72377808  0.24892470  1
  O  O359  1  0.39171238  0.75248163  0.74273606  1
  O  O360  1  0.87735314  0.24389574  0.24220044  1
  O  O361  1  0.87159675  0.24420814  0.74467176  1
  O  O362  1  0.90876402  0.73527031  0.22494090  1
  O  O363  1  0.86463698  0.74881299  0.73821335  1
  O  O364  1  0.37966819  0.47992240  0.49037073  1
  O  O365  1  0.34941629  0.51010365  0.97319261  1
  O  O366  1  0.40250079  1.00824212  0.54735289  1
  O  O367  1  0.39314970  0.96074839  0.95490084  1
  O  O368  1  0.89202030  0.49916098  0.51508160  1
  O  O369  1  0.87212910  0.49619782  0.98809607  1
  O  O370  1  0.88624918  1.00077532  0.49555567  1
  O  O371  1  0.91312619  0.99794919  0.98076420  1
  O  O372  1  0.13999952  0.00775909  0.02162693  1
  O  O373  1  0.11271637  -0.00136596  0.50815860  1
  O  O374  1  0.14239942  0.51274185  -0.00152229  1
  O  O375  1  0.13098758  0.51286588  0.50693720  1
  O  O376  1  0.63754521  0.01598880  -0.00533629  1
  O  O377  1  0.62223851  0.01673855  0.51221290  1
  O  O378  1  0.63021931  0.50558340  0.00141512  1
  O  O379  1  0.60948964  0.51556865  0.49093640  1
  O  O380  1  0.35831257  0.37722718  0.10970905  1
  O  O381  1  0.37675731  0.37865142  0.61747585  1
  O  O382  1  0.36995970  0.89037181  0.12702449  1
  O  O383  1  0.35768588  0.85943843  0.62175225  1
  O  O384  1  0.87015408  0.37224813  0.12040018  1
  O  O385  1  0.86287211  0.37215344  0.62477763  1
  O  O386  1  0.84933622  0.80599925  0.20242935  1
  O  O387  1  0.87783523  0.86139403  0.62442374  1
  O  O388  1  0.14139024  0.11862467  0.38504487  1
  O  O389  1  0.10837543  0.12850384  0.87750139  1
  O  O390  1  0.12207090  0.64412049  0.35810715  1
  O  O391  1  0.13437732  0.60473708  0.85998264  1
  O  O392  1  0.62179879  0.11912121  0.37949839  1
  O  O393  1  0.65330231  0.13178730  0.88962935  1
  O  O394  1  0.57334240  0.64277546  0.40409467  1
  O  O395  1  0.61207141  0.61612670  0.87461729  1
