# generated using pymatgen
data_V35Zn35O128
_symmetry_space_group_name_H-M   'P 1'
_cell_length_a   16.88354530
_cell_length_b   16.92577038
_cell_length_c   16.86112531
_cell_angle_alpha   89.77129543
_cell_angle_beta   89.98305416
_cell_angle_gamma   90.19478044
_symmetry_Int_Tables_number   1
_chemical_formula_structural   V35Zn35O128
_chemical_formula_sum   'V70 Zn70 O256'
_cell_volume   4818.28692176
_cell_formula_units_Z   2
loop_
 _symmetry_equiv_pos_site_id
 _symmetry_equiv_pos_as_xyz
  1  'x, y, z'
loop_
 _atom_site_type_symbol
 _atom_site_label
 _atom_site_symmetry_multiplicity
 _atom_site_fract_x
 _atom_site_fract_y
 _atom_site_fract_z
 _atom_site_occupancy
  V  V0  1  0.86962096  0.62272598  0.26034172  1
  V  V1  1  0.47812276  0.11841327  0.14089245  1
  V  V2  1  0.49968899  0.49479624  0.48662403  1
  V  V3  1  0.89034273  0.74854439  0.12324497  1
  V  V4  1  0.25689167  0.11914869  0.37218438  1
  V  V5  1  0.13663543  0.74723841  0.39408763  1
  V  V6  1  -0.01622065  0.87701294  0.37838567  1
  V  V7  1  0.26032419  0.00057948  0.25213572  1
  V  V8  1  0.63131644  0.49003925  0.63056498  1
  V  V9  1  0.75626760  0.48836946  0.74898389  1
  V  V10  1  0.37785966  0.87376644  -0.00318729  1
  V  V11  1  0.50103515  0.61568095  0.11676972  1
  V  V12  1  0.25658673  0.51236028  0.75000251  1
  V  V13  1  0.12415014  0.51799460  0.62442472  1
  V  V14  1  0.87231482  0.26605436  0.62308683  1
  V  V15  1  0.49572341  0.62429486  0.63094556  1
  V  V16  1  0.24528494  0.74375059  -0.00036488  1
  V  V17  1  0.62228917  0.86951630  0.26121780  1
  V  V18  1  0.62780787  0.75094664  0.87403725  1
  V  V19  1  0.12279553  0.74245929  0.87465037  1
  V  V20  1  0.75701282  0.63167737  0.86903303  1
  V  V21  1  0.49145097  0.74625491  0.74612877  1
  V  V22  1  0.73960240  0.14189781  0.87519538  1
  V  V23  1  0.26512203  0.62726192  0.87020430  1
  V  V24  1  0.13008769  0.88767809  0.74248863  1
  V  V25  1  0.01029470  0.60560035  0.11486584  1
  V  V26  1  0.11474645  -0.00407249  0.11586721  1
  V  V27  1  0.75081680  0.75113982  0.48462958  1
  V  V28  1  0.50287969  0.00673194  -0.00420020  1
  V  V29  1  0.59205968  0.37993981  0.24368713  1
  V  V30  1  0.62655018  0.00571909  0.61892996  1
  V  V31  1  0.75178398  -0.00507978  0.75819757  1
  V  V32  1  0.87034221  0.75235443  0.62517594  1
  V  V33  1  0.50894983  0.87331193  0.86709196  1
  V  V34  1  -0.00957942  0.49447168  0.49102117  1
  V  V35  1  -0.00517634  0.63070982  0.61834942  1
  V  V36  1  0.37652488  0.85532256  0.49866840  1
  V  V37  1  0.12478559  0.24107939  0.88177236  1
  V  V38  1  0.63255027  0.62753884  0.49207273  1
  V  V39  1  0.24023375  0.25582151  0.48971467  1
  V  V40  1  0.49095191  0.00794731  0.49932236  1
  V  V41  1  0.75105435  0.25527457  0.48470548  1
  V  V42  1  0.37961556  0.24748402  0.63654173  1
  V  V43  1  0.26099853  0.87464639  0.62465249  1
  V  V44  1  0.87970183  0.50115397  0.88518242  1
  V  V45  1  0.01070462  0.38392813  0.87791641  1
  V  V46  1  0.00345046  0.36043845  0.35942885  1
  V  V47  1  0.76180406  0.00191196  0.25918589  1
  V  V48  1  0.73999888  0.85650712  0.11708795  1
  V  V49  1  -0.00121716  0.14325705  0.11505353  1
  V  V50  1  0.62882193  0.61418925  0.00076309  1
  V  V51  1  0.75196748  0.48583793  0.24700275  1
  V  V52  1  0.74635335  0.87341754  0.62423235  1
  V  V53  1  -0.00324898  0.74624342  0.74961868  1
  V  V54  1  0.50165683  0.74060128  0.25631882  1
  V  V55  1  -0.00331499  0.88767585  0.87976336  1
  V  V56  1  0.11906067  0.87212221  0.26105060  1
  V  V57  1  0.88483346  0.14193712  0.25639866  1
  V  V58  1  0.37772817  0.74687173  0.12890437  1
  V  V59  1  0.12537617  0.11256713  0.49411517  1
  V  V60  1  0.00525790  0.12158914  0.62425952  1
  V  V61  1  0.23823563  0.36821820  0.63673971  1
  V  V62  1  0.62916160  0.00499183  0.12571310  1
  V  V63  1  0.87030192  0.36148665  0.01286240  1
  V  V64  1  0.25616461  0.13032928  0.87318905  1
  V  V65  1  0.25057846  0.87506444  0.12772241  1
  V  V66  1  0.36914198  -0.00386762  0.85643579  1
  V  V67  1  -0.02342269  -0.00109434  0.49736670  1
  V  V68  1  0.60130312  0.25377201  0.37300182  1
  V  V69  1  0.88251472  0.12379024  0.75499073  1
  Zn  Zn70  1  0.49370700  0.87974347  0.37645050  1
  Zn  Zn71  1  0.01425839  0.26836687  0.73978694  1
  Zn  Zn72  1  0.49767456  0.13255322  0.63197280  1
  Zn  Zn73  1  0.27606020  0.37964108  0.11191123  1
  Zn  Zn74  1  0.86588296  0.87876303  -0.01204692  1
  Zn  Zn75  1  0.38021546  0.37409144  0.50336636  1
  Zn  Zn76  1  0.17493236  0.17167184  0.18935598  1
  Zn  Zn77  1  0.18344408  0.18084624  0.69728566  1
  Zn  Zn78  1  0.17770444  0.69368072  0.18883831  1
  Zn  Zn79  1  0.18820388  0.69689362  0.68640164  1
  Zn  Zn80  1  0.67217494  0.17474339  0.23086640  1
  Zn  Zn81  1  0.71229975  0.17081458  0.65386194  1
  Zn  Zn82  1  0.68519043  0.67518411  0.19258213  1
  Zn  Zn83  1  0.68158853  0.68375975  0.68807541  1
  Zn  Zn84  1  0.19663707  0.33250819  0.31243580  1
  Zn  Zn85  1  0.30769431  0.31254953  0.80990731  1
  Zn  Zn86  1  0.31183555  0.81086417  0.31586655  1
  Zn  Zn87  1  0.31208876  0.81161048  0.80765363  1
  Zn  Zn88  1  0.82173478  0.32181996  0.31269975  1
  Zn  Zn89  1  0.82250002  0.31199659  0.81082297  1
  Zn  Zn90  1  0.81378155  0.80960017  0.30014050  1
  Zn  Zn91  1  0.81541536  0.81263413  0.80979756  1
  Zn  Zn92  1  0.17331829  0.44096111  0.44929238  1
  Zn  Zn93  1  0.19269407  0.44408476  0.93546628  1
  Zn  Zn94  1  0.19524627  0.93592978  0.44353089  1
  Zn  Zn95  1  0.18607921  0.93062821  0.93311599  1
  Zn  Zn96  1  0.69494384  0.43017380  0.42835565  1
  Zn  Zn97  1  0.69800659  0.44639952  0.95607633  1
  Zn  Zn98  1  0.68750643  0.93639427  0.44006637  1
  Zn  Zn99  1  0.68746979  0.94361424  0.94078526  1
  Zn  Zn100  1  0.30446621  0.05630689  0.05388937  1
  Zn  Zn101  1  0.30963507  0.05897148  0.57362944  1
  Zn  Zn102  1  0.31456452  0.56369692  0.05853397  1
  Zn  Zn103  1  0.31809960  0.55794790  0.56387780  1
  Zn  Zn104  1  0.83478605  0.08204960  0.04326731  1
  Zn  Zn105  1  0.81306618  0.07354216  0.56030574  1
  Zn  Zn106  1  0.81053802  0.56308168  0.06880959  1
  Zn  Zn107  1  0.81414392  0.56460180  0.56256322  1
  Zn  Zn108  1  0.42393623  0.44344460  0.19930364  1
  Zn  Zn109  1  0.43280789  0.43918749  0.68074969  1
  Zn  Zn110  1  0.44178255  0.93452767  0.18630091  1
  Zn  Zn111  1  0.44404151  0.92849647  0.68121803  1
  Zn  Zn112  1  0.94031214  0.43908914  0.19148564  1
  Zn  Zn113  1  0.93993736  0.44726188  0.69496162  1
  Zn  Zn114  1  0.90488793  0.96245032  0.14195991  1
  Zn  Zn115  1  0.93634155  0.93546067  0.68717197  1
  Zn  Zn116  1  0.05793708  0.05824670  0.30857998  1
  Zn  Zn117  1  0.06762072  0.06568689  0.81702833  1
  Zn  Zn118  1  0.04554688  0.58186425  0.31385213  1
  Zn  Zn119  1  0.06652735  0.56333081  0.80679604  1
  Zn  Zn120  1  0.55955708  0.06468211  0.31752062  1
  Zn  Zn121  1  0.57148097  0.05535436  0.80924988  1
  Zn  Zn122  1  0.57354357  0.55930940  0.30879663  1
  Zn  Zn123  1  0.57091075  0.56400916  0.80890623  1
  Zn  Zn124  1  0.42961292  0.18763263  0.44994777  1
  Zn  Zn125  1  0.45057061  0.17885955  0.90581363  1
  Zn  Zn126  1  0.43800317  0.67633112  0.44311327  1
  Zn  Zn127  1  0.44190568  0.68790930  0.93863742  1
  Zn  Zn128  1  0.93715106  0.19592652  0.43615960  1
  Zn  Zn129  1  0.94167345  0.19334966  0.93659926  1
  Zn  Zn130  1  0.94297882  0.69475209  0.44003976  1
  Zn  Zn131  1  0.93625275  0.69409272  0.94538957  1
  Zn  Zn132  1  0.07078536  0.32468042  0.06135196  1
  Zn  Zn133  1  0.05944987  0.31228670  0.55777058  1
  Zn  Zn134  1  0.06491641  0.81611689  0.06273072  1
  Zn  Zn135  1  0.06214651  0.81975283  0.56138928  1
  Zn  Zn136  1  0.48719459  0.32035572  0.09742861  1
  Zn  Zn137  1  0.56762518  0.31148458  0.55244667  1
  Zn  Zn138  1  0.56526937  0.80697502  0.05970687  1
  Zn  Zn139  1  0.56664998  0.81419324  0.56302595  1
  O  O140  1  0.10916415  0.10593406  0.12567291  1
  O  O141  1  0.11319948  0.12890537  0.61641100  1
  O  O142  1  0.10955257  0.62906484  0.12999889  1
  O  O143  1  0.11958065  0.62193262  0.62487354  1
  O  O144  1  0.62200327  0.10400045  0.14380873  1
  O  O145  1  0.61813349  0.10998818  0.63317314  1
  O  O146  1  0.61429281  0.63002015  0.10991376  1
  O  O147  1  0.61843641  0.61424606  0.61848571  1
  O  O148  1  0.29964937  0.40508322  0.34741366  1
  O  O149  1  0.39203843  0.33576770  0.89446366  1
  O  O150  1  0.37702307  0.86924612  0.39209498  1
  O  O151  1  0.38605336  0.87824072  0.87751008  1
  O  O152  1  0.90193484  0.37397298  0.37383089  1
  O  O153  1  0.87973572  0.39058450  0.88224358  1
  O  O154  1  0.88574532  0.87004050  0.36774396  1
  O  O155  1  0.89044191  0.87113929  0.87263801  1
  O  O156  1  0.24745659  0.01284593  0.37048357  1
  O  O157  1  0.26845160  -0.01371241  0.87136375  1
  O  O158  1  0.27471605  0.47106741  0.37846517  1
  O  O159  1  0.24206666  0.51287188  0.85702434  1
  O  O160  1  0.74265887  -0.00738558  0.35784969  1
  O  O161  1  0.74899655  0.00038295  0.86061106  1
  O  O162  1  0.74569024  0.49767095  0.35352649  1
  O  O163  1  0.75748373  0.50844775  0.86802422  1
  O  O164  1  0.27948147  0.50014054  0.15397080  1
  O  O165  1  0.24017445  0.49709500  0.62696372  1
  O  O166  1  0.24021796  0.99393406  0.13236153  1
  O  O167  1  0.24919539  0.97890391  0.62400006  1
  O  O168  1  0.74386217  0.51210812  0.14309074  1
  O  O169  1  0.74386248  0.50511519  0.63692006  1
  O  O170  1  0.73334958  0.98560225  0.13904240  1
  O  O171  1  0.74259290  0.99516778  0.62331061  1
  O  O172  1  0.00813725  0.37629900  0.25796859  1
  O  O173  1  -0.00845217  0.37819693  0.77113145  1
  O  O174  1  0.01569743  0.88610527  0.27078567  1
  O  O175  1  0.00794024  0.86838551  0.75600117  1
  O  O176  1  0.49605552  0.39527633  0.27297419  1
  O  O177  1  0.49471960  0.41239187  0.78590161  1
  O  O178  1  0.50669932  0.86335855  0.25282774  1
  O  O179  1  0.50272565  0.85975102  0.75624458  1
  O  O180  1  0.48475637  0.10834218  0.24081131  1
  O  O181  1  0.50176678  0.13694363  0.75659863  1
  O  O182  1  0.51362194  0.63582004  0.23536546  1
  O  O183  1  0.50347330  0.63189900  0.74203398  1
  O  O184  1  0.99389988  0.12300566  0.23810461  1
  O  O185  1  0.99223364  0.11474667  0.74156857  1
  O  O186  1  0.98057302  0.61904791  0.22925164  1
  O  O187  1  1.00757561  0.63874318  0.73635851  1
  O  O188  1  0.39971157  0.27953364  -0.05188769  1
  O  O189  1  0.35477274  0.25638073  0.50773150  1
  O  O190  1  0.37013390  0.75869721  0.00438687  1
  O  O191  1  0.38521325  0.75687424  0.50579807  1
  O  O192  1  0.87398859  0.26174589  -0.00381573  1
  O  O193  1  0.86717121  0.24756453  0.51478336  1
  O  O194  1  0.87409447  0.76196417  0.01774412  1
  O  O195  1  0.85767474  0.74357431  0.50910362  1
  O  O196  1  0.13795370  0.23934499  0.50864911  1
  O  O197  1  0.13635445  0.27309195  0.97791813  1
  O  O198  1  0.13241912  0.76235800  0.49452175  1
  O  O199  1  0.13877850  0.76001395  0.99064150  1
  O  O200  1  0.63320147  0.25021056  0.47978370  1
  O  O201  1  0.68776444  0.25175739  1.05812061  1
  O  O202  1  0.63569254  0.73759394  0.50617736  1
  O  O203  1  0.61723918  0.73748227  0.98271526  1
  O  O204  1  0.50527681  0.21127136  0.11132888  1
  O  O205  1  0.48370378  0.25445871  0.61316689  1
  O  O206  1  0.49336690  0.74476209  0.13107407  1
  O  O207  1  0.51190270  0.73883658  0.63802103  1
  O  O208  1  1.01256029  0.24172089  0.11855291  1
  O  O209  1  0.99600095  0.24033518  0.62404939  1
  O  O210  1  0.99014042  0.75998759  0.13070596  1
  O  O211  1  0.99184839  0.74914064  0.62658326  1
  O  O212  1  0.01287031  0.26046335  0.37958172  1
  O  O213  1  0.01332244  0.26409825  0.87479387  1
  O  O214  1  0.01152583  0.77620231  0.39160195  1
  O  O215  1  0.00570530  0.74972479  0.86612519  1
  O  O216  1  0.50231967  0.25035358  0.38772786  1
  O  O217  1  0.52257900  0.24523066  0.83773689  1
  O  O218  1  0.48901509  0.73690845  0.35759295  1
  O  O219  1  0.50512675  0.75444709  0.86538315  1
  O  O220  1  0.24070967  0.13090504  0.49446123  1
  O  O221  1  0.24475206  0.10606169  0.97341233  1
  O  O222  1  0.27959893  0.61443824  0.46403323  1
  O  O223  1  0.25459312  0.63713334  0.99090172  1
  O  O224  1  0.74143198  0.15662535  0.53483662  1
  O  O225  1  0.76026850  0.12303099  0.97391415  1
  O  O226  1  0.74062992  0.63477569  0.50500769  1
  O  O227  1  0.73628257  0.61939529  0.98876697  1
  O  O228  1  0.29152555  0.41344252  -0.00535687  1
  O  O229  1  0.24593096  0.36372184  0.50920481  1
  O  O230  1  0.26081841  0.86504905  0.00408836  1
  O  O231  1  0.26807406  0.87621359  0.50856486  1
  O  O232  1  0.76883037  0.37864052  0.00261524  1
  O  O233  1  0.74427395  0.35569252  0.50274265  1
  O  O234  1  0.74374031  0.87506047  0.01473110  1
  O  O235  1  0.74198661  0.85802050  0.50787504  1
  O  O236  1  0.16555843  0.54235320  0.26999197  1
  O  O237  1  0.13534350  0.50420518  0.73264905  1
  O  O238  1  0.13639392  0.98998637  0.24559532  1
  O  O239  1  0.12255202  0.98531249  0.75715850  1
  O  O240  1  0.63226043  0.48246599  0.25081680  1
  O  O241  1  0.63844553  0.50117636  0.73945765  1
  O  O242  1  0.61943584  0.98274988  0.24310451  1
  O  O243  1  0.64376333  0.99907283  0.73764188  1
  O  O244  1  0.35993611  -0.01095513  0.24549610  1
  O  O245  1  0.38424031  -0.00906870  0.75814577  1
  O  O246  1  0.32873907  0.50961037  0.21776871  1
  O  O247  1  0.35529593  0.50291441  0.73868203  1
  O  O248  1  0.86111814  -0.01321758  0.24747876  1
  O  O249  1  0.86392823  0.01296420  0.73898324  1
  O  O250  1  0.86527551  0.51240056  0.24541098  1
  O  O251  1  0.86236506  0.50481008  0.76033022  1
  O  O252  1  0.11883555  0.38564778  0.36977396  1
  O  O253  1  0.11315303  0.38918589  0.87578268  1
  O  O254  1  0.13106403  0.87248968  0.36999280  1
  O  O255  1  0.11747949  0.86424891  0.86427363  1
  O  O256  1  0.62538542  0.36064672  0.36482850  1
  O  O257  1  0.60516893  0.34905859  0.93439725  1
  O  O258  1  0.61867320  0.87304762  0.36395663  1
  O  O259  1  0.61579803  0.86865218  0.88235496  1
  O  O260  1  0.37960744  0.11079906  0.11821391  1
  O  O261  1  0.37016375  0.14296647  0.62390854  1
  O  O262  1  0.38775391  0.63827601  0.11294300  1
  O  O263  1  0.39637067  0.62208778  0.61900753  1
  O  O264  1  0.89237763  0.11836099  0.13653867  1
  O  O265  1  0.88593570  0.13617316  0.63349124  1
  O  O266  1  0.88218243  0.63852170  0.12263227  1
  O  O267  1  0.88245524  0.63915873  0.62583688  1
  O  O268  1  0.35167545  0.24126164  0.21959214  1
  O  O269  1  0.25136268  0.25984968  0.62840884  1
  O  O270  1  0.25706797  0.75187873  0.12033860  1
  O  O271  1  0.24274386  0.77186786  0.62529062  1
  O  O272  1  0.73075781  0.24280163  0.11623650  1
  O  O273  1  0.77132002  0.26679509  0.64440226  1
  O  O274  1  0.73335593  0.75657339  0.12331826  1
  O  O275  1  0.75434362  0.75660385  0.63060426  1
  O  O276  1  0.24189233  0.24291543  0.38491003  1
  O  O277  1  0.24547831  0.23694104  0.87194549  1
  O  O278  1  0.23625409  0.74661989  0.36965019  1
  O  O279  1  0.24509819  0.74564461  0.87948546  1
  O  O280  1  0.76257167  0.24739782  0.38472639  1
  O  O281  1  0.74867266  0.24087090  0.86132338  1
  O  O282  1  0.75277189  0.75573877  0.38637141  1
  O  O283  1  0.74635832  0.73897425  0.86875655  1
  O  O284  1  -0.01093897  0.12373951  0.01515621  1
  O  O285  1  0.00838012  0.11545322  0.50166951  1
  O  O286  1  -0.00161665  0.63145029  0.01547353  1
  O  O287  1  -0.00303650  0.61910115  0.51298160  1
  O  O288  1  0.49514982  0.10700820  -0.01426753  1
  O  O289  1  0.49384706  0.11117537  0.51019247  1
  O  O290  1  0.50778498  0.62477054  0.00763628  1
  O  O291  1  0.51230373  0.61817924  0.51240519  1
  O  O292  1  0.50334244  0.39049016  0.49477246  1
  O  O293  1  0.53714010  0.35721468  0.96312487  1
  O  O294  1  0.49119822  0.87969248  0.50351614  1
  O  O295  1  0.49398370  0.87822773  0.99024226  1
  O  O296  1  1.00987389  0.39103858  0.49270361  1
  O  O297  1  0.99004643  0.37673081  0.98359403  1
  O  O298  1  0.99519920  0.89251372  0.49607864  1
  O  O299  1  1.00472064  0.86770558  0.98048367  1
  O  O300  1  0.49935504  0.51664171  0.38910136  1
  O  O301  1  0.49879676  0.46907383  0.83751810  1
  O  O302  1  0.50733926  0.99877112  0.39541671  1
  O  O303  1  0.49642968  0.98980256  0.87530478  1
  O  O304  1  1.00435129  0.50525597  0.38998788  1
  O  O305  1  0.98782847  0.50070340  0.86859486  1
  O  O306  1  1.00384107  0.99156602  0.38962940  1
  O  O307  1  1.00472252  0.98634695  0.87366068  1
  O  O308  1  0.01666286  -0.01668036  0.13253359  1
  O  O309  1  -0.01060250  0.00865295  0.60835811  1
  O  O310  1  0.00229962  0.50589177  0.11811453  1
  O  O311  1  0.01027879  0.51076693  0.62594694  1
  O  O312  1  0.50608031  0.00394619  0.11567683  1
  O  O313  1  0.51412338  -0.00229513  0.62171909  1
  O  O314  1  0.48792863  0.51960428  0.13210940  1
  O  O315  1  0.51249990  0.50917769  0.62732001  1
  O  O316  1  0.22127462  0.32353953  0.20118374  1
  O  O317  1  0.24961765  0.38812089  0.74120390  1
  O  O318  1  0.24398153  0.88126275  0.24713498  1
  O  O319  1  0.23878697  0.87221175  0.74339388  1
  O  O320  1  0.75805878  0.38368790  0.24093744  1
  O  O321  1  0.75153935  0.39020118  0.75947956  1
  O  O322  1  0.73268437  0.87572138  0.24387986  1
  O  O323  1  0.75961892  0.88951310  0.74205953  1
  O  O324  1  0.24125031  0.12003141  0.26395106  1
  O  O325  1  0.23016195  0.11000304  0.77496514  1
  O  O326  1  0.21532818  0.59874875  0.26666429  1
  O  O327  1  0.24854947  0.62024210  0.75197350  1
  O  O328  1  0.76846114  0.10858062  0.24231514  1
  O  O329  1  0.76268002  0.11657539  0.75316146  1
  O  O330  1  0.76123548  0.62081145  0.25404327  1
  O  O331  1  0.74518685  0.61777425  0.76600705  1
  O  O332  1  0.35500411  0.12949200  0.38216771  1
  O  O333  1  0.36623854  0.10842561  0.86905959  1
  O  O334  1  0.33520905  0.61938311  0.41042526  1
  O  O335  1  0.36520499  0.62928386  0.87574208  1
  O  O336  1  0.88917735  0.12688370  0.35706092  1
  O  O337  1  0.87660364  0.13047448  0.85749649  1
  O  O338  1  0.88824108  0.63615513  0.35834892  1
  O  O339  1  0.86254015  0.62024231  0.88301474  1
  O  O340  1  0.15307671  0.41154319  0.08532701  1
  O  O341  1  0.13629642  0.38113475  0.62331295  1
  O  O342  1  0.13121407  0.87726385  0.13986780  1
  O  O343  1  0.12481640  0.87747590  0.63910805  1
  O  O344  1  0.58145999  0.37138313  0.14235980  1
  O  O345  1  0.61957516  0.39173625  0.62112544  1
  O  O346  1  0.62623843  0.87776838  0.13246444  1
  O  O347  1  0.63791033  0.88387590  0.62675032  1
  O  O348  1  0.15296028  0.27893573  0.16893478  1
  O  O349  1  0.12561144  0.25180742  0.76898474  1
  O  O350  1  0.12522755  0.76874783  0.25826928  1
  O  O351  1  0.11532681  0.75937066  0.75715820  1
  O  O352  1  0.61529398  0.27116472  0.25675352  1
  O  O353  1  0.54282767  0.21346114  0.76989777  1
  O  O354  1  0.61238379  0.75890663  0.24606070  1
  O  O355  1  0.61566197  0.74278525  0.76615037  1
  O  O356  1  0.39548292  0.25462060  0.27584174  1
  O  O357  1  0.37596062  0.25661450  0.73697928  1
  O  O358  1  0.38636476  0.75559706  0.23841267  1
  O  O359  1  0.39170655  0.74887960  0.75229766  1
  O  O360  1  0.87059364  0.23901715  0.24561320  1
  O  O361  1  0.88826618  0.23846899  0.74257911  1
  O  O362  1  0.86466741  0.73496660  0.23281041  1
  O  O363  1  0.88733691  0.75438846  0.74033023  1
  O  O364  1  0.39414257  0.49271128  0.50754772  1
  O  O365  1  0.34656034  0.47425509  0.98968825  1
  O  O366  1  0.38941881  0.99321256  0.51105522  1
  O  O367  1  0.38314694  0.98523022  0.98984699  1
  O  O368  1  0.89142366  0.50069417  0.51051069  1
  O  O369  1  0.87116952  0.50062062  0.98697450  1
  O  O370  1  0.87774329  1.00866282  0.49245247  1
  O  O371  1  0.87666733  0.98025129  1.03330430  1
  O  O372  1  0.12946146  -0.01703359  0.01714826  1
  O  O373  1  0.12722405  0.01203732  0.50339144  1
  O  O374  1  0.14681017  0.47703601  0.03829231  1
  O  O375  1  0.11567730  0.50764250  0.51801514  1
  O  O376  1  0.61688136  -0.00482685  0.01626386  1
  O  O377  1  0.61850346  -0.00467976  0.51341774  1
  O  O378  1  0.61566160  0.51465731  -0.01078837  1
  O  O379  1  0.62107452  0.50881538  0.50957485  1
  O  O380  1  0.38835934  0.36409957  0.12642381  1
  O  O381  1  0.36069339  0.36711515  0.62339864  1
  O  O382  1  0.37313475  0.86684123  0.11497183  1
  O  O383  1  0.36886809  0.87026814  0.61867163  1
  O  O384  1  0.88898182  0.37581217  0.11039135  1
  O  O385  1  0.89538209  0.36286862  0.63059437  1
  O  O386  1  0.84908108  0.85498149  0.13998665  1
  O  O387  1  0.86350384  0.86423132  0.62472148  1
  O  O388  1  0.12938466  0.12195630  0.38903265  1
  O  O389  1  0.12169712  0.13809916  0.88715633  1
  O  O390  1  0.10533133  0.65213218  0.37886327  1
  O  O391  1  0.13373341  0.63844039  0.86895809  1
  O  O392  1  0.62779430  0.15198461  0.34368810  1
  O  O393  1  0.64003444  0.12326821  0.86956015  1
  O  O394  1  0.62256943  0.62355172  0.39307802  1
  O  O395  1  0.63299995  0.62899399  0.88210242  1
