# generated using pymatgen
data_V35Zn35O128
_symmetry_space_group_name_H-M   'P 1'
_cell_length_a   16.84205584
_cell_length_b   16.89090313
_cell_length_c   16.87522558
_cell_angle_alpha   90.02883108
_cell_angle_beta   90.09640925
_cell_angle_gamma   90.04569554
_symmetry_Int_Tables_number   1
_chemical_formula_structural   V35Zn35O128
_chemical_formula_sum   'V70 Zn70 O256'
_cell_volume   4800.61361995
_cell_formula_units_Z   2
loop_
 _symmetry_equiv_pos_site_id
 _symmetry_equiv_pos_as_xyz
  1  'x, y, z'
loop_
 _atom_site_type_symbol
 _atom_site_label
 _atom_site_symmetry_multiplicity
 _atom_site_fract_x
 _atom_site_fract_y
 _atom_site_fract_z
 _atom_site_occupancy
  V  V0  1  0.25905359  0.75879168  0.01509825  1
  V  V1  1  0.73839225  0.00469803  0.75305265  1
  V  V2  1  0.26141023  0.62441426  0.87158867  1
  V  V3  1  0.24426210  0.11770101  0.87388487  1
  V  V4  1  0.66004558  0.22416612  0.37023431  1
  V  V5  1  0.39703523  0.49476048  0.36112150  1
  V  V6  1  0.38013776  0.36534873  0.49173464  1
  V  V7  1  0.38158726  0.37878959  0.00570989  1
  V  V8  1  0.26767463  0.87056616  0.61988752  1
  V  V9  1  0.24465578  0.61147325  0.36916809  1
  V  V10  1  0.13661107  0.52139663  0.61801295  1
  V  V11  1  0.24679123  0.38559705  0.13722572  1
  V  V12  1  0.74707677  -0.00458432  0.24750098  1
  V  V13  1  0.37936143  0.63509969  0.24183982  1
  V  V14  1  0.25069372  0.36495262  0.61144217  1
  V  V15  1  0.62636194  0.00555584  0.11219862  1
  V  V16  1  0.12263512  0.74535041  0.38426424  1
  V  V17  1  0.63459431  0.49380544  0.13579989  1
  V  V18  1  0.12032727  0.86773124  0.74153641  1
  V  V19  1  0.75071984  0.62422929  0.39009442  1
  V  V20  1  -0.00494680  0.86834748  0.87617319  1
  V  V21  1  0.73412832  0.87278653  0.63716185  1
  V  V22  1  0.23455871  0.26331714  -0.00002990  1
  V  V23  1  0.65668883  0.12841465  0.52088394  1
  V  V24  1  -0.00621427  0.86823667  0.37744684  1
  V  V25  1  0.36784812  0.13493629  0.24935198  1
  V  V26  1  0.00509770  0.26100007  0.76466270  1
  V  V27  1  0.62105797  0.36917632  0.27679642  1
  V  V28  1  0.27532017  0.74870106  0.49455928  1
  V  V29  1  0.88654840  0.62402409  0.74883790  1
  V  V30  1  0.12935098  0.88577484  0.24338521  1
  V  V31  1  0.12855949  0.74926830  0.87207690  1
  V  V32  1  0.61574975  0.76995203  0.87527435  1
  V  V33  1  0.87433739  0.36544373  -0.01426765  1
  V  V34  1  0.50719573  0.50968859  0.51602289  1
  V  V35  1  0.86957233  0.62165511  0.23237921  1
  V  V36  1  0.49671179  0.38859531  0.86200445  1
  V  V37  1  0.63304208  0.75022680  0.39039446  1
  V  V38  1  0.50076271  0.63012969  0.12164637  1
  V  V39  1  0.88085750  0.74670705  0.63231878  1
  V  V40  1  0.12135717  0.24249039  0.39442402  1
  V  V41  1  0.12482691  0.11604650  0.00679633  1
  V  V42  1  0.85304165  0.25579554  0.12285848  1
  V  V43  1  -0.00197015  0.00026752  0.50316749  1
  V  V44  1  0.49217624  0.87345405  0.38077289  1
  V  V45  1  0.11398271  0.49937120  0.14169675  1
  V  V46  1  0.12567156  0.00092436  0.62322539  1
  V  V47  1  0.76007393  0.74749880  -0.00901729  1
  V  V48  1  0.00235061  0.12188178  0.12849784  1
  V  V49  1  -0.01465150  0.12743185  0.63510756  1
  V  V50  1  0.86008028  0.86794830  0.50456380  1
  V  V51  1  0.74053244  0.50239463  0.74216364  1
  V  V52  1  0.61141795  0.25151374  0.87682889  1
  V  V53  1  -0.00722865  0.37484918  0.40093499  1
  V  V54  1  -0.00278919  0.74213969  0.23360323  1
  V  V55  1  0.88689713  0.49948362  0.87361528  1
  V  V56  1  0.47505209  -0.01745985  0.00580922  1
  V  V57  1  0.77101075  0.86669653  0.11608604  1
  V  V58  1  0.62193017  0.61631942  -0.01277607  1
  V  V59  1  0.75141293  0.13773200  0.88212008  1
  V  V60  1  0.50517584  0.75680204  0.73794128  1
  V  V61  1  0.86669055  0.00174811  0.37598112  1
  V  V62  1  0.76739635  0.36167279  0.61149076  1
  V  V63  1  0.11687160  0.61503072  0.00221939  1
  V  V64  1  0.38286814  0.62475985  0.72815513  1
  V  V65  1  0.62382301  0.85788357  0.24140279  1
  V  V66  1  0.00310039  0.26472706  0.24739676  1
  V  V67  1  0.88642153  0.01480122  0.87213420  1
  V  V68  1  -0.00214629  0.52932748  0.50761869  1
  V  V69  1  0.86619756  0.12556513  0.25076574  1
  Zn  Zn70  1  0.37406505  0.15818616  0.74731352  1
  Zn  Zn71  1  0.37623474  0.50396593  0.87314014  1
  Zn  Zn72  1  0.86724996  0.49743000  0.37509375  1
  Zn  Zn73  1  -0.00346661  -0.01367400  0.01259847  1
  Zn  Zn74  1  0.61693466  0.37304734  0.72497592  1
  Zn  Zn75  1  0.13193340  0.38293180  0.74300569  1
  Zn  Zn76  1  0.18133755  0.20365975  0.18282113  1
  Zn  Zn77  1  0.19817658  0.18465474  0.68110456  1
  Zn  Zn78  1  0.18293000  0.68476672  0.19143459  1
  Zn  Zn79  1  0.19733306  0.69147215  0.68337234  1
  Zn  Zn80  1  0.64609820  0.21004330  0.16453601  1
  Zn  Zn81  1  0.69772082  0.19766427  0.69898751  1
  Zn  Zn82  1  0.69543815  0.68070749  0.17565178  1
  Zn  Zn83  1  0.68823768  0.68631419  0.68822240  1
  Zn  Zn84  1  0.29736973  0.31903274  0.32463978  1
  Zn  Zn85  1  0.28588657  0.32498160  0.81592253  1
  Zn  Zn86  1  0.30975244  0.81085794  0.30696432  1
  Zn  Zn87  1  0.30890176  0.79935098  0.79975435  1
  Zn  Zn88  1  0.81054135  0.32412690  0.30502010  1
  Zn  Zn89  1  0.81947147  0.31714346  0.79304705  1
  Zn  Zn90  1  0.81226247  0.80466046  0.30751958  1
  Zn  Zn91  1  0.80823202  0.81125100  0.81112196  1
  Zn  Zn92  1  0.17429802  0.43090746  0.44369380  1
  Zn  Zn93  1  0.18341934  0.43990941  0.92607747  1
  Zn  Zn94  1  0.18123603  0.92159060  0.44336123  1
  Zn  Zn95  1  0.18173248  0.93634109  0.94545047  1
  Zn  Zn96  1  0.69322227  0.44235777  0.44027212  1
  Zn  Zn97  1  0.69640266  0.43564635  0.92939946  1
  Zn  Zn98  1  0.67805830  0.94332870  0.44204815  1
  Zn  Zn99  1  0.69753913  0.93916604  0.93622725  1
  Zn  Zn100  1  0.34064811  0.08767720  0.03944644  1
  Zn  Zn101  1  0.31984259  0.05850806  0.58475048  1
  Zn  Zn102  1  0.30678132  0.56178087  0.05926334  1
  Zn  Zn103  1  0.31999952  0.55920160  0.54638279  1
  Zn  Zn104  1  0.81720377  0.05924392  0.05848086  1
  Zn  Zn105  1  0.81642561  0.05239750  0.57304034  1
  Zn  Zn106  1  0.80869482  0.56049429  0.05274142  1
  Zn  Zn107  1  0.81133292  0.55641111  0.56588142  1
  Zn  Zn108  1  0.45017520  0.44010398  0.18090559  1
  Zn  Zn109  1  0.42060110  0.43517507  0.68470645  1
  Zn  Zn110  1  0.47412849  0.96762286  0.22337203  1
  Zn  Zn111  1  0.44487177  0.93948329  0.69807019  1
  Zn  Zn112  1  0.92815735  0.44278785  0.17944759  1
  Zn  Zn113  1  0.94613925  0.43863894  0.68309370  1
  Zn  Zn114  1  0.94166065  0.93437394  0.19299899  1
  Zn  Zn115  1  0.93408412  0.93590141  0.69255578  1
  Zn  Zn116  1  0.05491909  0.06405127  0.31502588  1
  Zn  Zn117  1  0.07828653  0.06631894  0.80642333  1
  Zn  Zn118  1  0.05372643  0.55907683  0.31778511  1
  Zn  Zn119  1  0.06832635  0.56346198  0.80230906  1
  Zn  Zn120  1  0.55075596  0.06403018  0.39316165  1
  Zn  Zn121  1  0.56277090  0.05877247  0.83088654  1
  Zn  Zn122  1  0.57048880  0.56946604  0.30585511  1
  Zn  Zn123  1  0.56164337  0.56605124  0.80332579  1
  Zn  Zn124  1  0.40456202  0.15909792  0.45554917  1
  Zn  Zn125  1  0.42169313  0.19605821  0.93259776  1
  Zn  Zn126  1  0.44921202  0.68331883  0.42499855  1
  Zn  Zn127  1  0.44070535  0.69908474  0.94309571  1
  Zn  Zn128  1  0.93487897  0.18655982  0.43968942  1
  Zn  Zn129  1  0.94599386  0.19480708  0.93779629  1
  Zn  Zn130  1  0.92532197  0.69008907  0.43776858  1
  Zn  Zn131  1  0.94030680  0.68217829  0.92895174  1
  Zn  Zn132  1  0.05514728  0.32146361  0.06440942  1
  Zn  Zn133  1  0.07764537  0.29669390  0.59206887  1
  Zn  Zn134  1  0.07515687  0.80954177  0.05899734  1
  Zn  Zn135  1  0.05627597  0.80532820  0.56023763  1
  Zn  Zn136  1  0.57189135  0.31670561  0.04776620  1
  Zn  Zn137  1  0.58995274  0.33586870  0.51993050  1
  Zn  Zn138  1  0.56518361  0.81169980  0.06116128  1
  Zn  Zn139  1  0.55694757  0.81414333  0.55845516  1
  O  O140  1  0.10844667  0.12977625  0.12780747  1
  O  O141  1  0.12231750  0.10123167  0.62066827  1
  O  O142  1  0.13147674  0.61115677  0.11078318  1
  O  O143  1  0.13309335  0.62260176  0.62133807  1
  O  O144  1  0.64465239  0.10085764  0.13120302  1
  O  O145  1  0.63865543  0.13515046  0.61924439  1
  O  O146  1  0.61646081  0.61894236  0.11829041  1
  O  O147  1  0.61531935  0.64461103  0.61414448  1
  O  O148  1  0.37071142  0.39081543  0.37486133  1
  O  O149  1  0.38538803  0.37990622  0.88187414  1
  O  O150  1  0.39324497  0.86260825  0.36541128  1
  O  O151  1  0.36003496  0.90421519  0.85042350  1
  O  O152  1  0.88969435  0.38205925  0.36471859  1
  O  O153  1  0.87973494  0.38109670  0.87961806  1
  O  O154  1  0.87647140  0.87576508  0.38265156  1
  O  O155  1  0.89362248  0.86972711  0.87163251  1
  O  O156  1  0.23624605  0.02367959  0.40367199  1
  O  O157  1  0.23864138  0.01813867  0.89359145  1
  O  O158  1  0.24691005  0.51220005  0.37876141  1
  O  O159  1  0.24900899  0.52420462  0.86882250  1
  O  O160  1  0.76045761  -0.01320151  0.36430450  1
  O  O161  1  0.76399153  0.00766900  0.87022326  1
  O  O162  1  0.74724997  0.51857966  0.37389400  1
  O  O163  1  0.76812257  0.48938117  0.85160887  1
  O  O164  1  0.23707769  0.49174108  0.12104775  1
  O  O165  1  0.23923956  0.50504698  0.60680641  1
  O  O166  1  0.31717847  0.91119430  0.13392897  1
  O  O167  1  0.23294439  0.97707131  0.60602353  1
  O  O168  1  0.73390192  0.51475429  0.12513949  1
  O  O169  1  0.75065474  0.49107861  0.63469422  1
  O  O170  1  0.75144056  0.98396935  0.12618406  1
  O  O171  1  0.75268043  0.98976649  0.64564957  1
  O  O172  1  -0.00621990  0.36386813  0.24242183  1
  O  O173  1  0.01081526  0.36756090  0.74662776  1
  O  O174  1  -0.00006655  0.86070759  0.26058605  1
  O  O175  1  0.01311915  0.87352388  0.75911293  1
  O  O176  1  0.52403581  0.37301941  0.23931596  1
  O  O177  1  0.49745929  0.38069536  0.75845235  1
  O  O178  1  0.52145679  0.86307206  0.24622635  1
  O  O179  1  0.50317502  0.85812742  0.74513296  1
  O  O180  1  0.47114703  0.14170822  0.25168691  1
  O  O181  1  0.47652561  0.09026419  0.74804559  1
  O  O182  1  0.48934616  0.62535214  0.23982081  1
  O  O183  1  0.48923219  0.63558579  0.75102876  1
  O  O184  1  0.98637642  0.13126932  0.24091011  1
  O  O185  1  1.01519490  0.13557751  0.73765805  1
  O  O186  1  0.99300808  0.63811519  0.25624394  1
  O  O187  1  0.98601244  0.62726725  0.74532034  1
  O  O188  1  0.35530038  0.27118716  -0.00224498  1
  O  O189  1  0.37492702  0.26605654  0.47755007  1
  O  O190  1  0.35947790  0.75423202  -0.00046278  1
  O  O191  1  0.37368470  0.74985724  0.48829706  1
  O  O192  1  0.87429653  0.25663430  0.00951772  1
  O  O193  1  0.87283830  0.25471959  0.50150155  1
  O  O194  1  0.85930790  0.73832620  -0.01306919  1
  O  O195  1  0.86962753  0.75995541  0.51438207  1
  O  O196  1  0.11175031  0.24718461  0.49410772  1
  O  O197  1  0.12889316  0.24440282  1.01336956  1
  O  O198  1  0.12620654  0.75173806  0.48697926  1
  O  O199  1  0.13374679  0.73617804  0.98940017  1
  O  O200  1  0.62599238  0.22692909  0.47910030  1
  O  O201  1  0.64548102  0.26680709  0.97178975  1
  O  O202  1  0.63236757  0.75634258  0.48866564  1
  O  O203  1  0.62869593  0.74431606  0.98715433  1
  O  O204  1  0.54609421  0.23687362  0.11892151  1
  O  O205  1  0.46679595  0.22343294  0.64580365  1
  O  O206  1  0.50675660  0.73097788  0.12156737  1
  O  O207  1  0.51555976  0.74453739  0.63701585  1
  O  O208  1  0.99037545  0.24292155  0.13602637  1
  O  O209  1  0.98632413  0.22538636  0.61008616  1
  O  O210  1  1.00734168  0.74847152  0.13528364  1
  O  O211  1  0.98064888  0.75540751  0.62906160  1
  O  O212  1  -0.00511589  0.26049496  0.36400138  1
  O  O213  1  0.01567591  0.24851794  0.86494360  1
  O  O214  1  0.00219544  0.75690933  0.37584834  1
  O  O215  1  0.01342472  0.76035082  0.87640658  1
  O  O216  1  0.50147451  0.16517814  0.39914753  1
  O  O217  1  0.50706524  0.25501926  0.88002948  1
  O  O218  1  0.52125840  0.75951430  0.37304525  1
  O  O219  1  0.51150723  0.75456910  0.87250194  1
  O  O220  1  0.24337369  0.07822311  0.45422208  1
  O  O221  1  0.23693187  0.13383110  1.01187142  1
  O  O222  1  0.26128475  0.63851322  0.47901756  1
  O  O223  1  0.24303593  0.63532833  0.98699450  1
  O  O224  1  0.75620129  0.12182283  0.50758047  1
  O  O225  1  0.75862453  0.12252956  0.98132258  1
  O  O226  1  0.75375789  0.62592109  0.48944197  1
  O  O227  1  0.73385009  0.64155127  1.00593483  1
  O  O228  1  0.24470528  0.37015920  0.00247231  1
  O  O229  1  0.26610629  0.38731019  0.49801654  1
  O  O230  1  0.23285495  0.85701843  0.00463582  1
  O  O231  1  0.25504634  0.85991249  0.50421036  1
  O  O232  1  0.77555844  0.39061376  0.00127807  1
  O  O233  1  0.75420350  0.37746177  0.50911179  1
  O  O234  1  0.75292368  0.86426771  0.00833598  1
  O  O235  1  0.75425394  0.89042311  0.51783523  1
  O  O236  1  0.12209812  0.50834972  0.24083725  1
  O  O237  1  0.12182127  0.50136857  0.72390895  1
  O  O238  1  0.11043544  0.98454741  0.25870893  1
  O  O239  1  0.12603484  0.98171667  0.73330611  1
  O  O240  1  0.62557757  0.48881328  0.24443043  1
  O  O241  1  0.63664270  0.49624426  0.75272893  1
  O  O242  1  0.64134597  0.98126087  0.23908000  1
  O  O243  1  0.63882129  1.00000998  0.76668426  1
  O  O244  1  0.37436925  0.02965425  0.24228850  1
  O  O245  1  0.37080038  -0.03902459  0.80202354  1
  O  O246  1  0.38103005  0.50329017  0.25780994  1
  O  O247  1  0.37886834  0.52202549  0.75323972  1
  O  O248  1  0.86975146  0.00195401  0.25775451  1
  O  O249  1  0.86795387  -0.00907149  0.76881478  1
  O  O250  1  0.88766705  0.51886168  0.25558166  1
  O  O251  1  0.87433962  0.51205741  0.74840031  1
  O  O252  1  0.10069310  0.36338772  0.38167675  1
  O  O253  1  0.18293787  0.36721367  0.84362367  1
  O  O254  1  0.11022784  0.86525552  0.37087444  1
  O  O255  1  0.12542258  0.86950453  0.85920187  1
  O  O256  1  0.62432268  0.35832762  0.38143254  1
  O  O257  1  0.60524079  0.37516210  0.87774938  1
  O  O258  1  0.63240564  0.86383813  0.36152263  1
  O  O259  1  0.62492917  0.86902897  0.87837064  1
  O  O260  1  0.36839663  0.14112998  0.14261250  1
  O  O261  1  0.30084687  0.12619142  0.66826544  1
  O  O262  1  0.38481321  0.61412683  0.13275378  1
  O  O263  1  0.37041306  0.62513063  0.62989060  1
  O  O264  1  0.88035881  0.13531780  0.12871174  1
  O  O265  1  0.88816322  0.10585109  0.64277022  1
  O  O266  1  0.87328346  0.61893531  0.13256309  1
  O  O267  1  0.86727258  0.64044548  0.63114653  1
  O  O268  1  0.24270979  0.27312896  0.11577376  1
  O  O269  1  0.24008003  0.26603937  0.60588364  1
  O  O270  1  0.24551556  0.74105789  0.11442273  1
  O  O271  1  0.25634651  0.75728392  0.60501920  1
  O  O272  1  0.75551653  0.24036345  0.12894356  1
  O  O273  1  0.76691619  0.26108616  0.63496239  1
  O  O274  1  0.75147301  0.76093054  0.11033305  1
  O  O275  1  0.75718963  0.76872410  0.63634964  1
  O  O276  1  0.22112536  0.25595738  0.37501734  1
  O  O277  1  0.23996481  0.23390154  0.89951810  1
  O  O278  1  0.24305603  0.74817530  0.38378286  1
  O  O279  1  0.24323852  0.74688273  0.88121908  1
  O  O280  1  0.75823857  0.24329991  0.37101786  1
  O  O281  1  0.76925639  0.23558701  0.86528321  1
  O  O282  1  0.74277717  0.74288146  0.37471104  1
  O  O283  1  0.73733427  0.75774125  0.88543832  1
  O  O284  1  0.00648864  0.13139010  0.01745386  1
  O  O285  1  -0.01059833  0.10422594  0.51077147  1
  O  O286  1  0.01809142  0.62955257  -0.00736958  1
  O  O287  1  0.00349627  0.62875577  0.49612559  1
  O  O288  1  0.44967462  0.11603613  0.01095998  1
  O  O289  1  0.48300003  0.17782781  0.59089654  1
  O  O290  1  0.51081780  0.62677488  0.00760790  1
  O  O291  1  0.49670243  0.60952740  0.49497469  1
  O  O292  1  0.48615499  0.38345210  0.49646423  1
  O  O293  1  0.48425617  0.37296262  0.99554568  1
  O  O294  1  0.50791093  0.88244104  0.48095808  1
  O  O295  1  0.49661770  0.88388343  1.00774358  1
  O  O296  1  0.98853027  0.36809343  0.49830129  1
  O  O297  1  0.97312005  0.38222668  1.01451953  1
  O  O298  1  0.98456963  0.87654116  0.49398497  1
  O  O299  1  1.01920137  0.87700575  0.98032740  1
  O  O300  1  0.49747348  0.50061446  0.36950515  1
  O  O301  1  0.49943569  0.49078800  0.87261223  1
  O  O302  1  0.50421531  0.97497620  0.34353301  1
  O  O303  1  0.49845245  1.01285613  0.90989356  1
  O  O304  1  1.00338051  0.48933669  0.39414425  1
  O  O305  1  0.98737296  0.50149616  0.86064422  1
  O  O306  1  0.98782732  0.98590514  0.38273322  1
  O  O307  1  0.99565042  0.99167734  0.86814243  1
  O  O308  1  -0.01296174  0.01748812  0.12703385  1
  O  O309  1  0.00684955  -0.00081940  0.62286559  1
  O  O310  1  0.01464436  0.49703940  0.12526216  1
  O  O311  1  0.00790425  0.50789199  0.61080967  1
  O  O312  1  0.51704863  -0.00097580  0.11825062  1
  O  O313  1  0.47809909  0.04681370  0.67799887  1
  O  O314  1  0.51766008  0.51593081  0.12433264  1
  O  O315  1  0.49196395  0.49767564  0.61507904  1
  O  O316  1  0.25388924  0.37640805  0.23558749  1
  O  O317  1  0.26795411  0.38517200  0.71171028  1
  O  O318  1  0.22872352  0.87512652  0.26372566  1
  O  O319  1  0.24103603  0.86310794  0.72608620  1
  O  O320  1  0.72187704  0.37120660  0.24937187  1
  O  O321  1  0.74970461  0.38570523  0.73505875  1
  O  O322  1  0.75323379  0.87647610  0.23455750  1
  O  O323  1  0.74856714  0.88507847  0.74557072  1
  O  O324  1  0.26103386  0.13346021  0.23322455  1
  O  O325  1  0.19893032  0.12591067  0.78347843  1
  O  O326  1  0.26184468  0.62738869  0.26097955  1
  O  O327  1  0.27098162  0.64608532  0.76226630  1
  O  O328  1  0.76416477  0.10779289  0.24112929  1
  O  O329  1  0.75191287  0.11067788  0.76244897  1
  O  O330  1  0.76710095  0.63337782  0.25112041  1
  O  O331  1  0.75733180  0.60926766  0.74207021  1
  O  O332  1  0.34945506  0.12442435  0.35103086  1
  O  O333  1  0.34871909  0.12933046  0.86252488  1
  O  O334  1  0.37187212  0.61336807  0.35966214  1
  O  O335  1  0.36631763  0.62823383  0.88284286  1
  O  O336  1  0.88426554  0.10922719  0.36522106  1
  O  O337  1  0.87849651  0.11794086  0.87369057  1
  O  O338  1  0.85982294  0.62852335  0.36806145  1
  O  O339  1  0.87520822  0.61627995  0.85816993  1
  O  O340  1  0.13264739  0.39018556  0.12264667  1
  O  O341  1  0.14111541  0.39126409  0.61315547  1
  O  O342  1  0.11755742  0.87358837  0.14343725  1
  O  O343  1  0.12090612  0.87026541  0.63309232  1
  O  O344  1  0.62673977  0.39722367  0.10886453  1
  O  O345  1  0.64343500  0.35763928  0.61627301  1
  O  O346  1  0.63697250  0.87739123  0.13171232  1
  O  O347  1  0.63574742  0.87421738  0.62300057  1
  O  O348  1  0.10462420  0.24924065  0.25431730  1
  O  O349  1  0.10865904  0.25987503  0.70902192  1
  O  O350  1  0.11197704  0.75363836  0.26114321  1
  O  O351  1  0.13087080  0.75818470  0.75637725  1
  O  O352  1  0.62422196  0.25370022  0.27180094  1
  O  O353  1  0.63692248  0.26437564  0.77226245  1
  O  O354  1  0.63975943  0.75811331  0.24598238  1
  O  O355  1  0.61760759  0.74226342  0.76812100  1
  O  O356  1  0.36500967  0.23964733  0.26004309  1
  O  O357  1  0.36981594  0.26588184  0.77263354  1
  O  O358  1  0.37359701  0.73405380  0.24754955  1
  O  O359  1  0.39355726  0.74167417  0.75065281  1
  O  O360  1  0.87714680  0.24279482  0.23985370  1
  O  O361  1  0.90457308  0.25360817  0.75037735  1
  O  O362  1  0.88925485  0.74151775  0.24776555  1
  O  O363  1  0.86794208  0.73805674  0.74346056  1
  O  O364  1  0.38935965  0.49680443  0.47917069  1
  O  O365  1  0.36036922  0.48382146  0.99089216  1
  O  O366  1  0.39595213  1.06234397  0.50738829  1
  O  O367  1  0.37247703  0.98069782  1.01701674  1
  O  O368  1  0.89261711  0.51275129  0.49598203  1
  O  O369  1  0.87507503  0.50714382  0.97637313  1
  O  O370  1  0.87839852  0.98744408  0.49410971  1
  O  O371  1  0.88256328  0.99884335  0.98033671  1
  O  O372  1  0.11829426  0.01280703  0.01472333  1
  O  O373  1  0.10703392  -0.02124676  0.51282097  1
  O  O374  1  0.12735874  0.51362188  -0.00974086  1
  O  O375  1  0.11022265  0.50532958  0.50642837  1
  O  O376  1  0.63137927  -0.00407949  0.01132608  1
  O  O377  1  0.61764392  0.03330220  0.48725621  1
  O  O378  1  0.63584092  0.51557991  -0.00239148  1
  O  O379  1  0.60523190  0.48850637  0.49613541  1
  O  O380  1  0.36340738  0.38771258  0.11381944  1
  O  O381  1  0.36762871  0.37663731  0.60044411  1
  O  O382  1  0.37668399  0.88411025  0.16672744  1
  O  O383  1  0.36543377  0.89000739  0.62796262  1
  O  O384  1  0.86611637  0.35797398  0.12848183  1
  O  O385  1  0.86681871  0.38436253  0.62410567  1
  O  O386  1  0.87051297  0.87499772  0.12245683  1
  O  O387  1  0.86789430  0.86797320  0.62209351  1
  O  O388  1  0.10189851  0.14233170  0.37709707  1
  O  O389  1  0.11610935  0.12269760  0.90514972  1
  O  O390  1  0.13864299  0.63159168  0.36524834  1
  O  O391  1  0.13446924  0.63340901  0.87341231  1
  O  O392  1  0.65418194  0.12450328  0.36181442  1
  O  O393  1  0.63771039  0.14176405  0.87252687  1
  O  O394  1  0.63737305  0.64101731  0.36710570  1
  O  O395  1  0.61943071  0.62829160  0.88620385  1
