# generated using pymatgen
data_V35Zn35O128
_symmetry_space_group_name_H-M   'P 1'
_cell_length_a   16.98034235
_cell_length_b   16.99065366
_cell_length_c   16.98996682
_cell_angle_alpha   89.92779486
_cell_angle_beta   90.02234714
_cell_angle_gamma   90.08666012
_symmetry_Int_Tables_number   1
_chemical_formula_structural   V35Zn35O128
_chemical_formula_sum   'V70 Zn70 O256'
_cell_volume   4901.71645842
_cell_formula_units_Z   2
loop_
 _symmetry_equiv_pos_site_id
 _symmetry_equiv_pos_as_xyz
  1  'x, y, z'
loop_
 _atom_site_type_symbol
 _atom_site_label
 _atom_site_symmetry_multiplicity
 _atom_site_fract_x
 _atom_site_fract_y
 _atom_site_fract_z
 _atom_site_occupancy
  V  V0  1  0.50043728  0.87069111  0.87374748  1
  V  V1  1  0.75173562  0.85832970  0.12676025  1
  V  V2  1  0.37325592  0.14216008  0.23911621  1
  V  V3  1  0.12972126  0.15045400  0.48028229  1
  V  V4  1  0.86437320  0.36930464  -0.00626799  1
  V  V5  1  0.88073516  0.11531632  0.73627362  1
  V  V6  1  0.86872581  0.85375486  0.00994601  1
  V  V7  1  0.50918256  0.73813506  0.74672978  1
  V  V8  1  0.13477683  0.61432414  -0.00107788  1
  V  V9  1  -0.01169357  0.62573197  0.12272685  1
  V  V10  1  0.63589570  0.35659842  0.25299911  1
  V  V11  1  0.24676583  0.76803255  0.00679058  1
  V  V12  1  0.49617478  0.36959048  0.37438453  1
  V  V13  1  0.87967617  0.49190924  0.86995470  1
  V  V14  1  0.74866596  0.00414990  0.25671012  1
  V  V15  1  0.48145950  0.14771375  0.63070537  1
  V  V16  1  0.12131359  0.63599847  0.49462997  1
  V  V17  1  0.24745601  0.50654380  0.76545297  1
  V  V18  1  0.87376033  0.87160859  0.50110780  1
  V  V19  1  0.76749350  0.50723092  0.25232549  1
  V  V20  1  -0.02325563  0.01773420  -0.01439478  1
  V  V21  1  0.00268534  0.35494691  0.36657251  1
  V  V22  1  0.62271539  0.74102345  0.89800525  1
  V  V23  1  0.12239963  0.86876345  0.76451199  1
  V  V24  1  0.12494547  0.50008251  0.13911700  1
  V  V25  1  0.36420219  0.62777531  0.77139813  1
  V  V26  1  0.10740195  0.24803309  0.86291470  1
  V  V27  1  0.12683316  0.35365327  0.25061062  1
  V  V28  1  0.76436086  0.63694889  0.38101298  1
  V  V29  1  0.25086363  0.01250836  0.76014248  1
  V  V30  1  0.87346476  0.62903516  0.75012710  1
  V  V31  1  0.24277995  0.75729315  0.49367175  1
  V  V32  1  0.88754667  0.00198795  0.37842815  1
  V  V33  1  0.38310383  0.87863115  0.00616770  1
  V  V34  1  0.87011664  0.36078655  0.49762324  1
  V  V35  1  0.37274603  0.00327076  0.87118689  1
  V  V36  1  0.00361820  0.48616303  -0.00628024  1
  V  V37  1  0.73951446  0.48758679  0.74611600  1
  V  V38  1  0.49760861  0.73715097  0.25005296  1
  V  V39  1  -0.00786502  0.50737118  0.48458091  1
  V  V40  1  0.01508978  0.87345868  0.38373996  1
  V  V41  1  0.25804410  0.38208954  0.60364771  1
  V  V42  1  -0.00448172  0.74910552  0.26314632  1
  V  V43  1  0.53373029  0.36848655  0.90182470  1
  V  V44  1  0.62724910  0.49171847  0.60673004  1
  V  V45  1  0.50341477  0.14078908  0.11862508  1
  V  V46  1  0.12562811  0.74024875  0.87449498  1
  V  V47  1  0.73559249  0.87791529  0.62767703  1
  V  V48  1  0.74397932  0.62358109  0.88355681  1
  V  V49  1  0.24399472  0.87229807  0.63572364  1
  V  V50  1  -0.00436229  0.63244152  0.62797890  1
  V  V51  1  0.38316596  0.88562715  0.50663422  1
  V  V52  1  0.86428697  0.74933127  0.62262564  1
  V  V53  1  0.63035144  0.52043281  0.13042219  1
  V  V54  1  0.24603281  0.62475941  0.35894555  1
  V  V55  1  0.62182069  -0.00047047  0.10736750  1
  V  V56  1  0.36818280  0.00001102  0.35780993  1
  V  V57  1  0.14316472  0.13132914  -0.00885716  1
  V  V58  1  0.60433149  0.13655648  0.49304792  1
  V  V59  1  0.50566822  0.87165076  0.37793604  1
  V  V60  1  0.74682850  0.22210576  -0.00611043  1
  V  V61  1  0.86913920  0.14037453  0.26929965  1
  V  V62  1  0.75008935  -0.00864562  0.77183760  1
  V  V63  1  0.26430689  0.37475787  0.12313887  1
  V  V64  1  0.87866218  0.25203120  0.12616793  1
  V  V65  1  0.00800471  0.12859301  0.14240255  1
  V  V66  1  0.36890392  0.74143687  0.62994864  1
  V  V67  1  0.12959088  0.50429536  0.62285301  1
  V  V68  1  0.10686454  0.00040606  0.62924209  1
  V  V69  1  -0.01378884  0.86474463  0.87751324  1
  Zn  Zn70  1  0.24104206  0.97401399  0.22215332  1
  Zn  Zn71  1  0.62956103  0.87234271  0.25384229  1
  Zn  Zn72  1  0.48915912  0.49743039  0.48853930  1
  Zn  Zn73  1  0.37038371  0.75510479  0.13966363  1
  Zn  Zn74  1  0.50740925  0.62407282  0.60183434  1
  Zn  Zn75  1  0.51203888  0.49160999  0.00906699  1
  Zn  Zn76  1  0.19977948  0.18610671  0.17448480  1
  Zn  Zn77  1  0.16142738  0.20528450  0.65174259  1
  Zn  Zn78  1  0.19633280  0.75543253  0.20956006  1
  Zn  Zn79  1  0.18447173  0.68409001  0.68869788  1
  Zn  Zn80  1  0.69091636  0.18358870  0.17350491  1
  Zn  Zn81  1  0.67831079  0.10101550  0.67619785  1
  Zn  Zn82  1  0.68033257  0.67979727  0.22981933  1
  Zn  Zn83  1  0.68841399  0.67494413  0.68192589  1
  Zn  Zn84  1  0.33576691  0.34580047  0.27942178  1
  Zn  Zn85  1  0.23593219  0.30670195  0.77266495  1
  Zn  Zn86  1  0.31578899  0.81892918  0.31492544  1
  Zn  Zn87  1  0.30906265  0.81019805  0.82284496  1
  Zn  Zn88  1  0.81913824  0.32148830  0.31311018  1
  Zn  Zn89  1  0.79850939  0.29926293  0.81028052  1
  Zn  Zn90  1  0.82565476  0.81385459  0.30409457  1
  Zn  Zn91  1  0.80249072  0.80543779  0.81021997  1
  Zn  Zn92  1  0.18196705  0.44539518  0.42716870  1
  Zn  Zn93  1  0.19105489  0.42103250  0.94392269  1
  Zn  Zn94  1  0.19023799  0.94952314  0.44679290  1
  Zn  Zn95  1  0.17171259  0.96146553  1.05264285  1
  Zn  Zn96  1  0.69241623  0.43621671  0.42135023  1
  Zn  Zn97  1  0.69010456  0.44557023  0.94618970  1
  Zn  Zn98  1  0.70073835  0.92581739  0.43504035  1
  Zn  Zn99  1  0.68519740  0.92463735  0.94147756  1
  Zn  Zn100  1  0.32544573  0.06720466  0.05933970  1
  Zn  Zn101  1  0.30161681  0.06803673  0.57166130  1
  Zn  Zn102  1  0.30251480  0.52747122  0.04529008  1
  Zn  Zn103  1  0.32100639  0.57534133  0.54852811  1
  Zn  Zn104  1  0.81883097  0.05434166  0.07570464  1
  Zn  Zn105  1  0.82367616  0.04845611  0.57114221  1
  Zn  Zn106  1  0.80763051  0.55221819  0.06462116  1
  Zn  Zn107  1  0.80551199  0.55981156  0.55710629  1
  Zn  Zn108  1  0.46599266  0.42431952  0.18270783  1
  Zn  Zn109  1  0.42463550  0.46121949  0.67086646  1
  Zn  Zn110  1  0.44439892  0.93499281  0.19022934  1
  Zn  Zn111  1  0.43000367  0.92170612  0.69475189  1
  Zn  Zn112  1  0.94381954  0.42951326  0.18231313  1
  Zn  Zn113  1  0.92650798  0.44922570  0.67188240  1
  Zn  Zn114  1  1.08889983  0.90534094  0.21583954  1
  Zn  Zn115  1  0.92932993  0.92899455  0.70063567  1
  Zn  Zn116  1  0.08809129  0.08151586  0.31237360  1
  Zn  Zn117  1  0.06446339  0.05607541  0.81971710  1
  Zn  Zn118  1  0.06308892  0.57593555  0.30848604  1
  Zn  Zn119  1  0.05992464  0.56255440  0.80926177  1
  Zn  Zn120  1  0.55426948  0.05512323  0.30548083  1
  Zn  Zn121  1  0.53610416  0.03223820  0.75764110  1
  Zn  Zn122  1  0.57930313  0.55699694  0.31948118  1
  Zn  Zn123  1  0.55559831  0.55270045  0.81712374  1
  Zn  Zn124  1  0.46723015  0.16452163  0.40995313  1
  Zn  Zn125  1  0.45592746  0.18799478  0.92301687  1
  Zn  Zn126  1  0.42531824  0.68490330  0.43207991  1
  Zn  Zn127  1  0.43243606  0.69045815  0.94344923  1
  Zn  Zn128  1  0.95358329  0.17903147  0.45726426  1
  Zn  Zn129  1  0.91954513  0.20240770  0.89580651  1
  Zn  Zn130  1  0.92778044  0.68908009  0.43741406  1
  Zn  Zn131  1  0.93912586  0.67809404  0.94172211  1
  Zn  Zn132  1  0.06514687  0.30731162  0.05902212  1
  Zn  Zn133  1  0.06339405  0.32972215  0.55690349  1
  Zn  Zn134  1  0.05552393  0.80683415  0.05941705  1
  Zn  Zn135  1  0.05788582  0.81821135  0.56987756  1
  Zn  Zn136  1  0.58290510  0.31254286  0.07391213  1
  Zn  Zn137  1  0.55970929  0.31617911  0.55600284  1
  Zn  Zn138  1  0.56173577  0.80565633  0.07665253  1
  Zn  Zn139  1  0.56991186  0.96148369  0.57619723  1
  O  O140  1  0.11165279  0.13941380  0.11068159  1
  O  O141  1  0.12131183  0.09892265  0.64243852  1
  O  O142  1  0.11206079  0.60478390  0.11291160  1
  O  O143  1  0.11436970  0.62609643  0.61597823  1
  O  O144  1  0.61426646  0.10661931  0.13214553  1
  O  O145  1  0.59578403  0.11984632  0.60944814  1
  O  O146  1  0.63258291  0.61937492  0.13829797  1
  O  O147  1  0.61930417  0.60651238  0.62703045  1
  O  O148  1  0.39606236  0.39466936  0.35634303  1
  O  O149  1  0.31395411  0.28498134  0.91577543  1
  O  O150  1  0.37782382  0.88054903  0.39551933  1
  O  O151  1  0.38172301  0.87607469  0.88409573  1
  O  O152  1  0.89936828  0.37464558  0.37952832  1
  O  O153  1  0.86918687  0.38285596  0.88190920  1
  O  O154  1  0.87939998  0.87978099  0.38708175  1
  O  O155  1  0.88312159  0.85807864  0.87836246  1
  O  O156  1  0.27029968  -0.00641318  0.38313415  1
  O  O157  1  0.26444488  0.00344821  0.86729524  1
  O  O158  1  0.23506731  0.52408301  0.36671867  1
  O  O159  1  0.23907671  0.49314015  0.86202143  1
  O  O160  1  0.76363596  -0.01157209  0.36169677  1
  O  O161  1  0.75387896  -0.02090305  0.87015793  1
  O  O162  1  0.75289659  0.51428760  0.35954632  1
  O  O163  1  0.75768428  0.50815763  0.86622078  1
  O  O164  1  0.22879800  0.49355519  0.13359672  1
  O  O165  1  0.23548963  0.51115445  0.60838383  1
  O  O166  1  0.25518153  1.00010817  0.11300895  1
  O  O167  1  0.24431741  0.98243417  0.64382040  1
  O  O168  1  0.74151825  0.49798995  0.13602548  1
  O  O169  1  0.74093721  0.50396513  0.63794567  1
  O  O170  1  0.74073163  0.99087435  0.13548124  1
  O  O171  1  0.75231183  0.98229653  0.63312035  1
  O  O172  1  0.01157633  0.37151820  0.25863124  1
  O  O173  1  -0.01044055  0.35055248  0.71696971  1
  O  O174  1  -0.00216936  0.86874565  0.27949610  1
  O  O175  1  0.00518905  0.87145788  0.77044898  1
  O  O176  1  0.52156877  0.36930789  0.26064319  1
  O  O177  1  0.44403073  0.36643417  0.74934349  1
  O  O178  1  0.50199406  0.87200423  0.26943479  1
  O  O179  1  0.48886623  0.84363202  0.76291726  1
  O  O180  1  0.48219458  0.10841160  0.23317938  1
  O  O181  1  0.49906438  0.13659373  0.73220847  1
  O  O182  1  0.50373358  0.64078359  0.26943610  1
  O  O183  1  0.48137220  0.62998279  0.76177897  1
  O  O184  1  0.99773741  0.12547340  0.24579377  1
  O  O185  1  0.97725406  0.10470098  0.76591994  1
  O  O186  1  1.00516797  0.64007079  0.23379773  1
  O  O187  1  0.98580716  0.61643846  0.73852914  1
  O  O188  1  0.36010796  0.25291462  -0.03105563  1
  O  O189  1  0.33907349  0.24176291  0.47412359  1
  O  O190  1  0.35816125  0.76599863  -0.00705304  1
  O  O191  1  0.35913367  0.75797808  0.51217976  1
  O  O192  1  0.86904953  0.25993414  -0.00918819  1
  O  O193  1  0.89181801  0.26167237  0.50008578  1
  O  O194  1  0.87129817  0.75543976  -0.00461772  1
  O  O195  1  0.87270113  0.75611104  0.51414090  1
  O  O196  1  0.12430488  0.23885177  0.53940890  1
  O  O197  1  0.11498350  0.23543084  0.98423788  1
  O  O198  1  0.13578260  0.74877114  0.51400155  1
  O  O199  1  0.13636720  0.73826714  0.99744283  1
  O  O200  1  0.62440475  0.23402121  0.50071122  1
  O  O201  1  0.65107325  0.23818360  1.02265098  1
  O  O202  1  0.63855075  0.74768086  0.49699381  1
  O  O203  1  0.61672632  0.73846837  0.99570028  1
  O  O204  1  0.51497704  0.23716874  0.13407433  1
  O  O205  1  0.48947180  0.24748170  0.61464295  1
  O  O206  1  0.48895692  0.74703793  0.14092419  1
  O  O207  1  0.48602616  0.73658730  0.64209526  1
  O  O208  1  0.98722519  0.22772979  0.10030859  1
  O  O209  1  1.00220051  0.29612854  0.66604268  1
  O  O210  1  0.99200334  0.72169539  0.09684136  1
  O  O211  1  0.98775829  0.73773984  0.62326652  1
  O  O212  1  0.00577271  0.25826967  0.37836122  1
  O  O213  1  0.01090854  0.26639191  0.86283503  1
  O  O214  1  0.00010849  0.75460028  0.37050871  1
  O  O215  1  0.01269840  0.75613125  0.89052890  1
  O  O216  1  0.48838111  0.26895055  0.38013707  1
  O  O217  1  0.49477548  0.27988714  0.86979493  1
  O  O218  1  0.48788612  0.76594149  0.37718924  1
  O  O219  1  0.51059427  0.74302003  0.87280644  1
  O  O220  1  0.21695133  0.10438245  0.50853525  1
  O  O221  1  0.24105462  0.12656360  0.99957053  1
  O  O222  1  0.24078938  0.64217886  0.49271716  1
  O  O223  1  0.23613776  0.61307299  1.00116526  1
  O  O224  1  0.69906281  0.07456074  0.50983051  1
  O  O225  1  0.76731136  0.12386647  1.00040585  1
  O  O226  1  0.75385525  0.62478486  0.48217976  1
  O  O227  1  0.75955242  0.61626448  0.98061295  1
  O  O228  1  0.27525444  0.41002511  0.02319351  1
  O  O229  1  0.22886758  0.37997875  0.50692948  1
  O  O230  1  0.25239070  0.86831301  0.00423178  1
  O  O231  1  0.25205189  0.86660006  0.51608135  1
  O  O232  1  0.76636446  0.37686582  0.00454228  1
  O  O233  1  0.77367116  0.37068689  0.47217496  1
  O  O234  1  0.75859399  0.87028579  0.01260944  1
  O  O235  1  0.76198727  0.87365371  0.51727254  1
  O  O236  1  0.11128629  0.49820744  0.23849879  1
  O  O237  1  0.13707710  0.51985030  0.73346040  1
  O  O238  1  0.13478256  0.99893656  0.25834496  1
  O  O239  1  0.13628956  0.98611707  0.75593079  1
  O  O240  1  0.64317934  0.49835826  0.24104497  1
  O  O241  1  0.63895438  0.49920356  0.75411323  1
  O  O242  1  0.64074776  0.99300532  0.25606088  1
  O  O243  1  0.64773477  1.00706963  0.75360607  1
  O  O244  1  0.36141268  -0.01807432  0.25623116  1
  O  O245  1  0.35893510  -0.01566307  0.76150154  1
  O  O246  1  0.37802844  0.55606030  0.22326267  1
  O  O247  1  0.36127708  0.52014294  0.74967560  1
  O  O248  1  0.86677690  0.01935776  0.26948710  1
  O  O249  1  0.86326694  0.00433519  0.75455188  1
  O  O250  1  0.86429093  0.47981546  0.24088803  1
  O  O251  1  0.86750564  0.50630431  0.75366325  1
  O  O252  1  0.11657939  0.37680808  0.35893607  1
  O  O253  1  0.16415365  0.33640131  0.87595303  1
  O  O254  1  0.11299151  0.87902464  0.39410280  1
  O  O255  1  0.11407118  0.85683668  0.87275066  1
  O  O256  1  0.61836488  0.37315586  0.36268537  1
  O  O257  1  0.63308027  0.36580172  0.88827337  1
  O  O258  1  0.60733641  0.88000279  0.38722344  1
  O  O259  1  0.61518654  0.85031134  0.88414228  1
  O  O260  1  0.38987337  0.13005114  0.12862333  1
  O  O261  1  0.38170707  0.12511099  0.62029392  1
  O  O262  1  0.36001427  0.59420052  0.16366981  1
  O  O263  1  0.36133433  0.63821878  0.64047725  1
  O  O264  1  0.88382926  0.13520242  0.14650626  1
  O  O265  1  0.87725630  0.12502213  0.63471350  1
  O  O266  1  0.89187805  0.60546244  0.11740771  1
  O  O267  1  0.87549569  0.62941832  0.62997032  1
  O  O268  1  0.24688273  0.27685807  0.11526502  1
  O  O269  1  0.24843331  0.28604131  0.64333760  1
  O  O270  1  0.25848532  0.74056469  0.10751255  1
  O  O271  1  0.25113880  0.75762962  0.62553236  1
  O  O272  1  0.77533842  0.24007904  0.11122452  1
  O  O273  1  0.75340441  0.22684592  0.59721991  1
  O  O274  1  0.73758996  0.76375494  0.14322299  1
  O  O275  1  0.75656096  0.76014933  0.63640311  1
  O  O276  1  0.29139995  0.25759071  0.42198525  1
  O  O277  1  0.31963420  0.25438070  0.84096175  1
  O  O278  1  0.24537437  0.75964975  0.39440568  1
  O  O279  1  0.23378931  0.75146434  0.89157722  1
  O  O280  1  0.81912480  0.20651132  0.32750929  1
  O  O281  1  0.74680663  0.24592805  0.89595216  1
  O  O282  1  0.76348373  0.74055452  0.36185043  1
  O  O283  1  0.73229547  0.73584204  0.87143964  1
  O  O284  1  -0.04075776  0.11104305  -0.04448065  1
  O  O285  1  0.03633187  0.11074035  0.49350659  1
  O  O286  1  0.00742728  0.60396765  0.00300326  1
  O  O287  1  0.00203037  0.62227908  0.50605111  1
  O  O288  1  0.49470095  0.13371925  0.01762907  1
  O  O289  1  0.49781378  0.12180665  0.51225611  1
  O  O290  1  0.44281832  0.61901386  0.03092883  1
  O  O291  1  0.59467820  0.69551957  0.47316208  1
  O  O292  1  0.50273858  0.38302675  0.48288473  1
  O  O293  1  0.51169829  0.37035988  1.00405028  1
  O  O294  1  0.48674635  0.88191116  0.50069040  1
  O  O295  1  0.48813760  0.86177890  0.98998760  1
  O  O296  1  1.00369975  0.39177692  0.48267337  1
  O  O297  1  0.99980111  0.38260062  0.99572225  1
  O  O298  1  0.98638136  0.86393517  0.49314218  1
  O  O299  1  0.98102164  0.87400451  0.99243315  1
  O  O300  1  0.51298090  0.49216493  0.37754832  1
  O  O301  1  0.50544853  0.46898144  0.87668524  1
  O  O302  1  0.47843502  0.98229368  0.37197909  1
  O  O303  1  0.49086907  0.97517483  0.85224318  1
  O  O304  1  1.00586784  0.51113802  0.38537800  1
  O  O305  1  0.98813063  0.50244586  0.87711479  1
  O  O306  1  0.99116840  0.98240224  0.37651209  1
  O  O307  1  1.00337071  0.97514824  0.88716326  1
  O  O308  1  -0.00796498  0.03840151  0.09641837  1
  O  O309  1  0.00900136  -0.01681945  0.64066074  1
  O  O310  1  0.00882852  0.49829602  0.11338600  1
  O  O311  1  0.00932393  0.51357632  0.61535254  1
  O  O312  1  0.52119702  -0.01153216  0.12545891  1
  O  O313  1  0.49899904  -0.00356751  0.65145948  1
  O  O314  1  0.52174997  0.50227152  0.12896522  1
  O  O315  1  0.51161100  0.50401277  0.61397581  1
  O  O316  1  0.23019543  0.37559431  0.24240671  1
  O  O317  1  0.25432859  0.41048579  0.72580955  1
  O  O318  1  0.23850222  0.85678706  0.24412649  1
  O  O319  1  0.23922611  0.86921597  0.75056825  1
  O  O320  1  0.74152659  0.38624904  0.26645375  1
  O  O321  1  0.75806183  0.38970658  0.75596815  1
  O  O322  1  0.75736127  0.88639885  0.23865023  1
  O  O323  1  0.75472761  0.88176022  0.74033251  1
  O  O324  1  0.27215585  0.11938558  0.23158455  1
  O  O325  1  0.25115866  0.10692120  0.74570710  1
  O  O326  1  0.21839399  0.65651625  0.26685298  1
  O  O327  1  0.25462378  0.61996018  0.75397773  1
  O  O328  1  0.75544020  0.10671146  0.23791789  1
  O  O329  1  0.76345692  0.10216089  0.74905600  1
  O  O330  1  0.77269282  0.61064709  0.24443921  1
  O  O331  1  0.75844557  0.61377542  0.75905420  1
  O  O332  1  0.38333285  0.10640137  0.35292711  1
  O  O333  1  0.39696022  0.09854086  0.87724952  1
  O  O334  1  0.34460251  0.64050073  0.36527540  1
  O  O335  1  0.36395436  0.63322933  0.86939920  1
  O  O336  1  0.89899405  0.10410542  0.38588135  1
  O  O337  1  0.86702562  0.20830257  0.79196195  1
  O  O338  1  0.86800128  0.62478854  0.36976231  1
  O  O339  1  0.86767806  0.61671930  0.86738844  1
  O  O340  1  0.12252777  0.38116313  0.13389755  1
  O  O341  1  0.12717116  0.40248866  0.62331894  1
  O  O342  1  0.10580098  0.89135666  0.10616089  1
  O  O343  1  0.12720536  0.87039859  0.64786443  1
  O  O344  1  0.62912245  0.38210434  0.14909047  1
  O  O345  1  0.61858950  0.39222629  0.62373753  1
  O  O346  1  0.63705096  0.88322122  0.12397201  1
  O  O347  1  0.63761354  0.87282609  0.61774792  1
  O  O348  1  0.12699583  0.25597860  0.24037378  1
  O  O349  1  0.13980598  0.23860558  0.76244729  1
  O  O350  1  0.08377934  0.77449077  0.21284155  1
  O  O351  1  0.12832505  0.74904501  0.76831650  1
  O  O352  1  0.64800282  0.25714940  0.24733173  1
  O  O353  1  0.62730030  0.17575893  0.83102889  1
  O  O354  1  0.60310799  0.76228724  0.24937804  1
  O  O355  1  0.60889151  0.73433498  0.75057124  1
  O  O356  1  0.37261938  0.23928975  0.25362044  1
  O  O357  1  0.41070589  0.30346381  0.73091983  1
  O  O358  1  0.38951895  0.75795907  0.25393234  1
  O  O359  1  0.37106928  0.73952510  0.75002194  1
  O  O360  1  0.89044847  0.26684844  0.22351770  1
  O  O361  1  0.75354892  0.28248160  0.64346629  1
  O  O362  1  0.90132898  0.76166875  0.23387043  1
  O  O363  1  0.86912943  0.73537460  0.74296621  1
  O  O364  1  0.43226840  0.59711911  0.50855341  1
  O  O365  1  0.40815870  0.54524942  1.00387908  1
  O  O366  1  0.36423034  0.98310020  0.51278978  1
  O  O367  1  0.37259688  0.98386439  0.98431254  1
  O  O368  1  0.89181554  0.50132652  0.49974004  1
  O  O369  1  0.88234322  0.48604283  0.98998843  1
  O  O370  1  0.86906854  0.98819490  0.48751084  1
  O  O371  1  0.88007143  0.98236721  1.00278557  1
  O  O372  1  0.10156333  0.03311165  -0.00785286  1
  O  O373  1  0.12342995  -0.02290957  0.53268807  1
  O  O374  1  0.11948937  0.49680038  -0.00082591  1
  O  O375  1  0.11343596  0.51685226  0.50680160  1
  O  O376  1  0.63004096  -0.00177431  0.00884018  1
  O  O377  1  0.64296152  0.00965956  0.49612123  1
  O  O378  1  0.62985614  0.50442629  0.02039487  1
  O  O379  1  0.63839621  0.49626286  0.50752056  1
  O  O380  1  0.35968114  0.38800923  0.16105334  1
  O  O381  1  0.35570102  0.40840414  0.59751772  1
  O  O382  1  0.38460965  0.87632708  0.10774055  1
  O  O383  1  0.36439101  0.86114032  0.62192484  1
  O  O384  1  0.89146422  0.35964124  0.10206906  1
  O  O385  1  0.87572859  0.38475535  0.59646761  1
  O  O386  1  0.86217212  0.86489010  0.11327275  1
  O  O387  1  0.87340441  0.86354606  0.62117600  1
  O  O388  1  0.13562260  0.15832565  0.37878665  1
  O  O389  1  0.12363557  0.13714871  0.88129008  1
  O  O390  1  0.12389005  0.63374042  0.39100635  1
  O  O391  1  0.11363736  0.63454637  0.88376243  1
  O  O392  1  0.58696406  0.12296098  0.39012156  1
  O  O393  1  0.60303481  0.13413098  0.88505091  1
  O  O394  1  0.65788316  0.63466381  0.34216293  1
  O  O395  1  0.63349772  0.62742685  0.87510214  1
