# generated using pymatgen
data_V35Zn35O128
_symmetry_space_group_name_H-M   'P 1'
_cell_length_a   16.87057179
_cell_length_b   16.87854653
_cell_length_c   16.88249245
_cell_angle_alpha   89.90277863
_cell_angle_beta   90.27762081
_cell_angle_gamma   90.03530163
_symmetry_Int_Tables_number   1
_chemical_formula_structural   V35Zn35O128
_chemical_formula_sum   'V70 Zn70 O256'
_cell_volume   4807.23782371
_cell_formula_units_Z   2
loop_
 _symmetry_equiv_pos_site_id
 _symmetry_equiv_pos_as_xyz
  1  'x, y, z'
loop_
 _atom_site_type_symbol
 _atom_site_label
 _atom_site_symmetry_multiplicity
 _atom_site_fract_x
 _atom_site_fract_y
 _atom_site_fract_z
 _atom_site_occupancy
  V  V0  1  0.49644264  0.63698166  0.12573506  1
  V  V1  1  0.75733624  0.38264338  0.10769816  1
  V  V2  1  0.12986053  0.23886774  0.38922942  1
  V  V3  1  0.37022711  0.23428341  0.60738025  1
  V  V4  1  0.62952172  0.49605917  0.12536617  1
  V  V5  1  0.36721202  0.12874414  0.76215028  1
  V  V6  1  0.13782631  0.62692820  -0.01058252  1
  V  V7  1  0.63143944  0.63547019  -0.00288818  1
  V  V8  1  0.62279446  0.25651642  0.87708585  1
  V  V9  1  0.01187774  0.26424322  0.75976580  1
  V  V10  1  0.75771611  0.86606318  0.10877000  1
  V  V11  1  0.26738334  0.49717171  0.26000799  1
  V  V12  1  -0.00542677  0.75152618  0.75929439  1
  V  V13  1  0.87536317  0.13052834  0.76350380  1
  V  V14  1  0.75639933  0.24199490  -0.01001069  1
  V  V15  1  0.37973233  0.64373284  0.25052207  1
  V  V16  1  0.01355844  0.12542726  0.11694717  1
  V  V17  1  -0.00616474  0.49010117  0.00033673  1
  V  V18  1  0.50765845  0.38220315  0.37005885  1
  V  V19  1  0.87137436  0.26624305  0.62458704  1
  V  V20  1  0.74962546  0.26615956  0.50484401  1
  V  V21  1  0.49488835  0.88967194  0.37808318  1
  V  V22  1  0.75525758  0.63573872  0.37756818  1
  V  V23  1  0.01167724  -0.00921812  0.00283413  1
  V  V24  1  0.49043534  0.48744616  0.00187481  1
  V  V25  1  0.62976078  0.86743374  0.24554177  1
  V  V26  1  0.48871476  0.23890009  0.24203688  1
  V  V27  1  0.25313797  0.64001048  0.38577143  1
  V  V28  1  0.01638768  0.63335722  0.62498357  1
  V  V29  1  0.63516069  0.24791483  0.36276855  1
  V  V30  1  0.63065935  0.11448740  0.50463866  1
  V  V31  1  0.75776967  0.63764411  0.87216960  1
  V  V32  1  0.26967392  0.11800850  0.37867857  1
  V  V33  1  0.50060550  0.24413021  0.74148089  1
  V  V34  1  0.75029035  0.88391295  0.62082991  1
  V  V35  1  0.01120993  0.50701407  0.50384035  1
  V  V36  1  0.11123164  0.75879479  0.37730178  1
  V  V37  1  0.22240446  0.00244346  0.24822233  1
  V  V38  1  0.87173881  0.74708155  0.61837541  1
  V  V39  1  -0.00738906  0.90037515  0.37063196  1
  V  V40  1  0.26393531  0.36117276  0.12221103  1
  V  V41  1  0.00429871  0.64090131  0.12766468  1
  V  V42  1  0.18849808  0.20561480  -0.06932312  1
  V  V43  1  0.47979151  0.36875218  0.88491143  1
  V  V44  1  0.72874707  0.49865456  0.74442221  1
  V  V45  1  0.11790997  0.00227822  0.61425141  1
  V  V46  1  0.12651745  0.37545028  0.25511726  1
  V  V47  1  -0.00045336  0.37691890  0.38680935  1
  V  V48  1  0.13926631  0.75348116  0.87633092  1
  V  V49  1  0.24903550  0.00800746  0.76420649  1
  V  V50  1  0.87949445  -0.01338293  0.88654192  1
  V  V51  1  0.47951157  -0.01304011  -0.01187332  1
  V  V52  1  0.37834671  0.61645316  0.73965552  1
  V  V53  1  0.75419066  0.49480474  0.24623735  1
  V  V54  1  0.11870000  0.88549930  0.75232307  1
  V  V55  1  0.36742011  0.84058404  -0.00864640  1
  V  V56  1  0.62012277  0.61577676  0.50690577  1
  V  V57  1  0.37939776  0.39038216  0.48752195  1
  V  V58  1  0.61402463  0.74757703  0.37585674  1
  V  V59  1  0.61652609  0.11694094  -0.00158061  1
  V  V60  1  0.87344936  0.49083159  0.86768240  1
  V  V61  1  0.87573681  0.25556753  0.11900397  1
  V  V62  1  -0.00402207  0.12150599  0.61543866  1
  V  V63  1  0.86586748  0.12452254  0.25607548  1
  V  V64  1  0.12565747  0.49881995  0.12812799  1
  V  V65  1  0.00109770  0.25114503  0.25267706  1
  V  V66  1  0.88577533  0.63563880  0.24738405  1
  V  V67  1  0.87758255  0.49734950  0.38151449  1
  V  V68  1  0.74887691  -0.00094106  0.75791602  1
  V  V69  1  0.25069743  0.37474369  0.61865488  1
  Zn  Zn70  1  0.13584388  0.50156937  0.63134415  1
  Zn  Zn71  1  0.59920453  0.00362676  0.64083547  1
  Zn  Zn72  1  0.62323551  0.00736353  0.13202216  1
  Zn  Zn73  1  0.53797248  0.80639541  0.78924051  1
  Zn  Zn74  1  0.87571063  0.87187908  0.49447723  1
  Zn  Zn75  1  0.75462817  0.00133464  0.24284091  1
  Zn  Zn76  1  0.22882812  0.15206527  0.15599429  1
  Zn  Zn77  1  0.18583426  0.19115899  0.68396996  1
  Zn  Zn78  1  0.17637749  0.68199243  0.20942119  1
  Zn  Zn79  1  0.19078194  0.70327066  0.68456059  1
  Zn  Zn80  1  0.68677216  0.19155881  0.17771723  1
  Zn  Zn81  1  0.68704477  0.18744855  0.68996488  1
  Zn  Zn82  1  0.69267350  0.68674085  0.18561094  1
  Zn  Zn83  1  0.69477153  0.69053308  0.68462809  1
  Zn  Zn84  1  0.31531984  0.30127212  0.31274921  1
  Zn  Zn85  1  0.28129377  0.35060243  0.82650911  1
  Zn  Zn86  1  0.30746206  0.82327246  0.30890596  1
  Zn  Zn87  1  0.31264429  0.81551538  0.78584506  1
  Zn  Zn88  1  0.81380605  0.31450648  0.31107774  1
  Zn  Zn89  1  0.80956312  0.32359437  0.80769816  1
  Zn  Zn90  1  0.82003247  0.81980943  0.30467494  1
  Zn  Zn91  1  0.81432654  0.81721652  0.81175568  1
  Zn  Zn92  1  0.19268496  0.43748045  0.43974201  1
  Zn  Zn93  1  0.15718427  0.39992757  0.95926790  1
  Zn  Zn94  1  0.18212602  0.93896541  0.43087561  1
  Zn  Zn95  1  0.18749534  0.93379022  0.93645961  1
  Zn  Zn96  1  0.68962150  0.43752024  0.43586703  1
  Zn  Zn97  1  0.67938230  0.44525964  0.92933782  1
  Zn  Zn98  1  0.63646927  0.89752799  0.48896493  1
  Zn  Zn99  1  0.67825845  0.92270223  0.92271043  1
  Zn  Zn100  1  0.29893878  -0.03785814  0.08072495  1
  Zn  Zn101  1  0.28804504  0.07358532  0.57604342  1
  Zn  Zn102  1  0.31209633  0.55580107  0.07112783  1
  Zn  Zn103  1  0.31602368  0.55713004  0.55443665  1
  Zn  Zn104  1  0.80951667  0.05977720  0.06695503  1
  Zn  Zn105  1  0.79053467  0.08762449  0.58217807  1
  Zn  Zn106  1  0.82355663  0.58392895  0.05562094  1
  Zn  Zn107  1  0.81425047  0.56350298  0.56535451  1
  Zn  Zn108  1  0.44680782  0.42989137  0.18951510  1
  Zn  Zn109  1  0.41247837  0.40392764  0.69873597  1
  Zn  Zn110  1  0.45781178  0.90541377  0.16637042  1
  Zn  Zn111  1  0.44149771  0.93809723  0.70999536  1
  Zn  Zn112  1  0.93811246  0.44082419  0.19054490  1
  Zn  Zn113  1  0.93978187  0.44575206  0.68824016  1
  Zn  Zn114  1  0.93992425  0.94115728  0.18822055  1
  Zn  Zn115  1  0.93386046  0.93786047  0.69070163  1
  Zn  Zn116  1  0.05713302  0.06500911  0.30784714  1
  Zn  Zn117  1  0.05891989  0.07603767  0.82180543  1
  Zn  Zn118  1  0.06906179  0.56656114  0.31807362  1
  Zn  Zn119  1  0.05333640  0.56818486  0.81610749  1
  Zn  Zn120  1  0.57405602  0.06197410  0.31751719  1
  Zn  Zn121  1  0.56255476  0.06718432  0.81952899  1
  Zn  Zn122  1  0.56615478  0.56449698  0.30786867  1
  Zn  Zn123  1  0.57984548  0.62510679  0.79550832  1
  Zn  Zn124  1  0.45405474  0.17824953  0.42780786  1
  Zn  Zn125  1  0.43047018  0.17906438  0.94668873  1
  Zn  Zn126  1  0.43954026  0.68239125  0.43818138  1
  Zn  Zn127  1  0.44129569  0.67508453  0.93710078  1
  Zn  Zn128  1  0.93173882  0.19164500  0.44008634  1
  Zn  Zn129  1  0.94489056  0.19470269  0.93698794  1
  Zn  Zn130  1  0.93971730  0.68901581  0.44127698  1
  Zn  Zn131  1  0.94238813  0.67881505  0.93803771  1
  Zn  Zn132  1  0.06781188  0.30732597  0.06736624  1
  Zn  Zn133  1  0.06154253  0.31043807  0.56999179  1
  Zn  Zn134  1  -0.07422045  0.81137140  0.05348836  1
  Zn  Zn135  1  0.06515471  0.82077643  0.55042963  1
  Zn  Zn136  1  0.56980773  0.31079606  0.06608902  1
  Zn  Zn137  1  0.55513568  0.30455636  0.55193597  1
  Zn  Zn138  1  0.55956405  0.82141235  0.05129964  1
  Zn  Zn139  1  0.46101375  0.81862137  0.56950488  1
  O  O140  1  0.11124649  0.13625279  0.12729735  1
  O  O141  1  0.10621935  0.11754869  0.63035133  1
  O  O142  1  0.11839270  0.61755042  0.13003287  1
  O  O143  1  0.12133975  0.62867194  0.63163323  1
  O  O144  1  0.63292172  0.12414622  0.10434114  1
  O  O145  1  0.64350229  0.11153838  0.61406119  1
  O  O146  1  0.61667910  0.61916014  0.11928903  1
  O  O147  1  0.63628964  0.63527964  0.60394273  1
  O  O148  1  0.38473762  0.36711959  0.38187077  1
  O  O149  1  0.38008475  0.37002017  0.88496191  1
  O  O150  1  0.39768675  0.86718095  0.36870898  1
  O  O151  1  0.35088408  0.86309956  0.88926094  1
  O  O152  1  0.88835234  0.38595904  0.36979088  1
  O  O153  1  0.87256460  0.39111967  0.88005263  1
  O  O154  1  0.88413233  0.87398332  0.37869267  1
  O  O155  1  0.88082141  0.88711089  0.87917181  1
  O  O156  1  0.24104028  0.01040882  0.36283221  1
  O  O157  1  0.23827107  0.00954177  0.86274864  1
  O  O158  1  0.24545605  0.51043079  0.36170254  1
  O  O159  1  0.19568192  0.43347259  0.85351026  1
  O  O160  1  0.77345101  0.00989018  0.39659148  1
  O  O161  1  0.76497170  -0.00530160  0.86449431  1
  O  O162  1  0.76085785  0.50449543  0.36473154  1
  O  O163  1  0.75908540  0.50522863  0.86917642  1
  O  O164  1  0.24178560  0.49355828  0.14357962  1
  O  O165  1  0.24961563  0.48354646  0.61048478  1
  O  O166  1  0.25025044  1.03582247  0.14628758  1
  O  O167  1  0.22172186  1.01036348  0.64288066  1
  O  O168  1  0.75158716  0.49971662  0.12583086  1
  O  O169  1  0.75704779  0.51498573  0.64744234  1
  O  O170  1  0.74212710  0.98625326  0.12387273  1
  O  O171  1  0.77409886  0.99167585  0.64158644  1
  O  O172  1  0.00730969  0.37157127  0.26007756  1
  O  O173  1  -0.00129830  0.36325535  0.74099405  1
  O  O174  1  -0.00903100  0.88124129  0.26860978  1
  O  O175  1  0.00778287  0.86414519  0.75178631  1
  O  O176  1  0.49713024  0.35880985  0.26477853  1
  O  O177  1  0.48694552  0.35269894  0.77068535  1
  O  O178  1  0.52115291  0.87736312  0.25810650  1
  O  O179  1  0.42589190  0.85657918  0.78522353  1
  O  O180  1  0.52019373  0.14228160  0.25548644  1
  O  O181  1  0.48681560  0.13681702  0.75967655  1
  O  O182  1  0.49115603  0.62261736  0.23842937  1
  O  O183  1  0.48263244  0.60861260  0.72869474  1
  O  O184  1  0.99050876  0.13595203  0.23722938  1
  O  O185  1  0.98773124  0.13771085  0.74721902  1
  O  O186  1  0.99647795  0.61971233  0.24138319  1
  O  O187  1  1.00515832  0.63910928  0.73695750  1
  O  O188  1  0.33331702  0.20755855  0.00874331  1
  O  O189  1  0.38691411  0.23441292  0.50821692  1
  O  O190  1  0.37026808  0.73967183  -0.00612700  1
  O  O191  1  0.40233978  0.73444361  0.52892203  1
  O  O192  1  0.86457284  0.24923031  0.00385002  1
  O  O193  1  0.86496099  0.25124705  0.51475569  1
  O  O194  1  0.87829331  0.72014936  0.01701087  1
  O  O195  1  0.87516653  0.74914228  0.51482142  1
  O  O196  1  0.12019070  0.25458831  0.48746198  1
  O  O197  1  0.13261345  0.28201544  0.97742756  1
  O  O198  1  0.13160876  0.75727500  0.48174300  1
  O  O199  1  0.12805602  0.73482731  0.98372505  1
  O  O200  1  0.63936571  0.24870349  0.50232366  1
  O  O201  1  0.63771902  0.24351832  0.99718709  1
  O  O202  1  0.63431074  0.73513788  0.47490974  1
  O  O203  1  0.61398452  0.73364206  0.99960075  1
  O  O204  1  0.51036583  0.25731432  0.14391393  1
  O  O205  1  0.49303907  0.25343636  0.63689398  1
  O  O206  1  0.50266612  0.73482488  0.11890640  1
  O  O207  1  0.50141564  0.84506445  0.67229892  1
  O  O208  1  0.99531182  0.24710546  0.13149524  1
  O  O209  1  0.98781486  0.24279060  0.63154607  1
  O  O210  1  1.00847215  0.73791872  0.12584947  1
  O  O211  1  0.99865416  0.74398844  0.62973619  1
  O  O212  1  0.00316226  0.26064108  0.37182662  1
  O  O213  1  -0.00229997  0.25615300  0.86015471  1
  O  O214  1  0.01099091  0.73984699  0.37007650  1
  O  O215  1  0.00688064  0.73730353  0.86150730  1
  O  O216  1  0.51885186  0.25413199  0.36357597  1
  O  O217  1  0.50032424  0.25600055  0.88514903  1
  O  O218  1  0.51289693  0.74554199  0.36803040  1
  O  O219  1  0.50586616  0.70551802  0.85245825  1
  O  O220  1  0.25003241  0.11138356  0.47944828  1
  O  O221  1  0.26668618  0.16073173  0.99872210  1
  O  O222  1  0.25960940  0.62194620  0.48356414  1
  O  O223  1  0.23515371  0.61496170  1.00958868  1
  O  O224  1  0.74399246  0.14678263  0.49871812  1
  O  O225  1  0.74911080  0.14044017  0.99741353  1
  O  O226  1  0.75519917  0.62237701  0.47907355  1
  O  O227  1  0.73675714  0.62581891  0.99901224  1
  O  O228  1  0.25160752  0.38571062  0.02446421  1
  O  O229  1  0.26908995  0.37421069  0.49985619  1
  O  O230  1  0.26291600  0.88234046  0.00223688  1
  O  O231  1  0.26274440  0.87732027  0.49862029  1
  O  O232  1  0.74900868  0.37341981  0.00488774  1
  O  O233  1  0.74754556  0.36674135  0.50827822  1
  O  O234  1  0.73753631  0.87436726  0.00991443  1
  O  O235  1  0.75866604  0.88233110  0.51669190  1
  O  O236  1  0.12799082  0.49118993  0.24666162  1
  O  O237  1  0.12518629  0.49767171  0.75398708  1
  O  O238  1  0.12228633  0.99524528  0.24416398  1
  O  O239  1  0.11764842  0.99420446  0.75713522  1
  O  O240  1  0.64213578  0.51076519  0.23594784  1
  O  O241  1  0.63081749  0.52289594  0.75664146  1
  O  O242  1  0.63577667  0.98778496  0.25274192  1
  O  O243  1  0.64660491  1.01538609  0.75486456  1
  O  O244  1  0.41012415  0.02385286  0.22399157  1
  O  O245  1  0.35569344  0.01285385  0.74771130  1
  O  O246  1  0.36750755  0.49878324  0.25163848  1
  O  O247  1  0.37629084  0.51202047  0.72551843  1
  O  O248  1  0.87370810  0.02101511  0.24510207  1
  O  O249  1  0.87865829  0.01236135  0.76719763  1
  O  O250  1  0.87464336  0.50816235  0.26148980  1
  O  O251  1  0.87878595  0.50324625  0.76647244  1
  O  O252  1  0.11976320  0.36960772  0.37082509  1
  O  O253  1  0.13849017  0.42456099  0.79102710  1
  O  O254  1  0.10441247  0.87161296  0.37972330  1
  O  O255  1  0.12296775  0.86249964  0.86631919  1
  O  O256  1  0.61561401  0.36356190  0.38302956  1
  O  O257  1  0.61119452  0.36164631  0.88314756  1
  O  O258  1  0.62406728  0.85941386  0.36802348  1
  O  O259  1  0.60768258  0.87175786  0.85415728  1
  O  O260  1  0.40294696  0.07891373  0.17598079  1
  O  O261  1  0.36965883  0.13090998  0.63009204  1
  O  O262  1  0.38873995  0.61916890  0.13468170  1
  O  O263  1  0.37014023  0.62822043  0.63405976  1
  O  O264  1  0.87858951  0.14257600  0.13076432  1
  O  O265  1  0.88474527  0.13277549  0.63747451  1
  O  O266  1  0.89370288  0.61710193  0.13953863  1
  O  O267  1  0.88343711  0.64269822  0.62646954  1
  O  O268  1  0.24393232  0.26241920  0.13680607  1
  O  O269  1  0.26380064  0.25312931  0.61800049  1
  O  O270  1  0.23236496  0.76252425  0.12525006  1
  O  O271  1  0.27765664  0.77100301  0.67951442  1
  O  O272  1  0.75708755  0.26208714  0.11024989  1
  O  O273  1  0.76181662  0.25075696  0.62244948  1
  O  O274  1  0.75031449  0.76571721  0.12754800  1
  O  O275  1  0.76643889  0.76761948  0.63799547  1
  O  O276  1  0.23701981  0.23434865  0.37082755  1
  O  O277  1  0.24129506  0.25136773  0.85964646  1
  O  O278  1  0.26110534  0.74195947  0.37921139  1
  O  O279  1  0.23629161  0.74977838  0.86016587  1
  O  O280  1  0.74423326  0.26605680  0.38917926  1
  O  O281  1  0.74365792  0.26122792  0.88606342  1
  O  O282  1  0.75767103  0.73596143  0.36628380  1
  O  O283  1  0.76156283  0.73778641  0.87244729  1
  O  O284  1  -0.00122825  0.12858057  0.01375281  1
  O  O285  1  -0.01156879  0.12756595  0.51641620  1
  O  O286  1  0.01631037  0.61476718  0.01597836  1
  O  O287  1  0.00143261  0.62148909  0.51602556  1
  O  O288  1  0.51071871  0.11248174  -0.00024294  1
  O  O289  1  0.53039942  0.13321821  0.49932885  1
  O  O290  1  0.50743737  0.61022257  0.01120846  1
  O  O291  1  0.52087423  0.61637201  0.48578252  1
  O  O292  1  0.48943268  0.36641457  0.48246392  1
  O  O293  1  0.49808283  0.37736691  1.00102078  1
  O  O294  1  0.52004640  0.87068556  0.48132477  1
  O  O295  1  0.47755479  0.87232091  0.98458351  1
  O  O296  1  1.00352556  0.38519157  0.49290249  1
  O  O297  1  1.01523563  0.39124207  1.00014881  1
  O  O298  1  0.99125564  0.87714656  0.48490289  1
  O  O299  1  0.99556203  0.89266808  1.01330981  1
  O  O300  1  0.51031346  0.48197405  0.36260220  1
  O  O301  1  0.50183968  0.47799199  0.89498740  1
  O  O302  1  0.50290799  0.98988861  0.37333305  1
  O  O303  1  0.50288500  0.99936535  0.88844527  1
  O  O304  1  0.99892691  0.49746852  0.38313512  1
  O  O305  1  0.98820960  0.51076688  0.89110674  1
  O  O306  1  0.99506679  1.00079216  0.37785797  1
  O  O307  1  0.98932243  1.01012593  0.89180226  1
  O  O308  1  -0.00595373  0.01765652  0.11422825  1
  O  O309  1  0.00213016  0.01344148  0.63195635  1
  O  O310  1  0.01116976  0.50000455  0.11988175  1
  O  O311  1  0.00509423  0.51637496  0.62260900  1
  O  O312  1  0.51994737  -0.02399792  0.09138242  1
  O  O313  1  0.48988168  0.01224805  0.64769005  1
  O  O314  1  0.51238264  0.49739735  0.12078282  1
  O  O315  1  0.51960711  0.45714166  0.63471448  1
  O  O316  1  0.24523004  0.38403424  0.25404491  1
  O  O317  1  0.28998396  0.37710848  0.71693874  1
  O  O318  1  0.26613386  0.90899128  0.24707079  1
  O  O319  1  0.22986896  0.89663797  0.75250549  1
  O  O320  1  0.76164991  0.38988836  0.23625332  1
  O  O321  1  0.73867534  0.39620440  0.75557171  1
  O  O322  1  0.74321313  0.87953599  0.24467084  1
  O  O323  1  0.75869796  0.89173668  0.74296130  1
  O  O324  1  0.24262785  0.11448550  0.26824267  1
  O  O325  1  0.25582202  0.12148488  0.74642406  1
  O  O326  1  0.26583790  0.61400433  0.24846732  1
  O  O327  1  0.27300303  0.61971759  0.74414472  1
  O  O328  1  0.76250297  0.12958115  0.24191482  1
  O  O329  1  0.76838047  0.11522902  0.74275737  1
  O  O330  1  0.76793340  0.61623558  0.25163733  1
  O  O331  1  0.75139189  0.62038001  0.76850854  1
  O  O332  1  0.36949930  0.12201431  0.37466996  1
  O  O333  1  0.36830431  0.13099912  0.86057875  1
  O  O334  1  0.37003440  0.62926176  0.35767860  1
  O  O335  1  0.38151859  0.60010010  0.84318122  1
  O  O336  1  0.87835683  0.14058818  0.35474101  1
  O  O337  1  0.87537503  0.12959299  0.86508029  1
  O  O338  1  0.87279453  0.61918091  0.36567887  1
  O  O339  1  0.86106175  0.60921741  0.89026079  1
  O  O340  1  0.13113086  0.38112183  0.13912427  1
  O  O341  1  0.14693647  0.36935942  0.62169486  1
  O  O342  1  0.19221422  0.82366144  0.11799801  1
  O  O343  1  0.11121573  0.89084164  0.63949890  1
  O  O344  1  0.64201351  0.38789609  0.12094019  1
  O  O345  1  0.57852375  0.41281498  0.62399569  1
  O  O346  1  0.63007790  0.86635347  0.13817956  1
  O  O347  1  0.64772297  0.89680025  0.61715273  1
  O  O348  1  0.11121603  0.26111705  0.26192500  1
  O  O349  1  0.11100553  0.24966885  0.74437603  1
  O  O350  1  0.14604132  0.76399092  0.27634582  1
  O  O351  1  0.11610702  0.76132483  0.75606825  1
  O  O352  1  0.64232767  0.25516123  0.26247444  1
  O  O353  1  0.60851779  0.24026039  0.75787637  1
  O  O354  1  0.63622289  0.75893148  0.25946823  1
  O  O355  1  0.60814519  0.72468727  0.74644885  1
  O  O356  1  0.38762637  0.23775071  0.25167180  1
  O  O357  1  0.38251567  0.23600089  0.73557376  1
  O  O358  1  0.36876230  0.74111883  0.24228613  1
  O  O359  1  0.38857595  0.71874679  0.75281064  1
  O  O360  1  0.88429065  0.24973448  0.24138354  1
  O  O361  1  0.87324571  0.24500026  0.74305295  1
  O  O362  1  0.87855376  0.73369332  0.25033517  1
  O  O363  1  0.89166462  0.75848982  0.74249695  1
  O  O364  1  0.38654899  0.48921195  0.49588912  1
  O  O365  1  0.39200942  0.50252769  1.00908968  1
  O  O366  1  0.32117408  0.92951095  0.51829093  1
  O  O367  1  0.38271669  1.00695784  0.99936461  1
  O  O368  1  0.88813424  0.50940533  0.48833575  1
  O  O369  1  0.89081290  0.50014610  1.00608991  1
  O  O370  1  0.82946875  1.01521684  0.44378577  1
  O  O371  1  0.87748943  1.00921456  0.98836954  1
  O  O372  1  0.11119234  -0.00272777  -0.00401802  1
  O  O373  1  0.12475001  -0.00448229  0.51660855  1
  O  O374  1  0.11894354  0.50673435  0.01024688  1
  O  O375  1  0.11452389  0.49846120  0.50352832  1
  O  O376  1  0.63783688  0.01883193  -0.01696071  1
  O  O377  1  0.64053755  0.01507937  0.48809279  1
  O  O378  1  0.61767014  0.50768766  0.01028775  1
  O  O379  1  0.64058585  0.51599900  0.49660206  1
  O  O380  1  0.36250217  0.37409112  0.13709211  1
  O  O381  1  0.37635635  0.35792626  0.59834131  1
  O  O382  1  0.37362505  0.87257946  0.10186922  1
  O  O383  1  0.36863546  0.90793239  0.57812262  1
  O  O384  1  0.87297151  0.36522304  0.12693505  1
  O  O385  1  0.87849891  0.36478685  0.62880002  1
  O  O386  1  0.86373189  0.88030410  0.12312408  1
  O  O387  1  0.87683360  0.86590440  0.62083358  1
  O  O388  1  0.11060560  0.14085287  0.37668761  1
  O  O389  1  0.12847733  0.13563002  0.89076729  1
  O  O390  1  0.14467790  0.63761000  0.36702576  1
  O  O391  1  0.12765126  0.62870437  0.88345797  1
  O  O392  1  0.63506368  0.14401936  0.38308420  1
  O  O393  1  0.62162874  0.14466447  0.88750895  1
  O  O394  1  0.64312435  0.63218371  0.36336969  1
  O  O395  1  0.64246845  0.61697548  0.89172794  1
