# generated using pymatgen
data_V35Zn35O128
_symmetry_space_group_name_H-M   'P 1'
_cell_length_a   16.82974632
_cell_length_b   16.86569968
_cell_length_c   16.83338596
_cell_angle_alpha   89.95681820
_cell_angle_beta   89.82905036
_cell_angle_gamma   90.05685466
_symmetry_Int_Tables_number   1
_chemical_formula_structural   V35Zn35O128
_chemical_formula_sum   'V70 Zn70 O256'
_cell_volume   4778.05497926
_cell_formula_units_Z   2
loop_
 _symmetry_equiv_pos_site_id
 _symmetry_equiv_pos_as_xyz
  1  'x, y, z'
loop_
 _atom_site_type_symbol
 _atom_site_label
 _atom_site_symmetry_multiplicity
 _atom_site_fract_x
 _atom_site_fract_y
 _atom_site_fract_z
 _atom_site_occupancy
  V  V0  1  0.25103109  0.49635457  0.23959289  1
  V  V1  1  0.49214571  0.12602123  0.13486493  1
  V  V2  1  0.13577722  0.25516977  0.37158740  1
  V  V3  1  0.00344496  0.38063217  0.36235852  1
  V  V4  1  0.36872381  0.50825516  0.87533599  1
  V  V5  1  0.39119135  -0.00086218  0.37263476  1
  V  V6  1  0.12898609  -0.01496647  0.62764140  1
  V  V7  1  0.25945476  -0.00233405  0.74808780  1
  V  V8  1  0.74818619  0.86874266  0.61920033  1
  V  V9  1  0.01649390  0.25157981  0.74037344  1
  V  V10  1  0.62222643  0.74859381  0.38460843  1
  V  V11  1  0.00295653  0.50123589  0.51142806  1
  V  V12  1  0.50436141  0.51597976  0.00751616  1
  V  V13  1  0.51229761  0.26910468  0.24325849  1
  V  V14  1  0.75808999  0.00491191  0.24792545  1
  V  V15  1  0.76458896  0.00998225  0.76028885  1
  V  V16  1  0.50031339  0.63100596  0.61109460  1
  V  V17  1  0.13295567  0.73824358  0.88022252  1
  V  V18  1  0.87563644  0.36843144  -0.00300383  1
  V  V19  1  0.74095073  0.47165942  0.74812321  1
  V  V20  1  0.86105373  0.26315284  0.62097703  1
  V  V21  1  0.10740595  0.01137159  0.12533811  1
  V  V22  1  0.89463371  0.74606453  0.11637784  1
  V  V23  1  0.87734552  0.24065980  0.13589100  1
  V  V24  1  0.00924125  0.36980765  0.86268991  1
  V  V25  1  0.13382271  0.12382970  -0.01797970  1
  V  V26  1  0.50959115  0.37859669  0.87400463  1
  V  V27  1  0.74556612  0.50334991  0.24977553  1
  V  V28  1  0.88321269  0.00572778  0.37959751  1
  V  V29  1  0.74387774  0.37622378  0.12987752  1
  V  V30  1  0.24276693  0.35916790  0.12643183  1
  V  V31  1  0.38055180  0.49143409  0.39491268  1
  V  V32  1  0.87920135  0.50259420  0.37247127  1
  V  V33  1  0.88164039  0.86938813  0.50087220  1
  V  V34  1  0.86142721  0.62639533  0.74635806  1
  V  V35  1  0.62405569  0.51974998  0.12459353  1
  V  V36  1  0.74287242  0.23773976  0.00153442  1
  V  V37  1  0.62883544  0.23861111  0.87103005  1
  V  V38  1  0.74092251  0.12694710  0.39015494  1
  V  V39  1  -0.00904236  0.12081166  0.61732348  1
  V  V40  1  0.86768699  0.50262751  0.87666741  1
  V  V41  1  0.62334493  0.87542798  0.76028502  1
  V  V42  1  0.25216913  0.62809170  0.36870293  1
  V  V43  1  0.74773801  0.63210261  0.38501220  1
  V  V44  1  0.89077032  0.63292701  0.24391642  1
  V  V45  1  0.49650296  0.74355192  0.76154168  1
  V  V46  1  0.26081282  0.88665902  0.11810429  1
  V  V47  1  0.00092866  0.74271490  0.74771481  1
  V  V48  1  0.38157394  0.35880203  0.01179225  1
  V  V49  1  -0.00339986  0.23532876  0.25136412  1
  V  V50  1  0.00583415  0.88529040  0.87151206  1
  V  V51  1  0.24607820  0.76236904  0.49654852  1
  V  V52  1  0.88241999  0.88486910  -0.00572064  1
  V  V53  1  0.61775721  0.01156348  0.61311003  1
  V  V54  1  0.63971319  0.73760863  0.88830522  1
  V  V55  1  0.37421175  0.26912842  0.61857429  1
  V  V56  1  0.39633594  0.88035562  0.50481917  1
  V  V57  1  0.12368310  0.62615131  0.50978285  1
  V  V58  1  0.13365176  0.87164200  0.24774575  1
  V  V59  1  0.36640180  0.00773439  0.88239411  1
  V  V60  1  0.49439985  0.23401671  0.75159206  1
  V  V61  1  0.62446846  0.50208252  0.61410509  1
  V  V62  1  0.01127893  0.50284051  0.00638773  1
  V  V63  1  0.74914360  0.86104038  0.12090859  1
  V  V64  1  0.25519719  0.11316526  0.36532789  1
  V  V65  1  0.51481490  0.00375189  -0.00584283  1
  V  V66  1  0.00154866  0.86177948  0.36328091  1
  V  V67  1  0.62075814  0.87389530  0.25296423  1
  V  V68  1  0.13105702  0.12282954  0.50327189  1
  V  V69  1  0.49171014  0.73550803  0.23868901  1
  Zn  Zn70  1  0.36980517  0.75248290  0.63678722  1
  Zn  Zn71  1  0.85023430  0.37195305  0.49610453  1
  Zn  Zn72  1  0.63721951  0.01828332  0.11604938  1
  Zn  Zn73  1  0.87575896  0.73631355  0.61500755  1
  Zn  Zn74  1  0.25380335  0.74908534  0.00552007  1
  Zn  Zn75  1  0.38412882  0.86845953  -0.01207091  1
  Zn  Zn76  1  0.18963400  0.18432842  0.18862597  1
  Zn  Zn77  1  0.19501535  0.18428171  0.69049344  1
  Zn  Zn78  1  0.20246636  0.70265689  0.19513830  1
  Zn  Zn79  1  0.17025220  0.72373554  0.67019254  1
  Zn  Zn80  1  0.67979082  0.19026329  0.19483036  1
  Zn  Zn81  1  0.68488068  0.18613976  0.68919372  1
  Zn  Zn82  1  0.69033652  0.68944002  0.19441683  1
  Zn  Zn83  1  0.68346293  0.68863610  0.68834104  1
  Zn  Zn84  1  0.31727056  0.31945421  0.31152923  1
  Zn  Zn85  1  0.34629843  0.35474777  0.78020468  1
  Zn  Zn86  1  0.31687499  0.82093794  0.31603558  1
  Zn  Zn87  1  0.31214276  0.82774962  0.81447720  1
  Zn  Zn88  1  0.78488086  0.32620214  0.33667279  1
  Zn  Zn89  1  0.83515865  0.26730564  0.82423975  1
  Zn  Zn90  1  0.81444566  0.81251809  0.30914052  1
  Zn  Zn91  1  0.81135692  0.81551073  0.81158041  1
  Zn  Zn92  1  0.18509276  0.44696335  0.43209117  1
  Zn  Zn93  1  0.19097658  0.42127509  0.93624080  1
  Zn  Zn94  1  0.17822465  0.94298820  0.43451346  1
  Zn  Zn95  1  0.18289441  0.94367750  0.93940376  1
  Zn  Zn96  1  0.67646316  0.43771272  0.44757323  1
  Zn  Zn97  1  0.68890244  0.43773993  0.94413370  1
  Zn  Zn98  1  0.68979242  0.93781751  0.43609162  1
  Zn  Zn99  1  0.69513547  0.93356319  0.93727697  1
  Zn  Zn100  1  0.30661007  0.06644994  0.06790489  1
  Zn  Zn101  1  0.30805096  0.05977242  0.55694851  1
  Zn  Zn102  1  0.28615770  0.52912243  0.02915332  1
  Zn  Zn103  1  0.31335480  0.57327320  0.56795380  1
  Zn  Zn104  1  0.82003710  0.06135333  0.06251155  1
  Zn  Zn105  1  0.80613435  0.05659333  0.56509768  1
  Zn  Zn106  1  0.81663818  0.56591565  0.06122711  1
  Zn  Zn107  1  0.80967011  0.55634955  0.56533972  1
  Zn  Zn108  1  0.43102046  0.44919523  0.19397088  1
  Zn  Zn109  1  0.44066680  0.45126661  0.68506318  1
  Zn  Zn110  1  0.44186090  0.94804869  0.18702811  1
  Zn  Zn111  1  0.43853902  0.93584574  0.68944967  1
  Zn  Zn112  1  0.93646948  0.43614378  0.18573622  1
  Zn  Zn113  1  0.92788196  0.43278325  0.68823342  1
  Zn  Zn114  1  0.93698311  0.93675493  0.18614753  1
  Zn  Zn115  1  0.94197263  0.93630309  0.68935699  1
  Zn  Zn116  1  0.06583337  0.05842130  0.31189748  1
  Zn  Zn117  1  0.06268479  0.06473622  0.80213384  1
  Zn  Zn118  1  0.07346739  0.56759682  0.31183014  1
  Zn  Zn119  1  0.06212663  0.56300552  0.81379748  1
  Zn  Zn120  1  0.56555663  0.06404797  0.31099860  1
  Zn  Zn121  1  0.56887560  0.05795931  0.81084818  1
  Zn  Zn122  1  0.55618404  0.56349036  0.31656082  1
  Zn  Zn123  1  0.56851498  0.56550653  0.81223038  1
  Zn  Zn124  1  0.43474293  0.19297792  0.44633778  1
  Zn  Zn125  1  0.44007051  0.17891210  0.93849147  1
  Zn  Zn126  1  0.43282419  0.69343410  0.43105924  1
  Zn  Zn127  1  0.43887267  0.69239448  0.93617240  1
  Zn  Zn128  1  0.93568242  0.18907427  0.43907839  1
  Zn  Zn129  1  0.94910536  0.17341510  0.93394268  1
  Zn  Zn130  1  0.93956198  0.68517900  0.43533061  1
  Zn  Zn131  1  0.94249123  0.68753534  0.93560738  1
  Zn  Zn132  1  0.05999402  0.30855736  0.06014339  1
  Zn  Zn133  1  0.05210937  0.30800644  0.54623484  1
  Zn  Zn134  1  0.07056446  0.81764112  0.05937517  1
  Zn  Zn135  1  0.05505742  0.80873491  0.55419293  1
  Zn  Zn136  1  0.56260148  0.31163041  0.06553994  1
  Zn  Zn137  1  0.55525860  0.31658774  0.56778985  1
  Zn  Zn138  1  0.55658927  0.81481144  0.06094989  1
  Zn  Zn139  1  0.56402434  0.81194200  0.56779527  1
  O  O140  1  0.12281996  0.11305719  0.13209865  1
  O  O141  1  0.12136540  0.12804041  0.61050657  1
  O  O142  1  0.12286433  0.64149158  0.12567818  1
  O  O143  1  0.12351756  0.63079932  0.61037668  1
  O  O144  1  0.61328527  0.12870377  0.12674532  1
  O  O145  1  0.62782719  0.11193812  0.62350659  1
  O  O146  1  0.63517232  0.61781421  0.11996456  1
  O  O147  1  0.61429823  0.61796879  0.63278815  1
  O  O148  1  0.36550982  0.39075584  0.38355819  1
  O  O149  1  0.39098825  0.38434355  0.89390711  1
  O  O150  1  0.37260047  0.88993266  0.39013991  1
  O  O151  1  0.38275110  0.89829061  0.87215482  1
  O  O152  1  0.88655069  0.39261446  0.36973151  1
  O  O153  1  0.88097503  0.37384621  0.88181363  1
  O  O154  1  0.88107912  0.87715289  0.38116902  1
  O  O155  1  0.88073257  0.86692194  0.89065227  1
  O  O156  1  0.25022335  0.01096475  0.37564413  1
  O  O157  1  0.25855323  -0.00201718  0.86630484  1
  O  O158  1  0.25723221  0.50934545  0.37007921  1
  O  O159  1  0.26878513  0.50469671  0.90788798  1
  O  O160  1  0.76029759  0.00387879  0.36566314  1
  O  O161  1  0.75252429  -0.00720605  0.86058542  1
  O  O162  1  0.75744737  0.51387571  0.36744365  1
  O  O163  1  0.76135253  0.48431456  0.86403243  1
  O  O164  1  0.25909158  0.49268244  0.13529540  1
  O  O165  1  0.24247497  0.50861309  0.65397391  1
  O  O166  1  0.23421742  0.99107822  0.12574730  1
  O  O167  1  0.23762199  1.00048899  0.62828430  1
  O  O168  1  0.74295333  0.49749227  0.12937201  1
  O  O169  1  0.73791366  0.50140898  0.63780017  1
  O  O170  1  0.75528184  0.99014189  0.13488374  1
  O  O171  1  0.74208338  0.98822484  0.63378808  1
  O  O172  1  0.00241088  0.37380178  0.25877127  1
  O  O173  1  0.00019381  0.37085663  0.75358249  1
  O  O174  1  -0.00184000  0.87186817  0.25995853  1
  O  O175  1  -0.01698003  0.85740099  0.76492968  1
  O  O176  1  0.50259588  0.36866385  0.23673603  1
  O  O177  1  0.49828239  0.37499232  0.77218178  1
  O  O178  1  0.51981502  0.87734559  0.24665053  1
  O  O179  1  0.51930459  0.86455119  0.74234870  1
  O  O180  1  0.50331017  0.12783017  0.23965092  1
  O  O181  1  0.50487952  0.13528824  0.75191650  1
  O  O182  1  0.50256060  0.63500339  0.24403138  1
  O  O183  1  0.50316823  0.64018413  0.74978526  1
  O  O184  1  0.99385725  0.13708038  0.25860973  1
  O  O185  1  1.00830975  0.14148911  0.73195833  1
  O  O186  1  0.98940040  0.62303354  0.25423531  1
  O  O187  1  0.98887236  0.63547146  0.75519662  1
  O  O188  1  0.38358826  0.26028933  -0.00135929  1
  O  O189  1  0.39174857  0.27683480  0.51898285  1
  O  O190  1  0.36581274  0.75597834  -0.01169660  1
  O  O191  1  0.36301319  0.76740706  0.49383019  1
  O  O192  1  0.86683514  0.25694252  0.01357832  1
  O  O193  1  0.88587368  0.25781637  0.51407749  1
  O  O194  1  0.87939546  0.75179987  0.01268999  1
  O  O195  1  0.87896711  0.76222541  0.49972235  1
  O  O196  1  0.11580111  0.23685291  0.47858542  1
  O  O197  1  0.10954548  0.22946920  0.99573851  1
  O  O198  1  0.13229755  0.74033469  0.49964893  1
  O  O199  1  0.13128142  0.75374644  0.98557657  1
  O  O200  1  0.56234803  0.24029098  0.47486655  1
  O  O201  1  0.63795091  0.25194605  0.99755675  1
  O  O202  1  0.62587596  0.75827182  0.48317392  1
  O  O203  1  0.62015855  0.76072311  0.98594845  1
  O  O204  1  0.50237496  0.24160776  0.13558316  1
  O  O205  1  0.49189323  0.26035168  0.64555042  1
  O  O206  1  0.50130124  0.75530584  0.13935219  1
  O  O207  1  0.50674967  0.74117075  0.63855166  1
  O  O208  1  0.98896152  0.25828911  0.14046774  1
  O  O209  1  0.99835150  0.24570690  0.62618250  1
  O  O210  1  0.99307132  0.75469140  0.12329892  1
  O  O211  1  0.99432642  0.75703966  0.64204868  1
  O  O212  1  -0.00186317  0.25959315  0.36400780  1
  O  O213  1  -0.00151584  0.26029570  0.85240505  1
  O  O214  1  0.00025168  0.76255672  0.37522444  1
  O  O215  1  0.00970201  0.75457359  0.86769326  1
  O  O216  1  0.45999025  0.24899757  0.34358760  1
  O  O217  1  0.51034438  0.25667267  0.87268212  1
  O  O218  1  0.51862096  0.74183631  0.36467716  1
  O  O219  1  0.51309145  0.75025796  0.86466696  1
  O  O220  1  0.23602161  0.12907288  0.49181590  1
  O  O221  1  0.23347525  0.12831496  1.00604829  1
  O  O222  1  0.23781952  0.63037634  0.49623289  1
  O  O223  1  0.15218896  0.61815426  1.05846718  1
  O  O224  1  0.75450266  0.12542987  0.49030577  1
  O  O225  1  0.75354087  0.13907788  1.00731315  1
  O  O226  1  0.76266064  0.62576967  0.48369704  1
  O  O227  1  0.75925581  0.60283962  0.97504004  1
  O  O228  1  0.26814966  0.37933127  0.01466188  1
  O  O229  1  0.21728629  0.37993441  0.53610146  1
  O  O230  1  0.25211248  0.88048825  0.01019652  1
  O  O231  1  0.23687719  0.86179469  0.49097590  1
  O  O232  1  0.75878457  0.36846676  0.00957395  1
  O  O233  1  0.75066426  0.35940901  0.44329691  1
  O  O234  1  0.76286695  0.87745445  0.01521507  1
  O  O235  1  0.76015876  0.87521135  0.51183546  1
  O  O236  1  0.14933338  0.50356583  0.25529874  1
  O  O237  1  0.14723820  0.50236185  0.74777283  1
  O  O238  1  0.11627196  0.98926727  0.23750987  1
  O  O239  1  0.12498994  0.99621625  0.73099216  1
  O  O240  1  0.63343406  0.50950897  0.23786703  1
  O  O241  1  0.63872927  0.49581939  0.75236657  1
  O  O242  1  0.64096159  0.98397165  0.25403540  1
  O  O243  1  0.63274311  0.98607434  0.74444568  1
  O  O244  1  0.37985554  -0.00567731  0.27259888  1
  O  O245  1  0.36614767  -0.00010729  0.75213889  1
  O  O246  1  0.35978460  0.50297180  0.26498288  1
  O  O247  1  0.36501306  0.47773543  0.77509384  1
  O  O248  1  0.86449248  -0.00941672  0.26139031  1
  O  O249  1  0.86412818  -0.00139786  0.74281364  1
  O  O250  1  0.87064477  0.51298207  0.25354411  1
  O  O251  1  0.86186107  0.50370336  0.75611785  1
  O  O252  1  0.12209167  0.36144975  0.37933699  1
  O  O253  1  0.10828139  0.37604299  0.87202419  1
  O  O254  1  0.10954097  0.88608032  0.36166776  1
  O  O255  1  0.10937640  0.87154204  0.87854088  1
  O  O256  1  0.58462358  0.29556375  0.41723153  1
  O  O257  1  0.61280569  0.36760265  0.88832632  1
  O  O258  1  0.64082115  0.86096044  0.36101424  1
  O  O259  1  0.62937558  0.87044752  0.86234910  1
  O  O260  1  0.39038905  0.11846748  0.12664692  1
  O  O261  1  0.39699753  0.13659486  0.59744595  1
  O  O262  1  0.23763838  0.63432945  0.04940525  1
  O  O263  1  0.39221236  0.63291055  0.62744237  1
  O  O264  1  0.87346935  0.14181355  0.12627216  1
  O  O265  1  0.88871678  0.12912490  0.61443635  1
  O  O266  1  0.87669643  0.63394064  0.13344214  1
  O  O267  1  0.87206680  0.62088769  0.64028027  1
  O  O268  1  0.25773008  0.26044426  0.13798355  1
  O  O269  1  0.28061500  0.23352754  0.63397723  1
  O  O270  1  0.24631169  0.77916577  0.12531276  1
  O  O271  1  0.25641718  0.74566689  0.60529415  1
  O  O272  1  0.75717644  0.25638171  0.12308560  1
  O  O273  1  0.76291689  0.24435370  0.62763680  1
  O  O274  1  0.75952746  0.75907174  0.12830616  1
  O  O275  1  0.75763297  0.76457715  0.63289827  1
  O  O276  1  0.23831380  0.24534198  0.36796991  1
  O  O277  1  0.24682479  0.24085251  0.86841650  1
  O  O278  1  0.25510650  0.73875350  0.38435926  1
  O  O279  1  0.23339103  0.75793567  0.86433074  1
  O  O280  1  0.76181635  0.21889490  0.35398168  1
  O  O281  1  0.73679466  0.25907024  0.88987052  1
  O  O282  1  0.74454489  0.73775789  0.36603546  1
  O  O283  1  0.73942574  0.75474243  0.87563102  1
  O  O284  1  0.01983598  0.13892531  0.00897772  1
  O  O285  1  0.01050297  0.12802678  0.50982979  1
  O  O286  1  -0.00529314  0.60196029  -0.00978509  1
  O  O287  1  0.01015177  0.61486848  0.49314093  1
  O  O288  1  0.49966840  0.11168472  0.01245286  1
  O  O289  1  0.45824148  0.12682180  0.54738130  1
  O  O290  1  0.50132550  0.61387618  0.00018277  1
  O  O291  1  0.50205827  0.64095252  0.51175264  1
  O  O292  1  0.57070367  0.37093981  0.44683652  1
  O  O293  1  0.49476045  0.37935337  0.99896532  1
  O  O294  1  0.49533447  0.87125677  0.49653946  1
  O  O295  1  0.49313816  0.90052119  1.01682848  1
  O  O296  1  1.00248766  0.39219146  0.48420647  1
  O  O297  1  0.99191130  0.37524090  0.98650447  1
  O  O298  1  0.98805889  0.87691691  0.48734235  1
  O  O299  1  0.99065702  0.87191042  0.98858060  1
  O  O300  1  0.48150800  0.50770573  0.37856514  1
  O  O301  1  0.50429056  0.49214665  0.88821761  1
  O  O302  1  0.49029516  1.01258899  0.38269514  1
  O  O303  1  0.49934218  1.00598856  0.89001450  1
  O  O304  1  0.99547097  0.49861139  0.37356229  1
  O  O305  1  0.98633713  0.48536688  0.86975181  1
  O  O306  1  0.98598809  0.99158820  0.36950026  1
  O  O307  1  0.99902273  0.98418158  0.85951866  1
  O  O308  1  0.00559131  0.00027241  0.12331108  1
  O  O309  1  0.00988429  0.01572104  0.63006703  1
  O  O310  1  -0.00344071  0.49007057  0.10626492  1
  O  O311  1  -0.00817508  0.49359919  0.60972136  1
  O  O312  1  0.51191117  0.01283979  0.12243468  1
  O  O313  1  0.51966293  -0.00691324  0.63267593  1
  O  O314  1  0.51375763  0.50243894  0.11997787  1
  O  O315  1  0.50967229  0.51953016  0.63063949  1
  O  O316  1  0.25556419  0.38353033  0.23719297  1
  O  O317  1  0.24616969  0.31061585  0.84244642  1
  O  O318  1  0.23876632  0.87811152  0.24811867  1
  O  O319  1  0.24510748  0.89374363  0.74662877  1
  O  O320  1  0.75790208  0.39339339  0.24475317  1
  O  O321  1  0.74956090  0.37552755  0.74699989  1
  O  O322  1  0.74941894  0.87894496  0.23774787  1
  O  O323  1  0.74492588  0.88075352  0.73964160  1
  O  O324  1  0.25346781  0.12746804  0.26643926  1
  O  O325  1  0.23819486  0.10010125  0.74928814  1
  O  O326  1  0.25140695  0.62327695  0.26194046  1
  O  O327  1  0.20393079  0.54766318  0.71112531  1
  O  O328  1  0.74774648  0.10517032  0.24634726  1
  O  O329  1  0.74593693  0.10923586  0.74902435  1
  O  O330  1  0.76106766  0.61744201  0.25469248  1
  O  O331  1  0.76075359  0.62564135  0.75358975  1
  O  O332  1  0.36113898  0.11295404  0.39380039  1
  O  O333  1  0.38168723  0.10868007  0.87070318  1
  O  O334  1  0.35762792  0.61668072  0.38846529  1
  O  O335  1  0.38886130  0.60579143  0.87339108  1
  O  O336  1  0.87391512  0.10793181  0.38183583  1
  O  O337  1  0.86388320  0.16553454  0.86891112  1
  O  O338  1  0.86918448  0.62320179  0.36248019  1
  O  O339  1  0.87764392  0.60650601  0.86631347  1
  O  O340  1  0.14335298  0.36728879  0.11414358  1
  O  O341  1  0.16234223  0.36526111  0.58631330  1
  O  O342  1  0.12613233  0.88725035  0.13368428  1
  O  O343  1  0.11599901  0.88712526  0.61343379  1
  O  O344  1  0.64071762  0.38046037  0.12247861  1
  O  O345  1  0.60915028  0.40020899  0.61897661  1
  O  O346  1  0.64124830  0.87211204  0.13413549  1
  O  O347  1  0.63981740  0.87448870  0.63080576  1
  O  O348  1  0.11029626  0.24288999  0.26317266  1
  O  O349  1  0.11663278  0.25899928  0.73257947  1
  O  O350  1  0.12204451  0.77139996  0.24663672  1
  O  O351  1  0.10861155  0.74871095  0.75815239  1
  O  O352  1  0.61178302  0.25535828  0.26103802  1
  O  O353  1  0.61814740  0.25051656  0.76476041  1
  O  O354  1  0.61922643  0.75929270  0.25366753  1
  O  O355  1  0.62250846  0.75929751  0.75939484  1
  O  O356  1  0.40049418  0.24142037  0.28073098  1
  O  O357  1  0.39199989  0.24733734  0.75904079  1
  O  O358  1  0.39475744  0.75790100  0.26254265  1
  O  O359  1  0.39291876  0.76306690  0.75443217  1
  O  O360  1  0.88315719  0.25568809  0.24137421  1
  O  O361  1  0.89212862  0.25860600  0.72499057  1
  O  O362  1  0.87515879  0.73849874  0.23941212  1
  O  O363  1  0.87929131  0.73497168  0.75622702  1
  O  O364  1  0.36313264  0.49917170  0.49707107  1
  O  O365  1  0.39518728  0.49520588  0.99923157  1
  O  O366  1  0.37164082  0.98521816  0.49773081  1
  O  O367  1  0.37482874  1.00303269  0.98914385  1
  O  O368  1  0.88573422  0.50527850  0.48770141  1
  O  O369  1  0.88085246  0.48745637  0.98739427  1
  O  O370  1  0.86852009  0.98535825  0.48577289  1
  O  O371  1  0.87843221  0.98458298  1.00360405  1
  O  O372  1  0.12151142  0.01219726  0.01250510  1
  O  O373  1  0.12450791  0.01429406  0.50961619  1
  O  O374  1  0.11036301  0.48796495  -0.01017734  1
  O  O375  1  0.11311344  0.51063924  0.49994206  1
  O  O376  1  0.61972669  -0.00456145  -0.00064800  1
  O  O377  1  0.62880559  -0.00810110  0.51351244  1
  O  O378  1  0.61671027  0.49756402  0.01367061  1
  O  O379  1  0.63409616  0.51635650  0.51384503  1
  O  O380  1  0.37642453  0.37652415  0.11518314  1
  O  O381  1  0.36607546  0.36797672  0.65687446  1
  O  O382  1  0.36218834  0.89309951  0.12641584  1
  O  O383  1  0.38120540  0.87025235  0.61041726  1
  O  O384  1  0.86508753  0.37035030  0.11768827  1
  O  O385  1  0.86543318  0.37069825  0.61420718  1
  O  O386  1  0.87192629  0.86256033  0.11833131  1
  O  O387  1  0.87145228  0.87899943  0.61080141  1
  O  O388  1  0.13336690  0.12753375  0.38070142  1
  O  O389  1  0.12725952  0.11130413  0.88208891  1
  O  O390  1  0.14234673  0.62218536  0.38682746  1
  O  O391  1  0.12600187  0.63762338  0.87384131  1
  O  O392  1  0.64143339  0.11339091  0.37733936  1
  O  O393  1  0.62309614  0.14002732  0.87833516  1
  O  O394  1  0.63934409  0.63348986  0.37113435  1
  O  O395  1  0.62750780  0.63748619  0.87699997  1
