# generated using pymatgen
data_V35Zn35O128
_symmetry_space_group_name_H-M   'P 1'
_cell_length_a   16.92160556
_cell_length_b   16.85812329
_cell_length_c   16.88603241
_cell_angle_alpha   89.77089694
_cell_angle_beta   90.06334809
_cell_angle_gamma   90.23797271
_symmetry_Int_Tables_number   1
_chemical_formula_structural   V35Zn35O128
_chemical_formula_sum   'V70 Zn70 O256'
_cell_volume   4816.93666849
_cell_formula_units_Z   2
loop_
 _symmetry_equiv_pos_site_id
 _symmetry_equiv_pos_as_xyz
  1  'x, y, z'
loop_
 _atom_site_type_symbol
 _atom_site_label
 _atom_site_symmetry_multiplicity
 _atom_site_fract_x
 _atom_site_fract_y
 _atom_site_fract_z
 _atom_site_occupancy
  V  V0  1  -0.00363777  0.24469368  0.73053162  1
  V  V1  1  0.39047600  0.37720882  0.49551783  1
  V  V2  1  0.36913412  0.25168790  0.62228446  1
  V  V3  1  0.08194507  0.20140563  0.93099867  1
  V  V4  1  0.26043043  0.24973768  0.01528647  1
  V  V5  1  0.37129272  0.12014979  0.75020567  1
  V  V6  1  0.73366753  0.47912982  0.25981993  1
  V  V7  1  0.51575794  0.12461232  0.12339083  1
  V  V8  1  -0.02784170  0.50252110  -0.01224439  1
  V  V9  1  0.25424413  0.84775366  0.61843574  1
  V  V10  1  0.38243514  -0.00277125  0.38284790  1
  V  V11  1  0.63209684  0.77699524  0.38061325  1
  V  V12  1  0.51061227  0.25643089  0.25533413  1
  V  V13  1  0.49631274  0.74638873  0.73799528  1
  V  V14  1  0.62000107  0.51546290  0.63309964  1
  V  V15  1  0.38338861  0.86360866  0.49879851  1
  V  V16  1  0.39528790  0.50786682  0.37783636  1
  V  V17  1  0.62987659  0.48654075  0.11349765  1
  V  V18  1  0.88129078  0.13558571  0.24518692  1
  V  V19  1  0.14282252  0.00074270  0.61958006  1
  V  V20  1  0.62676846  0.88780558  0.22314939  1
  V  V21  1  0.74102135  0.12533475  0.86802357  1
  V  V22  1  0.76974811  0.50493537  0.75042657  1
  V  V23  1  0.62407842  -0.00351493  0.62056170  1
  V  V24  1  0.74409701  0.75409556  0.01179586  1
  V  V25  1  0.63174239  0.37613951  0.75663480  1
  V  V26  1  0.62753249  0.87872246  0.75419578  1
  V  V27  1  0.23620708  -0.00652515  0.25127290  1
  V  V28  1  0.74273787  0.12305578  0.38343101  1
  V  V29  1  0.22776994  0.86694515  0.13296600  1
  V  V30  1  0.01890661  0.86633274  0.37049702  1
  V  V31  1  0.89642474  0.87454962  0.00415053  1
  V  V32  1  0.39564557  0.49466452  0.88061410  1
  V  V33  1  0.37934317  0.62534547  0.24635574  1
  V  V34  1  0.37813121  0.62343433  0.73931184  1
  V  V35  1  0.63002047  0.63135300  0.49192092  1
  V  V36  1  0.50193681  0.25501245  0.76256193  1
  V  V37  1  0.11965422  0.74929674  0.86712228  1
  V  V38  1  0.87753714  0.50856162  0.38018953  1
  V  V39  1  0.24151041  0.48357148  0.25431289  1
  V  V40  1  -0.00999893  0.11014271  0.62565368  1
  V  V41  1  0.25358571  0.60960337  0.87078360  1
  V  V42  1  0.25378888  0.39860480  0.62758717  1
  V  V43  1  0.10608707  0.50120808  0.61855892  1
  V  V44  1  0.37137767  0.87165309  0.01314962  1
  V  V45  1  0.74980152  0.26070591  0.00432711  1
  V  V46  1  0.12926416  0.87793659  0.75367054  1
  V  V47  1  0.49565007  0.86718794  0.87492760  1
  V  V48  1  0.12313981  0.13361912  0.49921195  1
  V  V49  1  -0.01266197  0.38165920  0.87162168  1
  V  V50  1  0.75832724  0.63402216  0.87421965  1
  V  V51  1  0.85914018  0.32642738  0.53360103  1
  V  V52  1  0.50185154  0.76060226  0.24638744  1
  V  V53  1  0.25186141  0.74559343  0.00245956  1
  V  V54  1  0.36608754  -0.00339915  0.87362776  1
  V  V55  1  0.36400497  0.12831036  0.23582160  1
  V  V56  1  0.84648093  0.63389927  0.24607804  1
  V  V57  1  0.13267026  0.37625626  0.76033880  1
  V  V58  1  0.75009513  0.00455057  0.23008903  1
  V  V59  1  0.12187568  0.60767375  -0.00301940  1
  V  V60  1  0.87412089  -0.01624461  0.38346088  1
  V  V61  1  0.90010044  0.00423461  0.87528274  1
  V  V62  1  -0.00723981  0.61333850  0.13748724  1
  V  V63  1  0.51260380  0.62351505  0.11611720  1
  V  V64  1  0.24785435  0.13103922  0.37959902  1
  V  V65  1  0.25390763  0.13541565  0.87475470  1
  V  V66  1  -0.00541978  0.65137195  0.65877483  1
  V  V67  1  0.50005280  0.11835994  0.61465770  1
  V  V68  1  0.38195683  0.37758782  0.01506252  1
  V  V69  1  0.02498752  0.25670195  0.26340312  1
  Zn  Zn70  1  0.62942110  0.12241005  -0.00274082  1
  Zn  Zn71  1  0.88046887  0.25988732  0.12051163  1
  Zn  Zn72  1  0.20378024  0.30569749  0.45240100  1
  Zn  Zn73  1  -0.01872757  0.77389537  0.22912338  1
  Zn  Zn74  1  0.76536743  0.00755623  0.74825078  1
  Zn  Zn75  1  0.50218801  -0.00310792  0.00681263  1
  Zn  Zn76  1  0.17985718  0.31669488  0.17700297  1
  Zn  Zn77  1  0.18614643  0.19431241  0.68752484  1
  Zn  Zn78  1  0.20120620  0.65028157  0.17206506  1
  Zn  Zn79  1  0.18649802  0.67735804  0.68744512  1
  Zn  Zn80  1  0.69409395  0.19965093  0.19074154  1
  Zn  Zn81  1  0.68045043  0.18337290  0.69055180  1
  Zn  Zn82  1  0.67927109  0.69941883  0.18115073  1
  Zn  Zn83  1  0.68879743  0.69025503  0.70864432  1
  Zn  Zn84  1  0.32761284  0.31494542  0.30965824  1
  Zn  Zn85  1  0.31779896  0.31714721  0.81314554  1
  Zn  Zn86  1  0.31831267  0.81365644  0.31043056  1
  Zn  Zn87  1  0.30853164  0.80573995  0.81038253  1
  Zn  Zn88  1  0.77873596  0.33040700  0.36632711  1
  Zn  Zn89  1  0.80995597  0.30462298  0.80499422  1
  Zn  Zn90  1  0.80392156  0.81421217  0.29988787  1
  Zn  Zn91  1  0.79457953  0.84206722  0.85741624  1
  Zn  Zn92  1  0.20494139  0.47182246  0.44684381  1
  Zn  Zn93  1  0.15175362  0.39401258  0.99939380  1
  Zn  Zn94  1  0.19246708  0.93679355  0.43983064  1
  Zn  Zn95  1  0.18667543  0.93767775  0.94030553  1
  Zn  Zn96  1  0.72683096  0.46751434  0.47664114  1
  Zn  Zn97  1  0.68838352  0.44268826  0.92825433  1
  Zn  Zn98  1  0.65805961  0.97968643  0.41333198  1
  Zn  Zn99  1  0.69617630  0.95076473  0.95523744  1
  Zn  Zn100  1  0.29574831  0.05151426  0.05830238  1
  Zn  Zn101  1  0.31455962  0.06211345  0.55933164  1
  Zn  Zn102  1  0.31759444  0.55324313  0.06888686  1
  Zn  Zn103  1  0.44824780  0.56625284  0.55879182  1
  Zn  Zn104  1  0.82531825  0.07024597  0.05202999  1
  Zn  Zn105  1  0.80843970  0.04574986  0.56202069  1
  Zn  Zn106  1  0.79960386  0.56305856  0.06618439  1
  Zn  Zn107  1  0.81040010  0.58589462  0.57540181  1
  Zn  Zn108  1  0.44696837  0.44196590  0.18748811  1
  Zn  Zn109  1  0.43869513  0.43996982  0.69419688  1
  Zn  Zn110  1  0.43175186  0.94556365  0.19168346  1
  Zn  Zn111  1  0.43060825  0.93518495  0.68448523  1
  Zn  Zn112  1  0.89140095  0.39759630  0.24142318  1
  Zn  Zn113  1  0.93412199  0.42006715  0.67404468  1
  Zn  Zn114  1  0.93034860  0.93768130  0.19226090  1
  Zn  Zn115  1  0.94536848  0.93160025  0.70064738  1
  Zn  Zn116  1  0.05475554  0.05883930  0.31705540  1
  Zn  Zn117  1  0.07351942  0.05999164  0.80303360  1
  Zn  Zn118  1  0.06038423  0.44416780  0.33457637  1
  Zn  Zn119  1  0.05993137  0.56057243  0.80563438  1
  Zn  Zn120  1  0.55770103  0.07177707  0.30431203  1
  Zn  Zn121  1  0.55551653  0.05990216  0.81505807  1
  Zn  Zn122  1  0.56833298  0.56809819  0.31010062  1
  Zn  Zn123  1  0.57059835  0.56738648  0.82094175  1
  Zn  Zn124  1  0.43615247  0.19005717  0.43676143  1
  Zn  Zn125  1  0.43494329  0.18958667  0.94423799  1
  Zn  Zn126  1  0.45403665  0.69442617  0.43192113  1
  Zn  Zn127  1  0.43471509  0.68735673  0.93694524  1
  Zn  Zn128  1  0.93168246  0.17438397  0.43316797  1
  Zn  Zn129  1  0.91827886  0.19347650  0.92843199  1
  Zn  Zn130  1  0.99590126  0.64553159  0.36479451  1
  Zn  Zn131  1  0.92932743  0.69358394  0.92722325  1
  Zn  Zn132  1  0.01161414  0.37705127  0.12273227  1
  Zn  Zn133  1  0.03429506  0.32350685  0.45115434  1
  Zn  Zn134  1  0.06111424  0.79278948  0.05881147  1
  Zn  Zn135  1  0.04977824  0.82616455  0.56556500  1
  Zn  Zn136  1  0.56339337  0.30184716  0.06132191  1
  Zn  Zn137  1  0.55862948  0.32388694  0.58459638  1
  Zn  Zn138  1  0.56220094  0.80649141  0.05476436  1
  Zn  Zn139  1  0.56250720  0.81485314  0.56381593  1
  O  O140  1  0.05085278  0.03431613  0.10971931  1
  O  O141  1  0.13171510  0.11530692  0.61680830  1
  O  O142  1  0.11326347  0.61889772  0.10122255  1
  O  O143  1  0.10036229  0.61090291  0.64708899  1
  O  O144  1  0.61543660  0.12252173  0.13392520  1
  O  O145  1  0.60706556  0.11130895  0.63312828  1
  O  O146  1  0.61668717  0.62100621  0.12585345  1
  O  O147  1  0.62233035  0.61947247  0.64038431  1
  O  O148  1  0.37527637  0.38317224  0.39028563  1
  O  O149  1  0.37816455  0.39197455  0.87530248  1
  O  O150  1  0.36764637  0.88714091  0.38487815  1
  O  O151  1  0.37400468  0.87966578  0.87899042  1
  O  O152  1  0.87542008  0.40502628  0.35863580  1
  O  O153  1  0.89064882  0.36921761  0.86556335  1
  O  O154  1  0.87125113  0.88264015  0.36049245  1
  O  O155  1  0.89143002  0.89188462  0.88339789  1
  O  O156  1  0.25595464  0.00574772  0.36948941  1
  O  O157  1  0.25876772  0.01302287  0.88309796  1
  O  O158  1  0.27187542  0.50249450  0.35916344  1
  O  O159  1  0.25269294  0.51243048  0.87078453  1
  O  O160  1  0.76106763  -0.00014532  0.35962578  1
  O  O161  1  0.75264528  0.01287533  0.87044008  1
  O  O162  1  0.74005226  0.49998029  0.36223172  1
  O  O163  1  0.75719728  0.50146575  0.85592434  1
  O  O164  1  0.24787829  0.53253014  0.15872231  1
  O  O165  1  0.26177705  0.49458826  0.63636142  1
  O  O166  1  0.24836836  0.97605322  0.13357347  1
  O  O167  1  0.24395090  0.99843865  0.62737559  1
  O  O168  1  0.73707263  0.50132611  0.14198336  1
  O  O169  1  0.73892367  0.51049235  0.63966419  1
  O  O170  1  0.75293223  1.01187091  0.13194850  1
  O  O171  1  0.72941260  1.00764254  0.63693424  1
  O  O172  1  0.00856805  0.36590035  0.26702523  1
  O  O173  1  0.00843044  0.36462819  0.75488079  1
  O  O174  1  0.00375860  0.88274332  0.25345390  1
  O  O175  1  0.03029982  0.86881243  0.74425705  1
  O  O176  1  0.48138330  0.35358785  0.24765539  1
  O  O177  1  0.50155659  0.35947723  0.74686566  1
  O  O178  1  0.50928672  0.86948513  0.23942966  1
  O  O179  1  0.48990048  0.86387252  0.75884656  1
  O  O180  1  0.48188315  0.12593687  0.23745793  1
  O  O181  1  0.48868476  0.13428125  0.74523298  1
  O  O182  1  0.50063225  0.63821649  0.24192803  1
  O  O183  1  0.49236750  0.63872287  0.76169828  1
  O  O184  1  0.98794631  0.13558839  0.26326120  1
  O  O185  1  1.01601867  0.13437288  0.73467935  1
  O  O186  1  1.00165664  0.60077295  0.23446839  1
  O  O187  1  0.98649161  0.63507728  0.75820706  1
  O  O188  1  0.36796631  0.26105681  0.00443553  1
  O  O189  1  0.37960292  0.26665442  0.50680340  1
  O  O190  1  0.36035823  0.75827736  -0.00566139  1
  O  O191  1  0.37821106  0.76391630  0.48208502  1
  O  O192  1  0.86100030  0.24715521  0.00540007  1
  O  O193  1  0.86754318  0.22764237  0.51102185  1
  O  O194  1  0.87011385  0.76791070  -0.00808879  1
  O  O195  1  0.84338598  0.79257345  0.49991387  1
  O  O196  1  0.12467065  0.23571493  0.50346560  1
  O  O197  1  0.14537571  0.25975867  0.98656697  1
  O  O198  1  0.10102735  0.71226538  0.49234795  1
  O  O199  1  0.13404009  0.73558991  0.98614996  1
  O  O200  1  0.67413612  0.22251130  0.52758465  1
  O  O201  1  0.64052712  0.23941582  1.00422827  1
  O  O202  1  0.61949487  0.75468513  0.48570444  1
  O  O203  1  0.64393820  0.75789001  0.99465102  1
  O  O204  1  0.49832855  0.23191076  0.13670045  1
  O  O205  1  0.49050328  0.23813582  0.63370527  1
  O  O206  1  0.51165090  0.74112132  0.13811891  1
  O  O207  1  0.49642048  0.75182828  0.63920586  1
  O  O208  1  0.99693032  0.25338536  0.16295693  1
  O  O209  1  0.99396126  0.23232893  0.62987185  1
  O  O210  1  1.00492655  0.72171290  0.12973782  1
  O  O211  1  1.00810650  0.74941610  0.63662364  1
  O  O212  1  0.00048227  0.24470689  0.37287476  1
  O  O213  1  0.01154282  0.26118350  0.87489791  1
  O  O214  1  0.00336447  0.76052041  0.34638507  1
  O  O215  1  0.02179306  0.74659275  0.87828266  1
  O  O216  1  0.49672062  0.23350101  0.35476314  1
  O  O217  1  0.49460665  0.24399554  0.86115464  1
  O  O218  1  0.52301698  0.74750832  0.35390938  1
  O  O219  1  0.49156843  0.76332567  0.87017045  1
  O  O220  1  0.24084431  0.12195520  0.48941182  1
  O  O221  1  0.25946718  0.13865804  0.99028715  1
  O  O222  1  0.24561299  0.69466044  0.42028708  1
  O  O223  1  0.24186149  0.62457425  0.99279565  1
  O  O224  1  0.75562000  0.10662651  0.48197270  1
  O  O225  1  0.74976934  0.12852978  0.98590617  1
  O  O226  1  0.72680601  0.64607327  0.52217338  1
  O  O227  1  0.76151380  0.64583579  0.99252938  1
  O  O228  1  0.26254050  0.35757126  -0.00522616  1
  O  O229  1  0.26525091  0.38447127  0.51495502  1
  O  O230  1  0.25119208  0.86653024  0.01359516  1
  O  O231  1  0.25513471  0.87315272  0.51337332  1
  O  O232  1  0.74494654  0.35873216  -0.01706731  1
  O  O233  1  0.77167058  0.36308675  0.47976832  1
  O  O234  1  0.76119064  0.86172222  -0.02508618  1
  O  O235  1  0.78294311  0.83020872  0.50923027  1
  O  O236  1  0.14328516  0.49411661  0.26922931  1
  O  O237  1  0.11653161  0.48316689  0.73784501  1
  O  O238  1  0.13810677  1.00760934  0.25606556  1
  O  O239  1  0.13718880  0.98505680  0.74269294  1
  O  O240  1  0.63103910  0.49806648  0.24498434  1
  O  O241  1  0.62928994  0.49577085  0.74600090  1
  O  O242  1  0.63199892  0.99328709  0.24700968  1
  O  O243  1  0.61206146  0.98704508  0.74393412  1
  O  O244  1  0.36206595  0.00632644  0.26227440  1
  O  O245  1  0.37626166  0.01010597  0.75786505  1
  O  O246  1  0.37645643  0.51209644  0.25833192  1
  O  O247  1  0.38673029  0.51517725  0.76717717  1
  O  O248  1  0.86169211  0.00861281  0.24947708  1
  O  O249  1  0.87830219  -0.00758151  0.76716041  1
  O  O250  1  0.84807880  0.51471660  0.25922271  1
  O  O251  1  0.86691800  0.48947183  0.73691158  1
  O  O252  1  0.12480835  0.38709624  0.41564671  1
  O  O253  1  0.12143523  0.37915258  0.86038242  1
  O  O254  1  0.11857349  0.88081394  0.37245761  1
  O  O255  1  0.14126858  0.86406276  0.86347227  1
  O  O256  1  0.61644662  0.26569334  0.49795079  1
  O  O257  1  0.61512140  0.38745587  0.85516689  1
  O  O258  1  0.62271044  0.87816909  0.37134520  1
  O  O259  1  0.59910314  0.88372257  0.86411149  1
  O  O260  1  0.35681760  0.11677641  0.13714388  1
  O  O261  1  0.38052295  0.12903827  0.63036493  1
  O  O262  1  0.39218669  0.61770574  0.13976490  1
  O  O263  1  0.37910428  0.61579007  0.64131327  1
  O  O264  1  0.87696096  0.12762396  0.14131195  1
  O  O265  1  0.89245023  0.09803597  0.62407853  1
  O  O266  1  0.88231161  0.61459172  0.13887768  1
  O  O267  1  0.91057522  0.62079366  0.61095200  1
  O  O268  1  0.24614380  0.24479508  0.11323491  1
  O  O269  1  0.26600665  0.25341561  0.62552787  1
  O  O270  1  0.24088601  0.75306883  0.11487781  1
  O  O271  1  0.24168523  0.74834315  0.61451314  1
  O  O272  1  0.75645281  0.25145568  0.11160736  1
  O  O273  1  0.70788467  0.25123174  0.59559888  1
  O  O274  1  0.75029609  0.75714795  0.11171494  1
  O  O275  1  0.77179765  0.76304758  0.64947507  1
  O  O276  1  0.25563046  0.23590210  0.37505916  1
  O  O277  1  0.26285790  0.23929947  0.87874599  1
  O  O278  1  0.23264419  0.75765169  0.38349464  1
  O  O279  1  0.24458789  0.74010192  0.88556408  1
  O  O280  1  0.74362622  0.22323972  0.37118339  1
  O  O281  1  0.76089918  0.23341246  0.88153722  1
  O  O282  1  0.72911442  0.75736849  0.36586474  1
  O  O283  1  0.75639025  0.73612510  0.85951069  1
  O  O284  1  0.01951336  0.15018764  -0.01205836  1
  O  O285  1  0.01505352  0.12148077  0.51457548  1
  O  O286  1  0.00976175  0.61295315  -0.01862143  1
  O  O287  1  0.04865686  0.65920764  0.48394831  1
  O  O288  1  0.50028769  0.12891165  0.01528976  1
  O  O289  1  0.49372165  0.12814803  0.51589827  1
  O  O290  1  0.49487031  0.63702419  0.01808057  1
  O  O291  1  0.51935041  0.63714078  0.50688222  1
  O  O292  1  0.48857551  0.38008780  0.50950682  1
  O  O293  1  0.48105330  0.36387384  1.00600618  1
  O  O294  1  0.48155162  0.87816932  0.51031297  1
  O  O295  1  0.48784436  0.86984192  0.98861304  1
  O  O296  1  0.94705141  0.36923653  0.50405817  1
  O  O297  1  1.00227481  0.39426595  0.98079430  1
  O  O298  1  0.99988328  0.85876028  0.47256138  1
  O  O299  1  0.99729831  0.86584594  0.99999460  1
  O  O300  1  0.49283940  0.49411448  0.36366809  1
  O  O301  1  0.49346766  0.50895498  0.88574909  1
  O  O302  1  0.48039440  1.00767252  0.36775503  1
  O  O303  1  0.48105598  0.98901978  0.87700800  1
  O  O304  1  0.98325958  0.52170413  0.38099395  1
  O  O305  1  0.99543320  0.49043049  0.87297513  1
  O  O306  1  0.98362443  0.98477894  0.36943732  1
  O  O307  1  1.00029042  1.01199319  0.87514915  1
  O  O308  1  0.06851714  -0.00458381  0.04826582  1
  O  O309  1  0.01918520  0.00673303  0.63750002  1
  O  O310  1  -0.00120713  0.51146157  0.09278412  1
  O  O311  1  0.00855075  0.48328849  0.61147895  1
  O  O312  1  0.48788292  0.01926722  0.12489472  1
  O  O313  1  0.49993498  0.01160339  0.62929948  1
  O  O314  1  0.51609546  0.51374470  0.12898940  1
  O  O315  1  0.51195438  0.50398301  0.63159266  1
  O  O316  1  0.25674668  0.38018904  0.24388683  1
  O  O317  1  0.24129358  0.36898211  0.74070295  1
  O  O318  1  0.24998366  0.87226963  0.23878663  1
  O  O319  1  0.24518531  0.86241993  0.72921900  1
  O  O320  1  0.74865477  0.37850848  0.26087376  1
  O  O321  1  0.73784382  0.38094088  0.75405000  1
  O  O322  1  0.73611312  0.89015579  0.23925305  1
  O  O323  1  0.72758279  0.88098797  0.76737141  1
  O  O324  1  0.25691361  0.11402868  0.26609372  1
  O  O325  1  0.26344344  0.13506586  0.75715814  1
  O  O326  1  0.28246775  0.64939329  0.25607445  1
  O  O327  1  0.26627237  0.63100441  0.76178115  1
  O  O328  1  0.75382358  0.11459722  0.25506563  1
  O  O329  1  0.75097928  0.12972531  0.76006159  1
  O  O330  1  0.74657227  0.63080717  0.24654467  1
  O  O331  1  0.76113534  0.61428861  0.75611843  1
  O  O332  1  0.36040792  0.11458302  0.37891117  1
  O  O333  1  0.37180741  0.11734455  0.86924932  1
  O  O334  1  0.39413993  0.61543849  0.36636083  1
  O  O335  1  0.36532254  0.61393044  0.87922579  1
  O  O336  1  0.86563641  0.10623696  0.36486975  1
  O  O337  1  0.86814823  0.10834211  0.87510947  1
  O  O338  1  0.87744098  0.62457800  0.34958893  1
  O  O339  1  0.86217775  0.61776722  0.87913908  1
  O  O340  1  0.12047081  0.38303212  0.10885665  1
  O  O341  1  0.14547134  0.39239007  0.62604135  1
  O  O342  1  0.12955808  0.86450708  0.12591394  1
  O  O343  1  0.13765441  0.88125092  0.62663758  1
  O  O344  1  0.61471260  0.38778047  0.12109613  1
  O  O345  1  0.62253923  0.39655436  0.64231932  1
  O  O346  1  0.62034386  0.88355071  0.12504465  1
  O  O347  1  0.61345770  0.88520505  0.64194987  1
  O  O348  1  0.12482518  0.25262744  0.25878462  1
  O  O349  1  0.11401200  0.26748371  0.73885217  1
  O  O350  1  0.13048341  0.69462249  0.26804963  1
  O  O351  1  0.13545195  0.75339752  0.76250432  1
  O  O352  1  0.61137192  0.25157824  0.24830516  1
  O  O353  1  0.61254591  0.26277661  0.74433223  1
  O  O354  1  0.62281832  0.77419293  0.25157004  1
  O  O355  1  0.60827465  0.76615718  0.74930966  1
  O  O356  1  0.37212641  0.22979514  0.24989219  1
  O  O357  1  0.38471312  0.24528829  0.74286729  1
  O  O358  1  0.39703504  0.74671020  0.26000598  1
  O  O359  1  0.38421470  0.73574997  0.75417343  1
  O  O360  1  0.86480321  0.23368900  0.25883489  1
  O  O361  1  0.90004133  0.24669332  0.75821808  1
  O  O362  1  0.86690764  0.73750600  0.24052470  1
  O  O363  1  0.83462538  0.79607696  0.68465116  1
  O  O364  1  0.38378363  0.49740853  0.48732451  1
  O  O365  1  0.36797939  0.48996792  0.98873478  1
  O  O366  1  0.37021063  0.99220705  0.48819928  1
  O  O367  1  0.37247292  0.98662504  0.99262572  1
  O  O368  1  0.84279067  0.52086651  0.47623689  1
  O  O369  1  0.87459252  0.50409253  0.99523295  1
  O  O370  1  0.86735418  0.98518661  0.48370743  1
  O  O371  1  0.87861242  0.99111681  0.98669756  1
  O  O372  1  0.13789892  0.01937681  0.00894388  1
  O  O373  1  0.12920773  0.00443003  0.51588703  1
  O  O374  1  0.12831002  0.50923288  -0.01757304  1
  O  O375  1  0.14183641  0.52125452  0.52591223  1
  O  O376  1  0.61434580  0.00896867  -0.00330053  1
  O  O377  1  0.62401626  -0.01510144  0.52183610  1
  O  O378  1  0.64267269  0.50198037  0.01472536  1
  O  O379  1  0.63350718  0.51914160  0.51899063  1
  O  O380  1  0.36962864  0.39506055  0.11280615  1
  O  O381  1  0.37032652  0.37319368  0.62200862  1
  O  O382  1  0.37471428  0.87412241  0.11492544  1
  O  O383  1  0.36181762  0.87166352  0.61437537  1
  O  O384  1  0.89994696  0.37485453  0.13346400  1
  O  O385  1  0.85508000  0.34818170  0.63340861  1
  O  O386  1  0.88050755  0.88927632  0.10460332  1
  O  O387  1  0.86031780  0.86254695  0.64655218  1
  O  O388  1  0.13330722  0.11528257  0.39122000  1
  O  O389  1  0.13663480  0.13372320  0.86901115  1
  O  O390  1  0.12213909  0.64846781  0.32774493  1
  O  O391  1  0.13740226  0.63041950  0.87280578  1
  O  O392  1  0.63929138  0.09387179  0.37811585  1
  O  O393  1  0.63585543  0.12374354  0.86977005  1
  O  O394  1  0.62905398  0.62829694  0.38995835  1
  O  O395  1  0.65403037  0.61622238  0.87527659  1
