# generated using pymatgen
data_V35Zn35O128
_symmetry_space_group_name_H-M   'P 1'
_cell_length_a   16.84700563
_cell_length_b   16.83776145
_cell_length_c   16.83175731
_cell_angle_alpha   90.08405270
_cell_angle_beta   89.91306848
_cell_angle_gamma   90.04438117
_symmetry_Int_Tables_number   1
_chemical_formula_structural   V35Zn35O128
_chemical_formula_sum   'V70 Zn70 O256'
_cell_volume   4774.58288753
_cell_formula_units_Z   2
loop_
 _symmetry_equiv_pos_site_id
 _symmetry_equiv_pos_as_xyz
  1  'x, y, z'
loop_
 _atom_site_type_symbol
 _atom_site_label
 _atom_site_symmetry_multiplicity
 _atom_site_fract_x
 _atom_site_fract_y
 _atom_site_fract_z
 _atom_site_occupancy
  V  V0  1  0.75875614  0.74962885  0.48441948  1
  V  V1  1  0.87355223  0.27245176  0.61548870  1
  V  V2  1  0.62593066  0.48765514  0.62947563  1
  V  V3  1  0.75317245  0.00268085  0.75093490  1
  V  V4  1  0.38332178  0.75115420  0.13399975  1
  V  V5  1  0.89511348  0.73819721  0.12448773  1
  V  V6  1  0.36569500  0.11916684  0.25542428  1
  V  V7  1  0.88550577  0.01272604  0.35708172  1
  V  V8  1  0.50462796  0.25194941  0.25859950  1
  V  V9  1  0.12203206  0.63627511  0.00703640  1
  V  V10  1  0.24261164  0.62500849  0.37438388  1
  V  V11  1  0.24332357  0.62171652  0.87227394  1
  V  V12  1  0.13620774  0.88522970  0.74309539  1
  V  V13  1  0.01158310  0.25753652  0.75162101  1
  V  V14  1  0.10978963  0.87753096  0.25827344  1
  V  V15  1  0.25149288  0.88791311  0.13955126  1
  V  V16  1  0.64312357  0.37506063  0.25288089  1
  V  V17  1  -0.01439206  0.37739125  0.37261750  1
  V  V18  1  0.61298589  0.24542188  0.87257172  1
  V  V19  1  0.49706784  0.37877569  0.88927796  1
  V  V20  1  0.87284635  0.23994650  0.12579621  1
  V  V21  1  0.50433307  0.62285188  0.62231721  1
  V  V22  1  0.88875361  0.00068372  0.88454856  1
  V  V23  1  0.50108606  -0.01794370  -0.00713609  1
  V  V24  1  0.25553210  0.76083806  -0.00168227  1
  V  V25  1  0.26860211  0.24543089  0.50509626  1
  V  V26  1  0.88532232  0.49433781  0.87270012  1
  V  V27  1  0.63419579  0.00136982  0.12393889  1
  V  V28  1  -0.00665163  -0.02431666  0.49831983  1
  V  V29  1  0.73158254  0.22989295  0.50585890  1
  V  V30  1  0.86632563  0.37627413  0.01056356  1
  V  V31  1  0.13265495  0.39643304  0.74179668  1
  V  V32  1  0.86666524  0.64666360  0.75281224  1
  V  V33  1  0.37016594  0.49627483  0.90172104  1
  V  V34  1  0.03062229  0.49212140  0.50402769  1
  V  V35  1  -0.00030775  0.23789265  0.24545884  1
  V  V36  1  0.49420284  -0.00628332  0.49418689  1
  V  V37  1  0.38656701  0.49770622  0.39152010  1
  V  V38  1  0.63045118  0.00897550  0.61700923  1
  V  V39  1  0.74486005  0.62506740  0.88746655  1
  V  V40  1  0.22753304  0.75297840  0.49858207  1
  V  V41  1  0.13268642  0.50004796  0.14211929  1
  V  V42  1  0.74360398  0.48727060  0.75289741  1
  V  V43  1  0.49958970  0.13311533  0.10563835  1
  V  V44  1  0.63096264  0.86544816  0.24585022  1
  V  V45  1  0.84525763  0.61681589  0.25785999  1
  V  V46  1  0.00896542  0.87585648  0.88063311  1
  V  V47  1  0.63051466  0.62612388  0.49225070  1
  V  V48  1  0.75368346  0.13296020  0.88912278  1
  V  V49  1  0.25615627  0.38953496  0.61024209  1
  V  V50  1  0.37371441  0.75966529  0.61347583  1
  V  V51  1  0.37722160  -0.00532424  0.87784314  1
  V  V52  1  0.47342095  0.12804999  0.63023341  1
  V  V53  1  0.10424265  0.12864099  0.50227546  1
  V  V54  1  0.24899276  0.13483291  0.87959298  1
  V  V55  1  0.88507822  0.12541345  0.73523937  1
  V  V56  1  0.49427636  0.75480619  0.75449035  1
  V  V57  1  0.60164565  0.61421359  0.00642048  1
  V  V58  1  0.13138785  0.24884578  0.37239601  1
  V  V59  1  0.62541187  0.48583125  0.12290400  1
  V  V60  1  0.26098755  0.01153531  0.73606134  1
  V  V61  1  0.37328678  0.61328326  0.74829519  1
  V  V62  1  0.02867752  0.74278559  0.74461320  1
  V  V63  1  0.61769005  0.75014043  0.88223104  1
  V  V64  1  0.36673812  0.26601405  0.11567618  1
  V  V65  1  0.38916358  0.61871856  0.24757363  1
  V  V66  1  0.49687124  0.85823357  0.37000235  1
  V  V67  1  0.62018270  0.87569939  0.75510994  1
  V  V68  1  0.00126073  0.50193495  0.01081137  1
  V  V69  1  0.75966326  0.85871875  0.63039516  1
  Zn  Zn70  1  0.49731627  0.37462959  0.38415154  1
  Zn  Zn71  1  0.78189101  0.81714428  0.04502690  1
  Zn  Zn72  1  0.12024044  0.00467473  0.61971290  1
  Zn  Zn73  1  0.24572614  0.25685361  -0.00359071  1
  Zn  Zn74  1  0.09151804  0.00472069  0.11422932  1
  Zn  Zn75  1  0.00541841  0.61988861  0.61571510  1
  Zn  Zn76  1  0.18857246  0.18996067  0.18877163  1
  Zn  Zn77  1  0.19346316  0.18798317  0.67747626  1
  Zn  Zn78  1  0.19257405  0.69292781  0.19346193  1
  Zn  Zn79  1  0.19302481  0.68815575  0.68479057  1
  Zn  Zn80  1  0.67839159  0.19417636  0.16989903  1
  Zn  Zn81  1  0.69279615  0.19707009  0.69387146  1
  Zn  Zn82  1  0.68570314  0.68560921  0.18295074  1
  Zn  Zn83  1  0.68337459  0.68249445  0.69740192  1
  Zn  Zn84  1  0.31589188  0.31791096  0.30500272  1
  Zn  Zn85  1  0.30373647  0.32728868  0.80698769  1
  Zn  Zn86  1  0.30887414  0.81276633  0.31770866  1
  Zn  Zn87  1  0.31232368  0.81244194  0.81194406  1
  Zn  Zn88  1  0.81293712  0.30017425  0.31945980  1
  Zn  Zn89  1  0.82255711  0.30964865  0.81368140  1
  Zn  Zn90  1  0.81111831  0.80945843  0.29205016  1
  Zn  Zn91  1  0.80068447  0.82605582  0.84687233  1
  Zn  Zn92  1  0.20174521  0.42399535  0.41107926  1
  Zn  Zn93  1  0.16994272  0.42623403  0.94097393  1
  Zn  Zn94  1  0.19469903  0.94515927  0.43714288  1
  Zn  Zn95  1  0.18628236  0.94912008  0.93541414  1
  Zn  Zn96  1  0.64783028  0.40333591  0.46737454  1
  Zn  Zn97  1  0.68210267  0.43207053  0.93590235  1
  Zn  Zn98  1  0.68290395  0.92162020  0.43791404  1
  Zn  Zn99  1  0.68619179  0.94551985  0.93884497  1
  Zn  Zn100  1  0.31716790  0.06984879  0.05831140  1
  Zn  Zn101  1  0.30717386  0.05473265  0.53839762  1
  Zn  Zn102  1  0.30506744  0.56770384  0.07145879  1
  Zn  Zn103  1  0.31337287  0.56878310  0.55624184  1
  Zn  Zn104  1  0.82766004  0.05781243  0.06951859  1
  Zn  Zn105  1  0.81624718  0.05317749  0.55505381  1
  Zn  Zn106  1  0.81010229  0.56958954  0.07214519  1
  Zn  Zn107  1  0.80408266  0.57804903  0.58082419  1
  Zn  Zn108  1  0.44482910  0.44243376  0.18426995  1
  Zn  Zn109  1  0.43356032  0.43698147  0.67071833  1
  Zn  Zn110  1  0.43721003  0.93158802  0.17916490  1
  Zn  Zn111  1  0.43893102  0.94262944  0.68300460  1
  Zn  Zn112  1  0.93649081  0.44126287  0.19249291  1
  Zn  Zn113  1  0.94386288  0.43893819  0.68499477  1
  Zn  Zn114  1  0.93116453  0.92368328  0.18473308  1
  Zn  Zn115  1  0.94260817  0.93201811  0.69032109  1
  Zn  Zn116  1  0.07031860  0.05618328  0.31201694  1
  Zn  Zn117  1  0.06902040  0.06871587  0.81286831  1
  Zn  Zn118  1  0.05620692  0.55983899  0.32904216  1
  Zn  Zn119  1  0.06327870  0.57236861  0.80033448  1
  Zn  Zn120  1  0.51816566  0.03225126  0.28308134  1
  Zn  Zn121  1  0.56240488  0.06800673  0.81042037  1
  Zn  Zn122  1  0.56779072  0.56007598  0.30405638  1
  Zn  Zn123  1  0.55555167  0.55908223  0.81426436  1
  Zn  Zn124  1  0.44751722  0.17172445  0.43858595  1
  Zn  Zn125  1  0.42378998  0.18992611  0.92734355  1
  Zn  Zn126  1  0.44255782  0.68373087  0.43382460  1
  Zn  Zn127  1  0.42937333  0.68863789  0.93747514  1
  Zn  Zn128  1  0.92894418  0.18823256  0.43265345  1
  Zn  Zn129  1  0.94406027  0.19355409  0.93765649  1
  Zn  Zn130  1  0.92695218  0.66883349  0.44738714  1
  Zn  Zn131  1  0.94249250  0.69400553  0.93118116  1
  Zn  Zn132  1  0.06944868  0.32724357  0.06867755  1
  Zn  Zn133  1  0.06057684  0.31430151  0.56574010  1
  Zn  Zn134  1  0.06536565  0.81749299  0.07103317  1
  Zn  Zn135  1  0.05978106  0.81403123  0.56753331  1
  Zn  Zn136  1  0.56933432  0.31094095  0.05485151  1
  Zn  Zn137  1  0.54648147  0.29814741  0.56284790  1
  Zn  Zn138  1  0.56637136  0.81069984  0.06585265  1
  Zn  Zn139  1  0.56906734  0.81170194  0.56190448  1
  O  O140  1  0.11169753  0.13124793  0.11295484  1
  O  O141  1  0.12384422  0.12423359  0.60717845  1
  O  O142  1  0.13238039  0.62560775  0.10901098  1
  O  O143  1  0.08618553  0.64997941  0.69464004  1
  O  O144  1  0.60907876  0.11769570  0.11957776  1
  O  O145  1  0.63420987  0.10754295  0.63719744  1
  O  O146  1  0.61849649  0.62218854  0.10782668  1
  O  O147  1  0.61721355  0.61979181  0.62718923  1
  O  O148  1  0.37827604  0.39239059  0.37376779  1
  O  O149  1  0.36994156  0.39131272  0.88315546  1
  O  O150  1  0.39611581  0.87042992  0.36935355  1
  O  O151  1  0.37268044  0.89328809  0.86930239  1
  O  O152  1  0.88683694  0.36396846  0.38199591  1
  O  O153  1  0.87626301  0.39038353  0.88392920  1
  O  O154  1  0.84415071  0.89982435  0.37293092  1
  O  O155  1  0.89622331  0.89333015  0.85860870  1
  O  O156  1  0.27793742  0.01951024  0.43370241  1
  O  O157  1  0.26224770  0.01024534  0.86824449  1
  O  O158  1  0.27153705  0.51831449  0.38471845  1
  O  O159  1  0.25923236  0.51152864  0.88825485  1
  O  O160  1  0.78318000  -0.04079987  0.37731559  1
  O  O161  1  0.76059513  0.01038569  0.86515868  1
  O  O162  1  0.80579995  0.49665095  0.42332239  1
  O  O163  1  0.75172231  0.50859507  0.86868157  1
  O  O164  1  0.23335980  0.50107155  0.12745363  1
  O  O165  1  0.24623724  0.49059767  0.60497027  1
  O  O166  1  0.26379585  0.98458523  0.11277752  1
  O  O167  1  0.25086758  1.00375592  0.63489610  1
  O  O168  1  0.72727033  0.50597341  0.11400275  1
  O  O169  1  0.74227423  0.50277166  0.64472245  1
  O  O170  1  0.73414009  1.00929625  0.11512188  1
  O  O171  1  0.74533778  0.98889717  0.63372850  1
  O  O172  1  -0.00290323  0.37835036  0.26836651  1
  O  O173  1  0.01783038  0.36785878  0.74298086  1
  O  O174  1  0.00833530  0.87018897  0.25332928  1
  O  O175  1  0.01818989  0.86861957  0.75347380  1
  O  O176  1  0.49935325  0.35870330  0.25003825  1
  O  O177  1  0.46495058  0.35523698  0.75899127  1
  O  O178  1  0.50940086  0.88872889  0.26071442  1
  O  O179  1  0.50775131  0.86557631  0.74397658  1
  O  O180  1  0.49818250  0.14175932  0.23490726  1
  O  O181  1  0.49444337  0.10559089  0.72900936  1
  O  O182  1  0.48949527  0.62854776  0.24898858  1
  O  O183  1  0.49253401  0.63370974  0.74465022  1
  O  O184  1  1.00183667  0.13943925  0.24785180  1
  O  O185  1  0.98907137  0.13118413  0.75056992  1
  O  O186  1  1.02350915  0.70210567  0.30922438  1
  O  O187  1  0.97340929  0.64646876  0.78009277  1
  O  O188  1  0.36973089  0.25490285  0.01044883  1
  O  O189  1  0.36697184  0.24209481  0.48752341  1
  O  O190  1  0.36086868  0.74163905  0.01234510  1
  O  O191  1  0.38748414  0.75061486  0.51361532  1
  O  O192  1  0.89097514  0.26852647  0.01138347  1
  O  O193  1  0.87794598  0.25172412  0.51498535  1
  O  O194  1  0.87973780  0.73408299  0.01615631  1
  O  O195  1  0.85869386  0.74086088  0.50326870  1
  O  O196  1  0.11491785  0.23963599  0.49108436  1
  O  O197  1  0.08453807  0.17026180  1.04408427  1
  O  O198  1  0.12887061  0.73656137  0.51738732  1
  O  O199  1  0.13543903  0.74098367  1.00104746  1
  O  O200  1  0.63302006  0.22874568  0.52297064  1
  O  O201  1  0.63781084  0.26962202  0.97090397  1
  O  O202  1  0.63624425  0.73422893  0.50558772  1
  O  O203  1  0.61384107  0.73692249  0.98902907  1
  O  O204  1  0.49578976  0.24363109  0.12076010  1
  O  O205  1  0.48876236  0.22850622  0.62534233  1
  O  O206  1  0.48171441  0.75467148  0.11846454  1
  O  O207  1  0.49482928  0.74327045  0.63441930  1
  O  O208  1  0.99912122  0.26628576  0.14058413  1
  O  O209  1  0.98264767  0.25665532  0.63705441  1
  O  O210  1  0.99680254  0.74522216  0.12623545  1
  O  O211  1  0.99208838  0.75990978  0.65038171  1
  O  O212  1  -0.00212558  0.25540429  0.36156443  1
  O  O213  1  -0.01180126  0.25372022  0.85138747  1
  O  O214  1  0.01156507  0.74115364  0.37092430  1
  O  O215  1  0.00001405  0.76692108  0.85746732  1
  O  O216  1  0.50216454  0.24547205  0.36080964  1
  O  O217  1  0.50554319  0.25749504  0.87601537  1
  O  O218  1  0.50752873  0.75871474  0.37440565  1
  O  O219  1  0.50220801  0.74399355  0.86426813  1
  O  O220  1  0.23446354  0.14412098  0.50048629  1
  O  O221  1  0.25399335  0.13407743  0.98644003  1
  O  O222  1  0.26213832  0.64156719  0.48643010  1
  O  O223  1  0.23940490  0.63214789  0.99129938  1
  O  O224  1  0.75707403  0.13073198  0.50048849  1
  O  O225  1  0.75852123  0.11807843  0.98677936  1
  O  O226  1  0.74210134  0.63687855  0.50578044  1
  O  O227  1  0.73964634  0.62042656  0.98794703  1
  O  O228  1  0.16275364  0.33036885  0.00284349  1
  O  O229  1  0.24191337  0.35730732  0.50278367  1
  O  O230  1  0.24560952  0.86102580  -0.00874546  1
  O  O231  1  0.23674000  0.85357420  0.50005594  1
  O  O232  1  0.76768989  0.38156350  -0.00581066  1
  O  O233  1  0.74325909  0.34444349  0.48381049  1
  O  O234  1  0.76364101  0.86765034  -0.04856470  1
  O  O235  1  0.74097696  0.85659775  0.51972948  1
  O  O236  1  0.10768065  0.53720511  0.23378716  1
  O  O237  1  0.12169401  0.49595163  0.74081824  1
  O  O238  1  0.11181085  0.99216309  0.22805980  1
  O  O239  1  0.13598652  0.99848881  0.74408132  1
  O  O240  1  0.62642681  0.48595434  0.23579906  1
  O  O241  1  0.63615148  0.50382144  0.74790900  1
  O  O242  1  0.61709095  1.00210431  0.22758476  1
  O  O243  1  0.63472473  0.99307683  0.74881409  1
  O  O244  1  0.39996393  0.02029703  0.24387275  1
  O  O245  1  0.36527981  -0.00347653  0.75450131  1
  O  O246  1  0.37644894  0.51609948  0.24468111  1
  O  O247  1  0.37501368  0.51267936  0.74322760  1
  O  O248  1  0.88691027  0.00318654  0.25643735  1
  O  O249  1  0.87256903  0.01037100  0.75374792  1
  O  O250  1  0.87706461  0.51887672  0.24689296  1
  O  O251  1  0.86875239  0.50351853  0.76375726  1
  O  O252  1  0.10596373  0.35215305  0.38415760  1
  O  O253  1  0.14796465  0.37474118  0.84114280  1
  O  O254  1  0.13321554  0.89691125  0.35604133  1
  O  O255  1  0.11490809  0.89236099  0.86104428  1
  O  O256  1  0.62105936  0.38554574  0.35218407  1
  O  O257  1  0.59961680  0.38031277  0.86835424  1
  O  O258  1  0.61809316  0.88091190  0.35464014  1
  O  O259  1  0.62571115  0.86471393  0.86375598  1
  O  O260  1  0.38767873  0.13614456  0.12740970  1
  O  O261  1  0.37473808  0.11136676  0.61759559  1
  O  O262  1  0.36496092  0.63892065  0.13807796  1
  O  O263  1  0.38621632  0.63101679  0.63058684  1
  O  O264  1  0.89152813  0.14185442  0.11151383  1
  O  O265  1  0.87577345  0.11843818  0.63599007  1
  O  O266  1  0.87698982  0.62805040  0.14214491  1
  O  O267  1  0.88312493  0.62443635  0.64977069  1
  O  O268  1  0.26365046  0.25058827  0.12510091  1
  O  O269  1  0.25744374  0.25517949  0.61044003  1
  O  O270  1  0.25471882  0.76298045  0.11317195  1
  O  O271  1  0.26515209  0.73791590  0.61190249  1
  O  O272  1  0.77165718  0.24097153  0.12898197  1
  O  O273  1  0.76483637  0.24495342  0.61741471  1
  O  O274  1  0.76117535  0.73566486  0.11635295  1
  O  O275  1  0.74745658  0.75759633  0.63744201  1
  O  O276  1  0.23465144  0.25289051  0.38347299  1
  O  O277  1  0.26828373  0.23849533  0.86975535  1
  O  O278  1  0.24949198  0.74306245  0.38868518  1
  O  O279  1  0.26277565  0.73464449  0.88714238  1
  O  O280  1  0.74486926  0.25205807  0.39783239  1
  O  O281  1  0.76347027  0.23405491  0.87680261  1
  O  O282  1  0.75185860  0.76075073  0.38621770  1
  O  O283  1  0.73111346  0.73068354  0.86877212  1
  O  O284  1  0.02943451  0.12942938  0.00493204  1
  O  O285  1  0.00269493  0.12486943  0.50082898  1
  O  O286  1  0.01725438  0.62020228  -0.01425064  1
  O  O287  1  -0.00126814  0.60153026  0.50036496  1
  O  O288  1  0.49555732  0.12974180  0.00454259  1
  O  O289  1  0.50004459  0.10543806  0.51672271  1
  O  O290  1  0.50302776  0.62042709  -0.00664053  1
  O  O291  1  0.51555060  0.63047480  0.51384236  1
  O  O292  1  0.53703610  0.37904463  0.49004680  1
  O  O293  1  0.49503983  0.37456472  0.98839021  1
  O  O294  1  0.52332745  0.88306205  0.48252926  1
  O  O295  1  0.49920901  0.88346533  0.99713240  1
  O  O296  1  1.00105234  0.38734429  0.49477147  1
  O  O297  1  0.99327918  0.39803575  0.99996785  1
  O  O298  1  1.00463765  0.87591686  0.48961316  1
  O  O299  1  1.01113760  0.86538115  0.97941280  1
  O  O300  1  0.48851496  0.50028686  0.36472800  1
  O  O301  1  0.48077318  0.48866373  0.86858537  1
  O  O302  1  0.50640460  1.00657829  0.39275298  1
  O  O303  1  0.49329699  1.00678067  0.88388371  1
  O  O304  1  0.99687717  0.48788350  0.39111606  1
  O  O305  1  0.98681529  0.50994725  0.87712387  1
  O  O306  1  0.99155381  1.00275673  0.38357633  1
  O  O307  1  0.99487033  0.99919143  0.87156857  1
  O  O308  1  -0.01795909  -0.02414314  0.09952148  1
  O  O309  1  0.00031737  -0.01290027  0.60572256  1
  O  O310  1  -0.00024638  0.51185372  0.11144326  1
  O  O311  1  0.00542726  0.49806553  0.60980552  1
  O  O312  1  0.49930152  0.01120606  0.10519134  1
  O  O313  1  0.51906278  -0.00415957  0.61654862  1
  O  O314  1  0.52097873  0.49832542  0.12212412  1
  O  O315  1  0.51553223  0.50992874  0.63861741  1
  O  O316  1  0.22995552  0.39051376  0.30050218  1
  O  O317  1  0.24477705  0.37783962  0.72502031  1
  O  O318  1  0.25402045  0.88538027  0.24145170  1
  O  O319  1  0.24174344  0.88928165  0.75758635  1
  O  O320  1  0.74172652  0.36344497  0.25207428  1
  O  O321  1  0.75422468  0.38888840  0.76270042  1
  O  O322  1  0.73146563  0.87716885  0.24397039  1
  O  O323  1  0.74303332  0.88337246  0.74951971  1
  O  O324  1  0.26557878  0.12064964  0.23839059  1
  O  O325  1  0.24999468  0.11498326  0.75268039  1
  O  O326  1  0.26205581  0.63649408  0.26813661  1
  O  O327  1  0.25772122  0.63115827  0.76538615  1
  O  O328  1  0.73458515  0.12316385  0.26736742  1
  O  O329  1  0.76366419  0.11711743  0.75594797  1
  O  O330  1  0.74338610  0.61966069  0.25741980  1
  O  O331  1  0.75674418  0.61442938  0.76050000  1
  O  O332  1  0.37833575  0.13273073  0.35444896  1
  O  O333  1  0.36585170  0.11041136  0.86957594  1
  O  O334  1  0.37856551  0.61857779  0.36386994  1
  O  O335  1  0.36899206  0.61090190  0.86926164  1
  O  O336  1  0.86797695  0.11211309  0.37190753  1
  O  O337  1  0.87320633  0.11677312  0.87007198  1
  O  O338  1  0.87743123  0.62962122  0.35562053  1
  O  O339  1  0.85764430  0.61821362  0.87440346  1
  O  O340  1  0.10870979  0.40266382  0.14744389  1
  O  O341  1  0.13738104  0.36837407  0.63201301  1
  O  O342  1  0.14183878  0.88045256  0.12896709  1
  O  O343  1  0.12706144  0.88063278  0.63904426  1
  O  O344  1  0.62763004  0.37819713  0.12899584  1
  O  O345  1  0.61889391  0.38962264  0.62907422  1
  O  O346  1  0.61872315  0.89134256  0.12751086  1
  O  O347  1  0.63435192  0.88088641  0.63966983  1
  O  O348  1  0.11670330  0.24500222  0.26248902  1
  O  O349  1  0.11063305  0.23996966  0.74269328  1
  O  O350  1  0.13670695  0.77615270  0.24615898  1
  O  O351  1  0.13292133  0.77179254  0.75653167  1
  O  O352  1  0.61399793  0.26166229  0.23848309  1
  O  O353  1  0.64168433  0.25995039  0.77387893  1
  O  O354  1  0.61740543  0.76643081  0.23043509  1
  O  O355  1  0.61322249  0.75414693  0.75950871  1
  O  O356  1  0.38416821  0.24499682  0.23858849  1
  O  O357  1  0.41258842  0.29622801  0.75391207  1
  O  O358  1  0.37238800  0.74573036  0.23963300  1
  O  O359  1  0.37928647  0.74091992  0.74366246  1
  O  O360  1  0.88674708  0.25380244  0.23753212  1
  O  O361  1  0.87637912  0.23922973  0.73705402  1
  O  O362  1  0.87341251  0.73046795  0.24070233  1
  O  O363  1  0.85506564  0.74440400  0.76531933  1
  O  O364  1  0.39088431  0.50907262  0.49139685  1
  O  O365  1  0.37524962  0.50703819  0.99984736  1
  O  O366  1  0.39848633  0.97763002  0.51356519  1
  O  O367  1  0.38716426  1.00167229  0.98757819  1
  O  O368  1  0.83875032  0.49098878  0.48911176  1
  O  O369  1  0.88261920  0.50132280  0.99252093  1
  O  O370  1  0.88995539  0.99514633  0.49118979  1
  O  O371  1  0.87791838  1.00010750  0.98323141  1
  O  O372  1  0.12959873  0.01064974  0.00780224  1
  O  O373  1  0.10891145  0.01138795  0.49455053  1
  O  O374  1  0.11471917  0.50904335  0.00687340  1
  O  O375  1  0.12838013  0.49052069  0.48887796  1
  O  O376  1  0.60989286  -0.00102932  0.00409858  1
  O  O377  1  0.63563294  -0.00221200  0.51485679  1
  O  O378  1  0.62001669  0.50809513  0.00030554  1
  O  O379  1  0.64166748  0.51298837  0.52373348  1
  O  O380  1  0.37905696  0.36436752  0.12946560  1
  O  O381  1  0.35891782  0.37930035  0.61233597  1
  O  O382  1  0.36347422  0.86174043  0.12648390  1
  O  O383  1  0.37745674  0.85764494  0.63252763  1
  O  O384  1  0.87566121  0.37922440  0.11355307  1
  O  O385  1  0.86793365  0.37199137  0.62899855  1
  O  O386  1  0.86585118  0.84486286  0.13185510  1
  O  O387  1  0.85788729  0.87440565  0.63693813  1
  O  O388  1  0.11667440  0.13683696  0.38544583  1
  O  O389  1  0.14770541  0.12487529  0.87066424  1
  O  O390  1  0.14331567  0.61722498  0.37753729  1
  O  O391  1  0.13917650  0.61991935  0.87934598  1
  O  O392  1  0.69625438  0.11456592  0.32992784  1
  O  O393  1  0.63824817  0.13563909  0.87222760  1
  O  O394  1  0.62204575  0.61077861  0.39451721  1
  O  O395  1  0.62687995  0.62578679  0.88246308  1
