# generated using pymatgen
data_V35Zn35O128
_symmetry_space_group_name_H-M   'P 1'
_cell_length_a   16.96249413
_cell_length_b   16.92421322
_cell_length_c   16.94233598
_cell_angle_alpha   90.16310461
_cell_angle_beta   90.13835226
_cell_angle_gamma   90.21670046
_symmetry_Int_Tables_number   1
_chemical_formula_structural   V35Zn35O128
_chemical_formula_sum   'V70 Zn70 O256'
_cell_volume   4863.68393929
_cell_formula_units_Z   2
loop_
 _symmetry_equiv_pos_site_id
 _symmetry_equiv_pos_as_xyz
  1  'x, y, z'
loop_
 _atom_site_type_symbol
 _atom_site_label
 _atom_site_symmetry_multiplicity
 _atom_site_fract_x
 _atom_site_fract_y
 _atom_site_fract_z
 _atom_site_occupancy
  V  V0  1  0.38075084  0.37461381  0.48372201  1
  V  V1  1  0.12070753  0.02977031  0.12332274  1
  V  V2  1  0.62806703  -0.01243817  0.12343157  1
  V  V3  1  0.62415416  0.10757160  0.50678085  1
  V  V4  1  0.01104180  0.87053110  0.35689349  1
  V  V5  1  0.76732479  0.75910509  0.51393083  1
  V  V6  1  0.87836640  0.87831029  0.00670381  1
  V  V7  1  0.74973780  0.24376615  0.49835458  1
  V  V8  1  0.36572290  0.87354922  -0.00527792  1
  V  V9  1  0.25860508  0.11666531  0.37235426  1
  V  V10  1  0.38606417  0.48975021  0.88391329  1
  V  V11  1  0.60894444  0.24673302  0.36775032  1
  V  V12  1  0.12986032  0.37304095  0.23674735  1
  V  V13  1  0.49655676  0.74868466  0.24825187  1
  V  V14  1  0.01763037  0.37601632  0.88422252  1
  V  V15  1  0.55676394  0.57986040  0.06285344  1
  V  V16  1  0.62412379  0.74793506  0.38032993  1
  V  V17  1  0.87483316  0.49828818  0.87979760  1
  V  V18  1  0.75066888  0.11900833  0.37713767  1
  V  V19  1  0.14289063  0.00507879  0.62565041  1
  V  V20  1  0.36951587  0.74773365  0.12037369  1
  V  V21  1  0.76584180  0.62008923  0.36896834  1
  V  V22  1  0.12106548  0.24797107  0.37224114  1
  V  V23  1  0.50350180  0.49371158  0.47650629  1
  V  V24  1  0.00026333  0.38119355  0.37346361  1
  V  V25  1  0.49947460  0.62373758  0.62742428  1
  V  V26  1  0.25961765  0.49437041  0.25748510  1
  V  V27  1  0.63193997  0.40754982  0.23021456  1
  V  V28  1  0.36955042  0.76593917  0.61706646  1
  V  V29  1  0.50458154  0.75033932  0.75308446  1
  V  V30  1  0.74891500  0.75271250  -0.00484248  1
  V  V31  1  0.62660415  0.87127023  0.24903574  1
  V  V32  1  0.24596097  0.62297735  0.88325048  1
  V  V33  1  0.88476130  0.12919207  0.24383268  1
  V  V34  1  0.87546715  0.74516267  0.13557245  1
  V  V35  1  0.25484406  0.25215777  0.50214095  1
  V  V36  1  0.27370185  0.37531869  0.11037234  1
  V  V37  1  0.23687316  0.87255155  0.12513520  1
  V  V38  1  0.26450150  0.01533060  0.77152218  1
  V  V39  1  0.11917362  0.12478984  0.50134897  1
  V  V40  1  0.48600568  0.87610992  0.38385252  1
  V  V41  1  0.47926351  -0.00757023  0.50736416  1
  V  V42  1  0.75018969  0.62863633  0.88105983  1
  V  V43  1  -0.00164135  0.87815474  0.87471674  1
  V  V44  1  0.62109757  0.62043751  0.50019869  1
  V  V45  1  0.74929491  0.37640867  0.62243598  1
  V  V46  1  0.88021901  0.37879161  0.49066532  1
  V  V47  1  0.57799950  0.44274643  0.67667413  1
  V  V48  1  0.37920862  0.23320167  0.12292038  1
  V  V49  1  0.37310083  0.62048285  0.26361136  1
  V  V50  1  0.87810319  -0.00965973  0.37938396  1
  V  V51  1  -0.00210326  -0.00848889  0.50745774  1
  V  V52  1  0.00681450  0.63893563  0.16188891  1
  V  V53  1  0.24359783  0.49326483  0.74208938  1
  V  V54  1  0.13819471  0.87296139  0.75231418  1
  V  V55  1  0.89171861  0.23894827  0.62408258  1
  V  V56  1  0.75183384  -0.01104068  0.24888609  1
  V  V57  1  0.62982185  0.13145699  0.00594470  1
  V  V58  1  0.63278450  0.88694660  0.73906469  1
  V  V59  1  0.51381205  0.86777803  0.88277346  1
  V  V60  1  0.24951151  -0.00097232  0.25296631  1
  V  V61  1  -0.00567427  0.74575344  0.73504567  1
  V  V62  1  0.61124318  0.25820441  0.85709336  1
  V  V63  1  0.49848318  -0.00038598  0.00164825  1
  V  V64  1  0.49797562  0.12178473  0.63983479  1
  V  V65  1  0.74912144  0.13076505  0.85677187  1
  V  V66  1  0.13573259  0.61731419  0.49348189  1
  V  V67  1  0.38028238  0.25105409  0.63392064  1
  V  V68  1  0.76627725  0.51652767  0.73082399  1
  V  V69  1  0.12176918  0.36538102  0.73137766  1
  Zn  Zn70  1  0.87016986  0.01607168  0.87497164  1
  Zn  Zn71  1  0.50978335  0.14490471  0.17328946  1
  Zn  Zn72  1  0.37024089  0.62256994  0.74871254  1
  Zn  Zn73  1  0.10829481  0.61983835  0.00372130  1
  Zn  Zn74  1  0.00283178  0.02420449  0.00468647  1
  Zn  Zn75  1  0.13426950  0.75136594  0.88352786  1
  Zn  Zn76  1  0.20405699  0.19565221  0.18941817  1
  Zn  Zn77  1  0.19291889  0.18778375  0.69093365  1
  Zn  Zn78  1  0.19649258  0.68167710  0.18923659  1
  Zn  Zn79  1  0.19176098  0.68615726  0.69237751  1
  Zn  Zn80  1  0.68700242  0.17279901  0.19230336  1
  Zn  Zn81  1  0.68104624  0.19232142  0.68406292  1
  Zn  Zn82  1  0.69851458  0.68242258  0.18380996  1
  Zn  Zn83  1  0.68330750  0.69517928  0.68594837  1
  Zn  Zn84  1  0.31749582  0.30424439  0.30599239  1
  Zn  Zn85  1  0.30383065  0.31155338  0.81808187  1
  Zn  Zn86  1  0.31508602  0.82428533  0.29738237  1
  Zn  Zn87  1  0.31626660  0.80726238  0.80607695  1
  Zn  Zn88  1  0.82341346  0.33373577  0.26963426  1
  Zn  Zn89  1  0.75489079  0.34997003  0.84857628  1
  Zn  Zn90  1  0.81275754  0.80776663  0.32602813  1
  Zn  Zn91  1  0.81688215  0.81270192  0.80352926  1
  Zn  Zn92  1  0.19285282  0.43254370  0.43738810  1
  Zn  Zn93  1  0.18747276  0.44896923  0.93937861  1
  Zn  Zn94  1  0.18292639  0.92696016  0.43810820  1
  Zn  Zn95  1  0.18246035  0.94655100  0.94103746  1
  Zn  Zn96  1  0.70723053  0.41661255  0.39848799  1
  Zn  Zn97  1  0.57487151  0.43572820  0.93638834  1
  Zn  Zn98  1  0.68666343  0.93089951  0.43943934  1
  Zn  Zn99  1  0.69332186  0.94101298  0.93031006  1
  Zn  Zn100  1  0.30929577  0.05933375  0.05597620  1
  Zn  Zn101  1  0.31276403  0.06957562  0.56447942  1
  Zn  Zn102  1  0.31256570  0.55577752  0.06490648  1
  Zn  Zn103  1  0.32318821  0.55243555  0.56529473  1
  Zn  Zn104  1  0.81248327  0.05874634  0.06343548  1
  Zn  Zn105  1  0.81759895  0.05993593  0.56559415  1
  Zn  Zn106  1  0.92532985  0.55069136  0.04544775  1
  Zn  Zn107  1  0.79906597  0.55363577  0.53439530  1
  Zn  Zn108  1  0.45209020  0.43932394  0.18364517  1
  Zn  Zn109  1  0.41137922  0.42629081  0.69091971  1
  Zn  Zn110  1  0.45142019  0.96655377  0.20607670  1
  Zn  Zn111  1  0.43921903  0.93795588  0.69620804  1
  Zn  Zn112  1  0.95476344  0.43943317  0.18821472  1
  Zn  Zn113  1  0.90608573  0.38382341  0.73466583  1
  Zn  Zn114  1  0.94310874  0.94783411  0.18543453  1
  Zn  Zn115  1  0.94857381  0.95352679  0.69592434  1
  Zn  Zn116  1  0.06603187  0.05635972  0.31164890  1
  Zn  Zn117  1  0.06388399  0.04954927  0.80943126  1
  Zn  Zn118  1  0.06941668  0.55146863  0.30764901  1
  Zn  Zn119  1  0.06004667  0.55728982  0.80567795  1
  Zn  Zn120  1  0.56375914  0.05667276  0.32358455  1
  Zn  Zn121  1  0.56141278  0.05955952  0.82320246  1
  Zn  Zn122  1  0.56730742  0.56534386  0.30057957  1
  Zn  Zn123  1  0.56708289  0.56646612  0.81470373  1
  Zn  Zn124  1  0.43640917  0.17798391  0.44291888  1
  Zn  Zn125  1  0.43674597  0.31497236  0.95093730  1
  Zn  Zn126  1  0.43600170  0.68868549  0.44176915  1
  Zn  Zn127  1  0.42641027  0.68454520  0.93187904  1
  Zn  Zn128  1  0.93693029  0.18527115  0.43087904  1
  Zn  Zn129  1  0.92378171  0.20437502  0.81453823  1
  Zn  Zn130  1  0.94328633  0.69422722  0.43941312  1
  Zn  Zn131  1  0.93676786  0.69192714  0.92717175  1
  Zn  Zn132  1  0.06729101  0.31447093  0.04938892  1
  Zn  Zn133  1  0.06388091  0.31242861  0.55779587  1
  Zn  Zn134  1  0.05808207  0.79594022  0.05699487  1
  Zn  Zn135  1  0.07742078  0.82440584  0.56301735  1
  Zn  Zn136  1  0.56299940  0.31579547  0.08148617  1
  Zn  Zn137  1  0.56048695  0.30251916  0.55053635  1
  Zn  Zn138  1  0.55884589  0.74865849  0.05686226  1
  Zn  Zn139  1  0.56289695  0.81195585  0.56839547  1
  O  O140  1  0.13331845  0.12883924  0.12678814  1
  O  O141  1  0.13219450  0.11395615  0.61649140  1
  O  O142  1  0.10701199  0.64297476  0.13556570  1
  O  O143  1  0.13696686  0.63513501  0.59610438  1
  O  O144  1  0.61984663  0.10718206  0.12105389  1
  O  O145  1  0.60738092  0.12984933  0.61666661  1
  O  O146  1  0.61427395  0.64795988  0.11905305  1
  O  O147  1  0.61090017  0.63231597  0.61059455  1
  O  O148  1  0.37827512  0.36416673  0.38498069  1
  O  O149  1  0.37481319  0.38250756  0.87636524  1
  O  O150  1  0.38698237  0.86712187  0.37487603  1
  O  O151  1  0.37089600  0.86700373  0.89266525  1
  O  O152  1  0.89089070  0.36227492  0.37754869  1
  O  O153  1  0.86057814  0.39287845  0.85049741  1
  O  O154  1  0.88096591  0.88729928  0.37587796  1
  O  O155  1  0.89109350  0.88770328  0.87091450  1
  O  O156  1  0.23772097  0.00487851  0.36587776  1
  O  O157  1  0.24689527  0.00844915  0.87049558  1
  O  O158  1  0.25910516  0.48429017  0.35737547  1
  O  O159  1  0.26138433  0.50638585  0.86710380  1
  O  O160  1  0.75667500  0.00238166  0.37390867  1
  O  O161  1  0.75051720  0.02330360  0.87772872  1
  O  O162  1  0.74637095  0.52211833  0.39382244  1
  O  O163  1  0.76208541  0.51441510  0.84700435  1
  O  O164  1  0.26140584  0.48345166  0.13895695  1
  O  O165  1  0.26360776  0.49373796  0.64280095  1
  O  O166  1  0.23791690  0.99423667  0.13030076  1
  O  O167  1  0.24357566  0.99901425  0.62538157  1
  O  O168  1  0.78346430  0.50692990  0.12786641  1
  O  O169  1  0.75285912  0.49289482  0.62102522  1
  O  O170  1  0.74000487  0.99517715  0.13714118  1
  O  O171  1  0.79016917  0.97006055  0.63888378  1
  O  O172  1  0.02290220  0.37412777  0.25997238  1
  O  O173  1  0.01983820  0.38415948  0.75538952  1
  O  O174  1  -0.00835031  0.87867105  0.25821190  1
  O  O175  1  0.01417582  0.88200998  0.76136244  1
  O  O176  1  0.53252605  0.38913760  0.24848255  1
  O  O177  1  0.51673454  0.38761122  0.73123987  1
  O  O178  1  0.50504444  0.87148346  0.26622471  1
  O  O179  1  0.50600764  0.87154021  0.76645390  1
  O  O180  1  0.48770756  0.06967836  0.24662340  1
  O  O181  1  0.50196170  0.11465197  0.73799482  1
  O  O182  1  0.48631205  0.63895265  0.25431178  1
  O  O183  1  0.50538763  0.63332149  0.74174214  1
  O  O184  1  0.98351535  0.11851540  0.26098738  1
  O  O185  1  0.97475523  0.10622707  0.76706902  1
  O  O186  1  1.01052361  0.63673896  0.26183642  1
  O  O187  1  1.01256875  0.64754707  0.75251682  1
  O  O188  1  0.37486298  0.25433201  0.02090779  1
  O  O189  1  0.37241983  0.25601192  0.50110564  1
  O  O190  1  0.37534732  0.75993916  0.01303991  1
  O  O191  1  0.37739752  0.74584988  0.51694376  1
  O  O192  1  0.77357358  0.26577486  0.05600726  1
  O  O193  1  0.86587576  0.24742827  0.50265322  1
  O  O194  1  0.87227838  0.76360424  0.00560082  1
  O  O195  1  0.86621453  0.74781905  0.50448633  1
  O  O196  1  0.13570012  0.24312279  0.49420875  1
  O  O197  1  0.11723300  0.22741752  0.98755771  1
  O  O198  1  0.15510517  0.71819815  0.47213128  1
  O  O199  1  0.12302120  0.73275636  0.99345384  1
  O  O200  1  0.63051502  0.22919462  0.49198242  1
  O  O201  1  0.61940018  0.22909803  1.01714772  1
  O  O202  1  0.61577988  0.74033042  0.49137511  1
  O  O203  1  0.65146166  0.77115855  0.99775476  1
  O  O204  1  0.48896726  0.24286399  0.12959192  1
  O  O205  1  0.49083769  0.23497168  0.61820769  1
  O  O206  1  0.48126004  0.76440047  0.14009423  1
  O  O207  1  0.49215522  0.74131565  0.63124472  1
  O  O208  1  0.98187350  0.25960852  0.12189964  1
  O  O209  1  0.99000963  0.24245919  0.60938085  1
  O  O210  1  0.98703150  0.74846530  0.13464321  1
  O  O211  1  1.01663004  0.76390180  0.63639010  1
  O  O212  1  0.01603568  0.25239111  0.37831095  1
  O  O213  1  -0.01294136  0.28015546  0.87039082  1
  O  O214  1  -0.00199294  0.77238418  0.38066868  1
  O  O215  1  0.00327727  0.76768999  0.86087575  1
  O  O216  1  0.51092667  0.22674250  0.37564063  1
  O  O217  1  0.51490233  0.25549656  0.88366733  1
  O  O218  1  0.50374955  0.75867578  0.37099210  1
  O  O219  1  0.49179418  0.76076561  0.86742103  1
  O  O220  1  0.24015169  0.12699649  0.48978298  1
  O  O221  1  0.25098243  0.13036753  0.97443256  1
  O  O222  1  0.24119400  0.60429108  0.49866722  1
  O  O223  1  0.25579946  0.61932641  0.98461954  1
  O  O224  1  0.74423838  0.12227908  0.49870484  1
  O  O225  1  0.73128190  0.11803905  1.00728314  1
  O  O226  1  0.73683906  0.63957565  0.49391441  1
  O  O227  1  0.74933521  0.63906373  0.98449708  1
  O  O228  1  0.25173683  0.38396811  0.01313543  1
  O  O229  1  0.26556199  0.36327323  0.49445614  1
  O  O230  1  0.25986887  0.88516972  0.00936148  1
  O  O231  1  0.17563491  0.83681346  0.50601282  1
  O  O232  1  0.74371617  0.47531243  0.07645659  1
  O  O233  1  0.76155339  0.36215319  0.49351977  1
  O  O234  1  0.77251743  0.86803132  -0.01930825  1
  O  O235  1  0.74825937  0.85744380  0.49485328  1
  O  O236  1  0.14300038  0.48282387  0.25166823  1
  O  O237  1  0.13756549  0.49211740  0.74799580  1
  O  O238  1  0.13412839  1.00657267  0.23176383  1
  O  O239  1  0.14080477  1.00244758  0.74310545  1
  O  O240  1  0.63516854  0.51051681  0.23070251  1
  O  O241  1  0.63695215  0.49987003  0.73967369  1
  O  O242  1  0.63383920  0.98875006  0.24651990  1
  O  O243  1  0.61874496  0.98509330  0.75936030  1
  O  O244  1  0.34801736  -0.00900920  0.24552850  1
  O  O245  1  0.36170100  -0.00531546  0.75540950  1
  O  O246  1  0.37518568  0.51355176  0.24889839  1
  O  O247  1  0.36396097  0.49682346  0.76216271  1
  O  O248  1  0.86648319  0.00292318  0.25941478  1
  O  O249  1  0.91496185  0.04068229  0.76636133  1
  O  O250  1  0.86513741  0.38070085  0.17566872  1
  O  O251  1  0.86616831  0.49936730  0.73430095  1
  O  O252  1  0.11763117  0.36612206  0.37854686  1
  O  O253  1  0.11954297  0.37821738  0.87318857  1
  O  O254  1  0.10980355  0.88945547  0.35960566  1
  O  O255  1  0.11961650  0.87640564  0.86819896  1
  O  O256  1  0.61573110  0.34512530  0.39178135  1
  O  O257  1  0.64078191  0.36077742  0.87696832  1
  O  O258  1  0.61604402  0.86379395  0.37049972  1
  O  O259  1  0.61400452  0.87002370  0.87794873  1
  O  O260  1  0.36797509  0.13035912  0.12100140  1
  O  O261  1  0.38886671  0.13499903  0.62004929  1
  O  O262  1  0.36322286  0.64405992  0.13009145  1
  O  O263  1  0.39099364  0.62258322  0.62769413  1
  O  O264  1  0.87017780  0.11481362  0.14381281  1
  O  O265  1  0.86680585  0.14148698  0.62576920  1
  O  O266  1  0.88655593  0.64235294  0.13264256  1
  O  O267  1  0.90294985  0.61355078  0.59402500  1
  O  O268  1  0.26050855  0.26791465  0.12329676  1
  O  O269  1  0.26741535  0.23418600  0.60881139  1
  O  O270  1  0.25834541  0.76275164  0.13657324  1
  O  O271  1  0.27226693  0.74739362  0.64052947  1
  O  O272  1  0.75598214  0.25985357  0.12700976  1
  O  O273  1  0.74435186  0.25780148  0.60975275  1
  O  O274  1  0.76472221  0.74418019  0.10510123  1
  O  O275  1  0.74837781  0.74856594  0.61218662  1
  O  O276  1  0.24539588  0.23624749  0.38315718  1
  O  O277  1  0.25041146  0.22496253  0.88387416  1
  O  O278  1  0.22424332  0.75748929  0.34158752  1
  O  O279  1  0.25286874  0.72802674  0.86193257  1
  O  O280  1  0.74220207  0.22953496  0.38752483  1
  O  O281  1  0.72673366  0.23778078  0.87655932  1
  O  O282  1  0.74010258  0.74025366  0.38722137  1
  O  O283  1  0.77053179  0.73725109  0.88057759  1
  O  O284  1  0.00822515  0.14758992  -0.00314985  1
  O  O285  1  0.01488042  0.11351702  0.48914401  1
  O  O286  1  -0.00777494  0.63098224  0.00417722  1
  O  O287  1  0.03357499  0.63109054  0.49188129  1
  O  O288  1  0.51274046  0.09912894  -0.00015596  1
  O  O289  1  0.50491491  0.10284840  0.50149749  1
  O  O290  1  0.50531134  0.65245556  0.00594795  1
  O  O291  1  0.49954574  0.60943889  0.50444069  1
  O  O292  1  0.49450323  0.38416286  0.49619948  1
  O  O293  1  0.50992036  0.37903796  1.00775653  1
  O  O294  1  0.50132989  0.88192998  0.49497580  1
  O  O295  1  0.49029854  0.86996760  0.98877366  1
  O  O296  1  0.99008147  0.36883887  0.48708549  1
  O  O297  1  1.00785749  0.38568717  0.98626253  1
  O  O298  1  1.00760179  0.89083167  0.49336906  1
  O  O299  1  0.98979008  0.86723334  0.98663627  1
  O  O300  1  0.50027841  0.50467484  0.37918266  1
  O  O301  1  0.49199295  0.49985344  0.86967119  1
  O  O302  1  0.50210180  0.98243295  0.39258172  1
  O  O303  1  0.50234750  0.98189060  0.89159735  1
  O  O304  1  1.00232502  0.48080805  0.37010360  1
  O  O305  1  0.98169455  0.48921983  0.86345527  1
  O  O306  1  0.99478703  0.99334184  0.38388529  1
  O  O307  1  1.01363978  0.98886207  0.89129830  1
  O  O308  1  0.01593168  0.00842989  0.12204518  1
  O  O309  1  0.01071880  0.00041685  0.61116997  1
  O  O310  1  -0.00990419  0.53165212  0.14106992  1
  O  O311  1  -0.04608932  0.56719710  0.61915595  1
  O  O312  1  0.51512677  -0.02087862  0.10962577  1
  O  O313  1  0.49179603  0.00926223  0.61593603  1
  O  O314  1  0.49441138  0.52407129  0.11843007  1
  O  O315  1  0.50818194  0.50398456  0.62580889  1
  O  O316  1  0.24779160  0.37991108  0.24198939  1
  O  O317  1  0.23530973  0.38277421  0.75837105  1
  O  O318  1  0.24030990  0.88601208  0.23580376  1
  O  O319  1  0.23990375  0.88706460  0.76182351  1
  O  O320  1  0.72144248  0.38030917  0.28674456  1
  O  O321  1  0.75106042  0.38602918  0.72625494  1
  O  O322  1  0.73989584  0.88232850  0.26669214  1
  O  O323  1  0.72965383  0.86932364  0.76320420  1
  O  O324  1  0.24671951  0.11540573  0.26507613  1
  O  O325  1  0.25434188  0.11392009  0.75003097  1
  O  O326  1  0.26157997  0.60717334  0.24700315  1
  O  O327  1  0.24878867  0.60802811  0.75490277  1
  O  O328  1  0.75293265  0.10627783  0.26173086  1
  O  O329  1  0.74107703  0.12851744  0.75709321  1
  O  O330  1  0.74935004  0.63224412  0.26974227  1
  O  O331  1  0.75523400  0.61794215  0.73336044  1
  O  O332  1  0.35640187  0.11863841  0.38444388  1
  O  O333  1  0.29433403  0.17203425  0.92359877  1
  O  O334  1  0.37216546  0.63298064  0.36191080  1
  O  O335  1  0.36721933  0.61281248  0.86734101  1
  O  O336  1  0.86574054  0.11068985  0.37305240  1
  O  O337  1  0.85103029  0.14139796  0.87845228  1
  O  O338  1  0.86485967  0.63021943  0.38377351  1
  O  O339  1  0.86757623  0.61002004  0.87315511  1
  O  O340  1  0.12784404  0.36276721  0.13594968  1
  O  O341  1  0.12327904  0.37387388  0.63097342  1
  O  O342  1  0.13838721  0.86515984  0.11111615  1
  O  O343  1  0.12360561  0.89589587  0.64695031  1
  O  O344  1  0.64615374  0.37263755  0.13600850  1
  O  O345  1  0.63133939  0.37745080  0.61168760  1
  O  O346  1  0.62418378  0.87329805  0.14514655  1
  O  O347  1  0.62037924  0.87952610  0.63858788  1
  O  O348  1  0.14196297  0.26468283  0.26336857  1
  O  O349  1  0.13057946  0.26377653  0.74419179  1
  O  O350  1  0.16589969  0.74105027  0.29656479  1
  O  O351  1  0.12663896  0.76777690  0.75130559  1
  O  O352  1  0.62781426  0.23430239  0.26665939  1
  O  O353  1  0.61326360  0.24939465  0.75730329  1
  O  O354  1  0.61568879  0.75339500  0.26018443  1
  O  O355  1  0.60967449  0.76193698  0.74475555  1
  O  O356  1  0.36845709  0.24656681  0.22875126  1
  O  O357  1  0.36788548  0.25983543  0.73200716  1
  O  O358  1  0.37755204  0.74279916  0.24383116  1
  O  O359  1  0.39102437  0.74707252  0.74081033  1
  O  O360  1  0.86188488  0.22578968  0.26201095  1
  O  O361  1  0.88106081  0.26708358  0.72587048  1
  O  O362  1  0.85874591  0.76520353  0.23140612  1
  O  O363  1  0.89469547  0.76067204  0.74136268  1
  O  O364  1  0.38828152  0.48362164  0.50005751  1
  O  O365  1  0.37661358  0.50497089  0.98222191  1
  O  O366  1  0.38130477  0.99732092  0.50175409  1
  O  O367  1  0.38940867  0.98410248  1.01023517  1
  O  O368  1  0.87342938  0.47699736  0.49418476  1
  O  O369  1  0.86289433  0.48631348  0.97866983  1
  O  O370  1  0.89189811  1.00631115  0.49479195  1
  O  O371  1  0.88219121  0.99116136  0.99713580  1
  O  O372  1  0.12842633  0.00884656  0.01903752  1
  O  O373  1  0.12287869  0.00511080  0.51119196  1
  O  O374  1  0.12984065  0.51154266  0.01154638  1
  O  O375  1  0.12893529  0.51199795  0.50371071  1
  O  O376  1  0.62117467  -0.00632926  0.00891098  1
  O  O377  1  0.62532499  0.00486884  0.50244323  1
  O  O378  1  0.61277369  0.52348553  0.00085131  1
  O  O379  1  0.60919291  0.51000631  0.49288807  1
  O  O380  1  0.37526066  0.37446965  0.12529308  1
  O  O381  1  0.38309899  0.35561118  0.60702210  1
  O  O382  1  0.35913930  0.86470772  0.11644063  1
  O  O383  1  0.38418583  0.86528898  0.62649546  1
  O  O384  1  0.91323219  0.28322789  0.10821029  1
  O  O385  1  0.86653500  0.36017531  0.60415629  1
  O  O386  1  0.88299784  0.87458048  0.10919224  1
  O  O387  1  0.84514502  0.91608531  0.64639987  1
  O  O388  1  0.13240253  0.13001987  0.38183905  1
  O  O389  1  0.07723153  0.16576402  0.95962853  1
  O  O390  1  0.13720860  0.60232867  0.39032550  1
  O  O391  1  0.13971363  0.61668861  0.87273109  1
  O  O392  1  0.63482726  0.11991058  0.38622282  1
  O  O393  1  0.62615301  0.13295900  0.88897477  1
  O  O394  1  0.62011088  0.63523242  0.38194196  1
  O  O395  1  0.65198400  0.62737053  0.85859051  1
