# generated using pymatgen
data_V35Zn35O128
_symmetry_space_group_name_H-M   'P 1'
_cell_length_a   16.99816463
_cell_length_b   17.02220221
_cell_length_c   16.91477521
_cell_angle_alpha   90.16657106
_cell_angle_beta   89.75381307
_cell_angle_gamma   89.45029471
_symmetry_Int_Tables_number   1
_chemical_formula_structural   V35Zn35O128
_chemical_formula_sum   'V70 Zn70 O256'
_cell_volume   4893.93415204
_cell_formula_units_Z   2
loop_
 _symmetry_equiv_pos_site_id
 _symmetry_equiv_pos_as_xyz
  1  'x, y, z'
loop_
 _atom_site_type_symbol
 _atom_site_label
 _atom_site_symmetry_multiplicity
 _atom_site_fract_x
 _atom_site_fract_y
 _atom_site_fract_z
 _atom_site_occupancy
  V  V0  1  0.62199949  0.36764948  0.26595838  1
  V  V1  1  0.74819870  0.74422126  0.01441643  1
  V  V2  1  0.36734107  0.26283489  0.63999341  1
  V  V3  1  0.74562764  0.24226237  0.01092663  1
  V  V4  1  0.50722142  0.61632335  0.15458719  1
  V  V5  1  0.74978945  0.61536936  0.85893153  1
  V  V6  1  0.49646721  0.48786470  0.50984848  1
  V  V7  1  0.13713924  0.26355946  0.38494413  1
  V  V8  1  0.74775741  0.23989451  0.48142755  1
  V  V9  1  0.63162082  0.86784157  0.25880054  1
  V  V10  1  0.49429552  0.87203560  0.38010108  1
  V  V11  1  0.75230199  -0.01132558  0.75575696  1
  V  V12  1  0.63387955  0.11799496  0.48397428  1
  V  V13  1  0.64703172  0.50358420  0.62513230  1
  V  V14  1  0.73345027  0.38420624  0.11950625  1
  V  V15  1  0.36832670  0.84091747  0.50620977  1
  V  V16  1  0.11592967  0.71088138  0.87039306  1
  V  V17  1  0.48210723  -0.01084955  -0.00291674  1
  V  V18  1  0.22360856  0.51536166  0.75753565  1
  V  V19  1  0.64147569  0.37070966  0.73852065  1
  V  V20  1  0.62971290  -0.00393548  0.62448464  1
  V  V21  1  0.28753381  0.36497790  0.12521155  1
  V  V22  1  0.85956492  0.25528259  0.62232216  1
  V  V23  1  -0.01148049  0.84795495  0.35370924  1
  V  V24  1  0.13473131  0.86938701  0.25670802  1
  V  V25  1  0.87689982  0.36416831  0.00219520  1
  V  V26  1  0.24385247  0.12439158  0.86402557  1
  V  V27  1  0.50020749  0.25008216  0.27722238  1
  V  V28  1  0.00475734  0.01269113  0.47851617  1
  V  V29  1  0.87412068  0.89374488  0.49514010  1
  V  V30  1  0.50926887  0.50000033  -0.02672937  1
  V  V31  1  0.14052771  0.13925164  0.50013659  1
  V  V32  1  0.63939480  0.76343220  0.86432834  1
  V  V33  1  0.87547091  0.63341062  0.23421544  1
  V  V34  1  -0.00902973  0.26307675  0.74959566  1
  V  V35  1  -0.00007825  0.00541540  -0.00182733  1
  V  V36  1  0.86632260  0.12141899  0.75200725  1
  V  V37  1  0.48827198  0.13639505  0.12108106  1
  V  V38  1  0.24175302  0.50358906  0.23758477  1
  V  V39  1  0.10556328  0.36793987  0.22163154  1
  V  V40  1  -0.01073381  0.51123685  0.00725057  1
  V  V41  1  0.61595584  -0.02102559  0.12619764  1
  V  V42  1  0.11495635  0.16090504  0.00494191  1
  V  V43  1  -0.00345779  0.12272529  0.62158790  1
  V  V44  1  0.37731916  0.49646495  0.36310414  1
  V  V45  1  0.39658131  0.11448890  0.74745630  1
  V  V46  1  0.74771873  0.49830654  0.26129456  1
  V  V47  1  0.62049379  0.11846987  0.00164213  1
  V  V48  1  -0.00254972  0.38471848  0.39512896  1
  V  V49  1  0.40188455  0.62220607  0.74701831  1
  V  V50  1  0.37074215  0.12073247  0.26658255  1
  V  V51  1  0.62070030  0.62864710  0.49997639  1
  V  V52  1  0.62431421  0.24224594  0.86488777  1
  V  V53  1  0.12321527  0.64965274  0.52128116  1
  V  V54  1  0.49246878  0.00369215  0.50007821  1
  V  V55  1  0.75476014  0.63427701  0.37867671  1
  V  V56  1  0.76621840  0.00333241  0.24396634  1
  V  V57  1  0.27190880  0.25020705  -0.00513598  1
  V  V58  1  0.86732131  0.86869818  -0.00261212  1
  V  V59  1  0.49760287  0.74419712  0.26900186  1
  V  V60  1  -0.03019464  0.64035445  0.62217322  1
  V  V61  1  0.49962680  0.36366281  0.85897949  1
  V  V62  1  0.47919814  0.87092686  0.87066835  1
  V  V63  1  0.12473406  0.36397287  0.76359001  1
  V  V64  1  0.86729905  0.49033330  0.86372841  1
  V  V65  1  0.50841743  0.75753234  0.73462396  1
  V  V66  1  0.12691683  0.02545078  0.13768389  1
  V  V67  1  0.76816079  0.74675582  0.50297588  1
  V  V68  1  0.86072908  0.38800453  0.49839104  1
  V  V69  1  0.08781061  0.91136936  0.74920470  1
  Zn  Zn70  1  0.38525428  0.76101400  0.11547037  1
  Zn  Zn71  1  0.38338436  0.38005416  -0.01392198  1
  Zn  Zn72  1  0.75754568  0.86601430  0.63455174  1
  Zn  Zn73  1  0.23167941  0.87785481  0.61991883  1
  Zn  Zn74  1  0.74911689  0.11609199  0.88105360  1
  Zn  Zn75  1  0.62511044  0.61806252  -0.00293655  1
  Zn  Zn76  1  0.19332994  0.20426123  0.18802388  1
  Zn  Zn77  1  0.18113268  0.20047467  0.67833685  1
  Zn  Zn78  1  0.18431391  0.68629236  0.30126462  1
  Zn  Zn79  1  0.16516123  0.69449058  0.69294566  1
  Zn  Zn80  1  0.67914979  0.18134299  0.19040319  1
  Zn  Zn81  1  0.68255433  0.17809489  0.67987499  1
  Zn  Zn82  1  0.67832183  0.68209409  0.18788553  1
  Zn  Zn83  1  0.69663684  0.68754027  0.68268978  1
  Zn  Zn84  1  0.31769115  0.32182797  0.31486145  1
  Zn  Zn85  1  0.31521231  0.30733787  0.81006907  1
  Zn  Zn86  1  0.31400002  0.81823499  0.29414773  1
  Zn  Zn87  1  0.30444026  0.75973065  0.83368626  1
  Zn  Zn88  1  0.81110539  0.31921812  0.31495595  1
  Zn  Zn89  1  0.80931054  0.30437255  0.82067180  1
  Zn  Zn90  1  0.81257426  0.81552700  0.30789737  1
  Zn  Zn91  1  0.83763626  0.80924655  0.81601279  1
  Zn  Zn92  1  0.18103849  0.46250614  0.42703924  1
  Zn  Zn93  1  0.16577187  0.51625567  0.91629554  1
  Zn  Zn94  1  0.22126832  0.96590411  0.47597780  1
  Zn  Zn95  1  0.15708561  0.95768994  0.92188817  1
  Zn  Zn96  1  0.68824653  0.43411163  0.44227937  1
  Zn  Zn97  1  0.68029353  0.43208724  0.93222291  1
  Zn  Zn98  1  0.69928680  0.94231151  0.42625486  1
  Zn  Zn99  1  0.68816893  0.93411832  0.94347905  1
  Zn  Zn100  1  0.30586490  0.06444074  0.06538182  1
  Zn  Zn101  1  0.31176603  0.05972741  0.59435248  1
  Zn  Zn102  1  0.34501587  0.55271522  0.08358709  1
  Zn  Zn103  1  0.29362881  0.54029225  0.57068909  1
  Zn  Zn104  1  0.79889898  0.03872727  0.06105889  1
  Zn  Zn105  1  0.80738440  0.06477174  0.56711910  1
  Zn  Zn106  1  0.80839677  0.55767853  0.05477739  1
  Zn  Zn107  1  0.85483239  0.51688178  0.65067032  1
  Zn  Zn108  1  0.44570866  0.43671637  0.20046135  1
  Zn  Zn109  1  0.44968565  0.44530280  0.68443420  1
  Zn  Zn110  1  0.42294944  0.93044385  0.19194870  1
  Zn  Zn111  1  0.43927277  0.93126493  0.68146304  1
  Zn  Zn112  1  0.92516032  0.43114829  0.17996535  1
  Zn  Zn113  1  1.02354789  0.41675619  0.61289526  1
  Zn  Zn114  1  0.95578360  0.92854708  0.16564339  1
  Zn  Zn115  1  0.93169574  0.94277234  0.67582348  1
  Zn  Zn116  1  0.19473617  0.07404505  0.32062107  1
  Zn  Zn117  1  0.05611240  0.09015131  0.82395333  1
  Zn  Zn118  1  0.04911606  0.54341054  0.28623324  1
  Zn  Zn119  1  0.03390638  0.54762580  0.79826080  1
  Zn  Zn120  1  0.55484563  0.05686171  0.31089125  1
  Zn  Zn121  1  0.56484115  0.04709072  0.81401804  1
  Zn  Zn122  1  0.56842761  0.54967306  0.32908627  1
  Zn  Zn123  1  0.57352058  0.56325700  0.80334445  1
  Zn  Zn124  1  0.43823327  0.17774353  0.44843390  1
  Zn  Zn125  1  0.43561848  0.17924368  0.92434570  1
  Zn  Zn126  1  0.30003088  0.67889823  0.44592461  1
  Zn  Zn127  1  0.43714055  0.68755710  0.92779233  1
  Zn  Zn128  1  0.95934129  0.21720308  0.45088939  1
  Zn  Zn129  1  0.93516157  0.18552000  0.93259447  1
  Zn  Zn130  1  0.94271190  0.66440272  0.43058155  1
  Zn  Zn131  1  0.93445168  0.68975917  0.92237291  1
  Zn  Zn132  1  0.09616612  0.35933287  -0.01767145  1
  Zn  Zn133  1  0.22235283  0.37459959  0.60161544  1
  Zn  Zn134  1  0.04323379  0.81712469  0.02538626  1
  Zn  Zn135  1  0.04741162  0.81991321  0.57335397  1
  Zn  Zn136  1  0.56254032  0.31454366  0.05600353  1
  Zn  Zn137  1  0.56767086  0.30952251  0.55501769  1
  Zn  Zn138  1  0.54413515  0.78882883  0.05255494  1
  Zn  Zn139  1  0.57762346  0.81855660  0.55017922  1
  O  O140  1  0.13480195  0.14078185  0.11058857  1
  O  O141  1  0.10781775  0.14078528  0.60762171  1
  O  O142  1  0.10454871  0.66132788  0.09844791  1
  O  O143  1  0.10382515  0.63045488  0.62134390  1
  O  O144  1  0.60622535  0.11302973  0.11509700  1
  O  O145  1  0.63310889  0.10408650  0.60944835  1
  O  O146  1  0.60035693  0.63994104  0.11065272  1
  O  O147  1  0.64244775  0.61014785  0.61541029  1
  O  O148  1  0.36989017  0.39702528  0.38285572  1
  O  O149  1  0.39702637  0.36776141  0.86460072  1
  O  O150  1  0.39042353  0.86794936  0.39050055  1
  O  O151  1  0.38344932  0.85348761  0.87362086  1
  O  O152  1  0.88368803  0.36628539  0.38966244  1
  O  O153  1  0.85010465  0.38254056  0.89337492  1
  O  O154  1  0.88355798  0.86945473  0.38372356  1
  O  O155  1  0.89062123  0.87310032  0.90160126  1
  O  O156  1  0.25105677  -0.00195923  0.37622765  1
  O  O157  1  0.24041708  0.02624472  0.88320346  1
  O  O158  1  0.25135809  0.48297165  0.33822921  1
  O  O159  1  0.25539440  0.49191495  0.85397126  1
  O  O160  1  0.76080067  -0.00505183  0.34514496  1
  O  O161  1  0.74075373  -0.00054165  0.86039606  1
  O  O162  1  0.74865103  0.49888357  0.36371182  1
  O  O163  1  0.74650211  0.50924750  0.88046185  1
  O  O164  1  0.27021655  0.47944235  0.13010638  1
  O  O165  1  0.27119139  0.47975419  0.67408071  1
  O  O166  1  0.22381022  1.00534221  0.11524634  1
  O  O167  1  0.23493416  0.98437705  0.58770907  1
  O  O168  1  0.73797223  0.48547661  0.12692384  1
  O  O169  1  0.74470658  0.48848412  0.62946323  1
  O  O170  1  0.72049553  0.98975704  0.12701125  1
  O  O171  1  0.74805756  0.99454774  0.63821150  1
  O  O172  1  0.00527902  0.37853698  0.24543007  1
  O  O173  1  -0.00773876  0.36209461  0.73606625  1
  O  O174  1  -0.02572162  0.85584743  0.25393945  1
  O  O175  1  -0.01123223  0.89139233  0.75708681  1
  O  O176  1  0.51214752  0.36116907  0.25747488  1
  O  O177  1  0.51754891  0.37036042  0.75723293  1
  O  O178  1  0.50376220  0.86779981  0.26642971  1
  O  O179  1  0.50078252  0.87352395  0.76353179  1
  O  O180  1  0.49814819  0.13773577  0.24045911  1
  O  O181  1  0.49585582  0.11867131  0.75641402  1
  O  O182  1  0.52767081  0.63402373  0.25933243  1
  O  O183  1  0.51068741  0.64456580  0.74975682  1
  O  O184  1  0.90718974  0.11573454  0.27512148  1
  O  O185  1  0.97908280  0.13253425  0.74164864  1
  O  O186  1  0.97406115  0.61405848  0.24182616  1
  O  O187  1  0.98184629  0.61300688  0.72575772  1
  O  O188  1  0.37558552  0.25215571  -0.00653853  1
  O  O189  1  0.41080392  0.25268808  0.53174675  1
  O  O190  1  0.43784631  0.75545156  0.01598989  1
  O  O191  1  0.38087349  0.74325998  0.50372928  1
  O  O192  1  0.85596478  0.25631775  -0.00966813  1
  O  O193  1  0.86093001  0.24162530  0.50678895  1
  O  O194  1  0.85346714  0.75332322  -0.00533098  1
  O  O195  1  0.86703233  0.74753740  0.49096846  1
  O  O196  1  0.12272006  0.24613696  0.49189804  1
  O  O197  1  0.15191061  0.26025881  1.00265395  1
  O  O198  1  0.11760426  0.74822688  0.50823103  1
  O  O199  1  0.17027718  0.83106922  1.04870055  1
  O  O200  1  0.63841105  0.23077304  0.50340956  1
  O  O201  1  0.62756091  0.23371946  0.99334562  1
  O  O202  1  0.63825137  0.73203387  0.50339920  1
  O  O203  1  0.63695194  0.75253644  0.98452128  1
  O  O204  1  0.50059295  0.23453826  0.11428237  1
  O  O205  1  0.47445111  0.24574181  0.59126894  1
  O  O206  1  0.50385293  0.74896083  0.16228824  1
  O  O207  1  0.52980664  0.76598640  0.63827970  1
  O  O208  1  0.97080839  0.22730888  0.17280596  1
  O  O209  1  0.97356865  0.23666827  0.63101944  1
  O  O210  1  1.05515392  0.71360843  0.11225627  1
  O  O211  1  0.98079569  0.74115760  0.62066006  1
  O  O212  1  0.01469329  0.27429229  0.37473708  1
  O  O213  1  -0.02451550  0.25326572  0.84871723  1
  O  O214  1  -0.00454090  0.75147860  0.37405302  1
  O  O215  1  0.04113351  0.74662154  0.93700219  1
  O  O216  1  0.50702958  0.24157844  0.37468780  1
  O  O217  1  0.51327788  0.25488999  0.87744109  1
  O  O218  1  0.52008256  0.77083561  0.37636565  1
  O  O219  1  0.51985067  0.76636133  0.86617883  1
  O  O220  1  0.23655898  0.12949716  0.51158673  1
  O  O221  1  0.25494217  0.14298792  0.99590186  1
  O  O222  1  0.23056560  0.63362481  0.53118961  1
  O  O223  1  0.25682616  0.63174079  1.03337796  1
  O  O224  1  0.74500321  0.12843739  0.49332850  1
  O  O225  1  0.73978286  0.12221797  1.00498568  1
  O  O226  1  0.75399171  0.63565726  0.48652828  1
  O  O227  1  0.74426743  0.63560389  0.99515558  1
  O  O228  1  0.26887211  0.36662975  0.01464110  1
  O  O229  1  0.23094823  0.45271280  0.52362285  1
  O  O230  1  0.21229960  0.87035469  0.00099154  1
  O  O231  1  0.26667000  0.85448846  0.49841323  1
  O  O232  1  0.73834730  0.36360394  0.01083953  1
  O  O233  1  0.75557843  0.35324172  0.49208363  1
  O  O234  1  0.75986950  0.86653087  0.00504618  1
  O  O235  1  0.76461083  0.86137689  0.48438698  1
  O  O236  1  0.13352582  0.47557542  0.23739377  1
  O  O237  1  0.12136880  0.48038774  0.75704063  1
  O  O238  1  0.12299418  1.05602449  0.23331574  1
  O  O239  1  0.09496363  1.01297660  0.75010806  1
  O  O240  1  0.63172200  0.47830950  0.25771800  1
  O  O241  1  0.62632255  0.48336115  0.73501964  1
  O  O242  1  0.61258390  0.98787620  0.23527956  1
  O  O243  1  0.63962087  0.99933525  0.73643691  1
  O  O244  1  0.38886897  0.02304387  0.25007487  1
  O  O245  1  0.37881267  0.01553273  0.73221662  1
  O  O246  1  0.37022757  0.50599208  0.25632984  1
  O  O247  1  0.41360284  0.52281939  0.76060785  1
  O  O248  1  0.85750365  -0.01880576  0.20648878  1
  O  O249  1  0.86314003  0.01435330  0.74454665  1
  O  O250  1  0.84890516  0.49747950  0.24179125  1
  O  O251  1  0.86178263  0.48440238  0.76577735  1
  O  O252  1  0.11000248  0.37790657  0.38912715  1
  O  O253  1  0.10433050  0.36567299  0.86250727  1
  O  O254  1  0.08822067  0.88596018  0.35307006  1
  O  O255  1  0.13804386  0.88508246  0.83461468  1
  O  O256  1  0.63672976  0.36455124  0.36383830  1
  O  O257  1  0.62238728  0.35928976  0.86213134  1
  O  O258  1  0.62037568  0.88613538  0.36150567  1
  O  O259  1  0.63663578  0.86384137  0.87078161  1
  O  O260  1  0.38740576  0.12289647  0.12970383  1
  O  O261  1  0.36816871  0.13991227  0.64372841  1
  O  O262  1  0.40778785  0.63721843  0.12554956  1
  O  O263  1  0.35882922  0.62672120  0.65823809  1
  O  O264  1  0.97435573  0.15584054  0.17136025  1
  O  O265  1  0.87346525  0.13191411  0.63337460  1
  O  O266  1  0.85334699  0.61808405  0.13725138  1
  O  O267  1  0.87018105  0.62742105  0.61242920  1
  O  O268  1  0.26433992  0.26057337  0.11466963  1
  O  O269  1  0.26211945  0.26445951  0.62261965  1
  O  O270  1  0.25779194  0.70177089  0.05779174  1
  O  O271  1  0.25220319  0.77326564  0.67262328  1
  O  O272  1  0.73784507  0.25076285  0.11433589  1
  O  O273  1  0.75748235  0.24055537  0.61513181  1
  O  O274  1  0.73852179  0.74556615  0.11241177  1
  O  O275  1  0.75298368  0.75277886  0.60750651  1
  O  O276  1  0.23540240  0.27862730  0.38202969  1
  O  O277  1  0.25820058  0.24653848  0.88997620  1
  O  O278  1  0.26184628  0.73971091  0.35913060  1
  O  O279  1  0.20975269  0.73631576  0.89618894  1
  O  O280  1  0.75315161  0.24200522  0.38296370  1
  O  O281  1  0.73504095  0.24021762  0.88768728  1
  O  O282  1  0.74915807  0.73796379  0.37952677  1
  O  O283  1  0.74533419  0.73897021  0.87400843  1
  O  O284  1  0.01852724  0.18347207  0.01133600  1
  O  O285  1  -0.00858555  0.12227525  0.50191233  1
  O  O286  1  -0.02155544  0.60855537  -0.00298734  1
  O  O287  1  0.01000920  0.62343736  0.51164381  1
  O  O288  1  0.50019353  0.11156820  0.00372603  1
  O  O289  1  0.51951837  0.10762497  0.49733183  1
  O  O290  1  0.50650338  0.60360873  -0.03089972  1
  O  O291  1  0.52423760  0.61131267  0.50258255  1
  O  O292  1  0.52171830  0.39138204  0.49201806  1
  O  O293  1  0.50718777  0.37789282  0.97879464  1
  O  O294  1  0.49927792  0.88242149  0.49289392  1
  O  O295  1  0.50392321  0.88651404  0.98730533  1
  O  O296  1  0.97946609  0.38411078  0.50067460  1
  O  O297  1  0.97549809  0.36073370  1.00097076  1
  O  O298  1  0.98916578  0.89431211  0.49152299  1
  O  O299  1  1.04128477  0.91944058  0.96479741  1
  O  O300  1  0.48344468  0.50794948  0.39104198  1
  O  O301  1  0.51676242  0.47988390  0.87024296  1
  O  O302  1  0.50482420  0.98763149  0.39046236  1
  O  O303  1  0.49804504  0.98382403  0.88402951  1
  O  O304  1  0.99576984  0.48025132  0.36737052  1
  O  O305  1  0.97071191  0.49431929  0.88207961  1
  O  O306  1  0.98528676  1.01070222  0.38468735  1
  O  O307  1  0.98469848  1.06647417  0.91663705  1
  O  O308  1  0.00816653  0.01729944  0.10609245  1
  O  O309  1  -0.01382937  0.01819563  0.60642931  1
  O  O310  1  -0.01580543  0.49540746  0.10680079  1
  O  O311  1  -0.03083703  0.51159024  0.62939754  1
  O  O312  1  0.50117916  -0.00092654  0.11184852  1
  O  O313  1  0.52185129  -0.01251454  0.61043998  1
  O  O314  1  0.50715117  0.51623098  0.14631212  1
  O  O315  1  0.52925037  0.49309954  0.61514660  1
  O  O316  1  0.25015121  0.37060206  0.22648941  1
  O  O317  1  0.22472768  0.35249957  0.75947510  1
  O  O318  1  0.22780112  0.89821111  0.27504537  1
  O  O319  1  0.26271840  0.81926666  0.74096828  1
  O  O320  1  0.74125120  0.37779121  0.23993974  1
  O  O321  1  0.73888543  0.36801280  0.75380528  1
  O  O322  1  0.73383286  0.88141909  0.24740159  1
  O  O323  1  0.77548088  0.88520304  0.75289776  1
  O  O324  1  0.26872560  0.13913972  0.25048626  1
  O  O325  1  0.23208981  0.13801277  0.76435249  1
  O  O326  1  0.22953760  0.60150639  0.23027616  1
  O  O327  1  0.22435952  0.61496381  0.75227606  1
  O  O328  1  0.74766588  0.10237708  0.22846843  1
  O  O329  1  0.75533041  0.11365730  0.74811893  1
  O  O330  1  0.73780007  0.61018201  0.25912730  1
  O  O331  1  0.75252260  0.62191817  0.75921810  1
  O  O332  1  0.37962912  0.12808495  0.36698486  1
  O  O333  1  0.36129358  0.12749269  0.85363600  1
  O  O334  1  0.34020363  0.57434312  0.41608674  1
  O  O335  1  0.36386708  0.65986066  0.84581856  1
  O  O336  1  0.88697856  0.18181895  0.30348834  1
  O  O337  1  0.86234507  0.13621460  0.85466904  1
  O  O338  1  0.85750875  0.61954147  0.36037427  1
  O  O339  1  0.85457518  0.60233800  0.88322689  1
  O  O340  1  0.11229961  0.35804842  0.12498528  1
  O  O341  1  0.11722946  0.36959286  0.64721971  1
  O  O342  1  0.10136706  0.91834783  0.16655583  1
  O  O343  1  0.11675844  0.87085724  0.65189945  1
  O  O344  1  0.63148211  0.36685497  0.13444334  1
  O  O345  1  0.62996135  0.36738183  0.63517110  1
  O  O346  1  0.60619404  0.87819656  0.13128896  1
  O  O347  1  0.64493687  0.89158387  0.60841744  1
  O  O348  1  0.13067912  0.27069584  0.26366751  1
  O  O349  1  0.09805939  0.25119837  0.74590695  1
  O  O350  1  0.13839368  0.77112199  0.23790979  1
  O  O351  1  0.09666951  0.73779987  0.77543607  1
  O  O352  1  0.61208620  0.25551980  0.24781065  1
  O  O353  1  0.63295849  0.25172295  0.75581542  1
  O  O354  1  0.62744997  0.76579581  0.25292425  1
  O  O355  1  0.63044523  0.74851456  0.75956691  1
  O  O356  1  0.39531267  0.24625768  0.26112861  1
  O  O357  1  0.38006066  0.23806838  0.74329948  1
  O  O358  1  0.40293599  0.72811950  0.28222676  1
  O  O359  1  0.40937972  0.75177917  0.73650462  1
  O  O360  1  0.85782506  0.23714027  0.24753640  1
  O  O361  1  0.86597535  0.24409813  0.73628545  1
  O  O362  1  0.85804567  0.73200212  0.24586588  1
  O  O363  1  0.91073695  0.72695194  0.81665741  1
  O  O364  1  0.40092204  0.49217248  0.53539034  1
  O  O365  1  0.40854989  0.49165220  1.00971641  1
  O  O366  1  0.39576230  1.01416343  0.51136962  1
  O  O367  1  0.38407823  0.99883030  1.00519995  1
  O  O368  1  0.84633503  0.48209971  0.50342288  1
  O  O369  1  0.87469073  0.48175560  0.99596928  1
  O  O370  1  0.86945142  0.99488909  0.49259654  1
  O  O371  1  0.88434358  0.98243839  1.01484797  1
  O  O372  1  0.11067002  0.04121101  0.00727292  1
  O  O373  1  0.10920975  0.02756946  0.48399118  1
  O  O374  1  0.09174209  0.47743131  -0.01036041  1
  O  O375  1  0.13897417  0.58220004  0.42527259  1
  O  O376  1  0.61682331  0.00195298  0.00848481  1
  O  O377  1  0.63660398  0.00621954  0.50292266  1
  O  O378  1  0.61032371  0.49491963  0.00319018  1
  O  O379  1  0.63338402  0.50520119  0.51138319  1
  O  O380  1  0.38782945  0.36646357  0.12912527  1
  O  O381  1  0.38166180  0.36146907  0.65054737  1
  O  O382  1  0.35246820  0.84445502  0.18294105  1
  O  O383  1  0.38185601  0.87315080  0.60330720  1
  O  O384  1  0.85088683  0.37090071  0.10967839  1
  O  O385  1  0.86902682  0.35782785  0.60812852  1
  O  O386  1  0.94274173  0.85176584  0.07270322  1
  O  O387  1  0.87182681  0.87921873  0.59949105  1
  O  O388  1  0.13388550  0.15230412  0.38511970  1
  O  O389  1  0.13475398  0.14315380  0.89358459  1
  O  O390  1  0.10370095  0.62049259  0.35728193  1
  O  O391  1  0.10467511  0.60680223  0.87456850  1
  O  O392  1  0.62598647  0.11269297  0.38441577  1
  O  O393  1  0.62143019  0.12323180  0.88657380  1
  O  O394  1  0.64236265  0.61175913  0.39259562  1
  O  O395  1  0.63934760  0.63123576  0.87408315  1
