# generated using pymatgen
data_V35Zn35O128
_symmetry_space_group_name_H-M   'P 1'
_cell_length_a   16.93594239
_cell_length_b   16.86662131
_cell_length_c   16.92828408
_cell_angle_alpha   89.92389517
_cell_angle_beta   90.00454472
_cell_angle_gamma   90.27200387
_symmetry_Int_Tables_number   1
_chemical_formula_structural   V35Zn35O128
_chemical_formula_sum   'V70 Zn70 O256'
_cell_volume   4835.54158193
_cell_formula_units_Z   2
loop_
 _symmetry_equiv_pos_site_id
 _symmetry_equiv_pos_as_xyz
  1  'x, y, z'
loop_
 _atom_site_type_symbol
 _atom_site_label
 _atom_site_symmetry_multiplicity
 _atom_site_fract_x
 _atom_site_fract_y
 _atom_site_fract_z
 _atom_site_occupancy
  V  V0  1  0.12607283  0.39013272  0.73522946  1
  V  V1  1  0.37824252  0.76259274  0.09609364  1
  V  V2  1  0.00320184  0.12107082  0.12933937  1
  V  V3  1  0.51327627  0.61049160  0.61717861  1
  V  V4  1  0.50557454  -0.00681118  0.50980123  1
  V  V5  1  0.37400868  0.14988162  0.75211401  1
  V  V6  1  0.87435091  0.50510116  0.91425991  1
  V  V7  1  0.22691055  -0.00747406  0.24628220  1
  V  V8  1  0.50829179  0.38886177  0.87730217  1
  V  V9  1  0.00160171  0.13476484  0.61165482  1
  V  V10  1  0.36792399  -0.00756006  0.38762736  1
  V  V11  1  0.37499279  0.24474529  0.12209583  1
  V  V12  1  0.83010507  0.36285883  0.50880644  1
  V  V13  1  0.00770269  0.39316910  0.37413181  1
  V  V14  1  0.25391177  0.00826272  0.74840457  1
  V  V15  1  0.12819950  0.12816016  -0.00235263  1
  V  V16  1  0.48429575  0.73572903  0.24114234  1
  V  V17  1  0.50553667  0.49562855  0.48069022  1
  V  V18  1  0.13297250  0.87980822  0.74996493  1
  V  V19  1  0.63318544  0.38148706  0.74166892  1
  V  V20  1  0.11119007  0.50370069  0.10835337  1
  V  V21  1  0.64314563  0.74534421  0.88467224  1
  V  V22  1  0.62826806  0.12056860  0.00484256  1
  V  V23  1  0.61246596  0.89641220  0.25834333  1
  V  V24  1  0.13875581  0.38379791  0.24491226  1
  V  V25  1  0.38869022  0.38166702  -0.00271028  1
  V  V26  1  0.62037498  0.24554363  0.86975602  1
  V  V27  1  0.00481496  0.25146584  0.24701402  1
  V  V28  1  0.61828834  0.14648896  0.49228818  1
  V  V29  1  -0.01052355  0.37759975  0.88693372  1
  V  V30  1  0.87606568  0.63974592  0.22266921  1
  V  V31  1  0.86492053  0.00620611  0.39089285  1
  V  V32  1  0.87997111  0.25226755  0.12616126  1
  V  V33  1  0.50240138  0.12045595  0.12410293  1
  V  V34  1  0.74470271  0.36920670  0.16085091  1
  V  V35  1  0.62568563  0.88073558  0.73858080  1
  V  V36  1  0.75843082  0.11793907  0.87147387  1
  V  V37  1  0.00078494  0.87520589  0.87114782  1
  V  V38  1  0.23734935  0.87546905  0.11107576  1
  V  V39  1  0.61928924  0.72510108  0.37066871  1
  V  V40  1  -0.01139581  0.24330431  0.74765905  1
  V  V41  1  0.36720890  0.49969286  0.35060668  1
  V  V42  1  0.49952972  0.25523870  0.26651396  1
  V  V43  1  0.25528222  0.24689518  -0.01000269  1
  V  V44  1  0.73571415  0.88165950  0.13143390  1
  V  V45  1  0.76068068  0.74555093  0.52433967  1
  V  V46  1  0.76528278  0.50366751  0.72968380  1
  V  V47  1  0.25299454  0.25663560  0.51179012  1
  V  V48  1  0.86880880  0.86579120  0.00349489  1
  V  V49  1  0.37683152  0.75488406  0.61754871  1
  V  V50  1  0.49714201  0.14659790  0.62938561  1
  V  V51  1  0.75024537  0.00166713  0.73181047  1
  V  V52  1  0.24312747  0.62889487  0.35713095  1
  V  V53  1  0.32900140  0.55089167  0.83994804  1
  V  V54  1  0.00202422  0.00254938  -0.00067315  1
  V  V55  1  0.13087083  0.24815032  0.37469951  1
  V  V56  1  0.24467664  0.12616821  0.37786902  1
  V  V57  1  0.37151224  -0.00397389  0.87468833  1
  V  V58  1  0.14204126  0.74300149  0.88026532  1
  V  V59  1  0.37044564  0.11703018  0.24873284  1
  V  V60  1  0.12893634  0.01115486  0.61372077  1
  V  V61  1  0.12767623  0.25964742  0.87260923  1
  V  V62  1  0.25884847  0.38711529  0.12295684  1
  V  V63  1  0.50528907  0.74042148  0.74554797  1
  V  V64  1  0.85009545  0.50018581  0.35312081  1
  V  V65  1  -0.01438351  0.73178063  0.75082339  1
  V  V66  1  0.58690138  0.56736599  0.07411448  1
  V  V67  1  0.49999228  -0.00459580  -0.00391921  1
  V  V68  1  0.37164223  0.38270769  0.52188265  1
  V  V69  1  0.75929695  0.25769093  0.00033804  1
  Zn  Zn70  1  0.50379169  0.86949225  0.87690332  1
  Zn  Zn71  1  0.15794579  0.56624863  0.55432235  1
  Zn  Zn72  1  0.48816507  0.86295675  0.38286973  1
  Zn  Zn73  1  0.81893469  0.66259048  0.83508957  1
  Zn  Zn74  1  0.25450887  0.73934645  0.49535080  1
  Zn  Zn75  1  0.88259334  0.00792897  0.86745609  1
  Zn  Zn76  1  0.18900168  0.18857018  0.18471521  1
  Zn  Zn77  1  0.18599428  0.19134179  0.69488627  1
  Zn  Zn78  1  0.24202241  0.65133963  0.14635056  1
  Zn  Zn79  1  0.22582619  0.62865636  0.69130685  1
  Zn  Zn80  1  0.66955368  0.21618780  0.18066200  1
  Zn  Zn81  1  0.68469976  0.18922770  0.68204360  1
  Zn  Zn82  1  0.69462042  0.70369954  0.19712942  1
  Zn  Zn83  1  0.69403852  0.68509074  0.68763154  1
  Zn  Zn84  1  0.32228525  0.31507547  0.31366623  1
  Zn  Zn85  1  0.30656442  0.34586220  0.81025904  1
  Zn  Zn86  1  0.30436079  0.80947254  0.30462531  1
  Zn  Zn87  1  0.31897188  0.81240941  0.80508811  1
  Zn  Zn88  1  0.82961494  0.30166533  0.32863874  1
  Zn  Zn89  1  0.81067028  0.31386016  0.81251372  1
  Zn  Zn90  1  0.79534070  0.81321455  0.30817516  1
  Zn  Zn91  1  0.81448629  0.82998010  0.80576544  1
  Zn  Zn92  1  0.19698735  0.44218680  0.43309217  1
  Zn  Zn93  1  0.20033676  0.45888378  0.93531468  1
  Zn  Zn94  1  0.14217972  0.88455513  0.47007041  1
  Zn  Zn95  1  0.18622570  0.94312711  0.93499003  1
  Zn  Zn96  1  0.68300624  0.43072087  0.42465853  1
  Zn  Zn97  1  0.69935052  0.43613756  0.92366851  1
  Zn  Zn98  1  0.67682949  0.92731158  0.45093725  1
  Zn  Zn99  1  0.68567949  0.93163425  0.93537983  1
  Zn  Zn100  1  0.30915817  0.05559139  0.06056952  1
  Zn  Zn101  1  0.31265648  0.07252897  0.56846777  1
  Zn  Zn102  1  0.34041449  0.58882916  0.00972027  1
  Zn  Zn103  1  0.32929516  0.57793928  0.55631982  1
  Zn  Zn104  1  0.81547715  0.05998682  0.06317498  1
  Zn  Zn105  1  0.80229465  0.10605287  0.57392421  1
  Zn  Zn106  1  0.79001421  0.54909453  0.08856515  1
  Zn  Zn107  1  0.78677881  0.55024783  0.52812291  1
  Zn  Zn108  1  0.44958757  0.44189643  0.17794098  1
  Zn  Zn109  1  0.44148192  0.44124137  0.69593548  1
  Zn  Zn110  1  0.43263827  0.93254730  0.18292647  1
  Zn  Zn111  1  0.43873226  0.93471846  0.68781566  1
  Zn  Zn112  1  0.93634643  0.43876558  0.18902062  1
  Zn  Zn113  1  0.92585559  0.40568610  0.68849942  1
  Zn  Zn114  1  0.90250212  0.95435281  0.17896589  1
  Zn  Zn115  1  0.94567188  0.96291581  0.69124899  1
  Zn  Zn116  1  0.04700614  -0.06088964  0.30589480  1
  Zn  Zn117  1  0.06790779  0.06986178  0.81592803  1
  Zn  Zn118  1  0.06389344  0.57352158  0.29269249  1
  Zn  Zn119  1  0.05899466  0.56089848  0.82395402  1
  Zn  Zn120  1  0.54967271  0.06842023  0.31899816  1
  Zn  Zn121  1  0.56041477  0.06360652  0.80642633  1
  Zn  Zn122  1  0.58477487  0.57173970  0.25982201  1
  Zn  Zn123  1  0.57527185  0.56485647  0.81365937  1
  Zn  Zn124  1  0.42906451  0.18746573  0.44519642  1
  Zn  Zn125  1  0.43818633  0.18221632  0.93351142  1
  Zn  Zn126  1  0.43803792  0.68030392  0.43456307  1
  Zn  Zn127  1  0.46794268  0.68452741  0.93928237  1
  Zn  Zn128  1  0.93936278  0.20528363  0.43862646  1
  Zn  Zn129  1  0.94058498  0.19121175  0.93872055  1
  Zn  Zn130  1  0.89542344  0.70264846  0.39294995  1
  Zn  Zn131  1  0.91991362  0.67204199  1.01778266  1
  Zn  Zn132  1  0.06977249  0.31713850  0.06197613  1
  Zn  Zn133  1  0.06470634  0.32204422  0.55512753  1
  Zn  Zn134  1  0.06261177  0.80206503  0.05883755  1
  Zn  Zn135  1  0.11070936  0.75196915  0.61189507  1
  Zn  Zn136  1  0.56739573  0.30914095  0.06348051  1
  Zn  Zn137  1  0.55790147  0.32150958  0.56112720  1
  Zn  Zn138  1  0.56808554  0.80993638  0.06521159  1
  Zn  Zn139  1  0.58064205  0.80894295  0.55421915  1
  O  O140  1  0.11318445  0.13940378  0.10926997  1
  O  O141  1  0.12339566  0.11890343  0.62663119  1
  O  O142  1  0.14324730  0.59986631  0.12120181  1
  O  O143  1  0.13078249  0.64271742  0.63284516  1
  O  O144  1  0.61551271  0.13273165  0.11547725  1
  O  O145  1  0.60224800  0.13263883  0.61915063  1
  O  O146  1  0.62827644  0.61543735  0.15856849  1
  O  O147  1  0.61183586  0.63459906  0.62250660  1
  O  O148  1  0.36555993  0.39602331  0.38032679  1
  O  O149  1  0.40009111  0.36613894  0.88686896  1
  O  O150  1  0.37042470  0.89073847  0.36867162  1
  O  O151  1  0.38312114  0.89270111  0.86883302  1
  O  O152  1  0.90060525  0.39873643  0.34388899  1
  O  O153  1  0.88498162  0.37796611  0.87740320  1
  O  O154  1  0.85471849  0.90175839  0.37703452  1
  O  O155  1  0.88938842  0.88533484  0.88042455  1
  O  O156  1  0.25848465  0.00948565  0.35813273  1
  O  O157  1  0.26629137  0.00290337  0.86965744  1
  O  O158  1  0.25870701  0.50909793  0.36279408  1
  O  O159  1  0.27356203  0.45142823  0.85082795  1
  O  O160  1  0.75900497  0.00335948  0.39426772  1
  O  O161  1  0.75253051  0.01364940  0.88073972  1
  O  O162  1  0.75036093  0.48849193  0.35250157  1
  O  O163  1  0.77896221  0.49684801  0.87107580  1
  O  O164  1  0.25756200  0.48528281  0.11593976  1
  O  O165  1  0.24843179  0.53543341  0.62575206  1
  O  O166  1  0.25123215  0.99454671  0.13966204  1
  O  O167  1  0.24086478  1.01053493  0.63772877  1
  O  O168  1  0.74151931  0.46888441  0.15292757  1
  O  O169  1  0.75389975  0.50575113  0.63051475  1
  O  O170  1  0.79410162  0.97771115  0.14307004  1
  O  O171  1  0.74998260  1.01564385  0.63484243  1
  O  O172  1  0.01759453  0.36737474  0.25045056  1
  O  O173  1  0.00519629  0.36278159  0.76076136  1
  O  O174  1  -0.04242749  0.89985240  0.25788729  1
  O  O175  1  0.00604603  0.89379328  0.76516262  1
  O  O176  1  0.48551432  0.35024947  0.23617291  1
  O  O177  1  0.51919760  0.37930055  0.76906561  1
  O  O178  1  0.50609999  0.87273025  0.24731540  1
  O  O179  1  0.51506600  0.87424672  0.75455777  1
  O  O180  1  0.48740606  0.13176288  0.24080977  1
  O  O181  1  0.49010369  0.12664595  0.73888175  1
  O  O182  1  0.48871362  0.63635865  0.23926187  1
  O  O183  1  0.51466300  0.63568103  0.74203066  1
  O  O184  1  1.01324190  0.13719974  0.22982065  1
  O  O185  1  1.00277520  0.13957682  0.75110549  1
  O  O186  1  0.97789510  0.62769453  0.24615564  1
  O  O187  1  0.99473919  0.63325438  0.75982356  1
  O  O188  1  0.37203433  0.24571821  0.00453242  1
  O  O189  1  0.36280575  0.26733168  0.49919943  1
  O  O190  1  0.39849081  0.76475411  -0.00145355  1
  O  O191  1  0.37604158  0.74675882  0.51144412  1
  O  O192  1  0.86531727  0.24848194  0.00662876  1
  O  O193  1  0.85365494  0.28061136  0.44274610  1
  O  O194  1  0.86595512  0.76913671  -0.02093293  1
  O  O195  1  0.85164304  0.76062609  0.48068011  1
  O  O196  1  0.14210655  0.26544000  0.48423127  1
  O  O197  1  0.13725969  0.25043103  0.99293700  1
  O  O198  1  0.04515039  0.71039700  0.46308947  1
  O  O199  1  0.13494192  0.76279254  0.97791067  1
  O  O200  1  0.60847700  0.24707524  0.49535833  1
  O  O201  1  0.63838098  0.23868223  0.99060945  1
  O  O202  1  0.58506460  0.73505045  0.46715594  1
  O  O203  1  0.63141552  0.76089937  0.98477137  1
  O  O204  1  0.48921153  0.23522709  0.12174783  1
  O  O205  1  0.49135234  0.24557466  0.62525418  1
  O  O206  1  0.48686818  0.75950665  0.12911829  1
  O  O207  1  0.50418722  0.75072469  0.63597881  1
  O  O208  1  0.99690636  0.25107267  0.12761104  1
  O  O209  1  1.01082056  0.24503543  0.63984511  1
  O  O210  1  1.04751667  0.76813992  0.24071703  1
  O  O211  1  1.00207560  0.75365219  0.65364731  1
  O  O212  1  0.01367724  0.25363214  0.36061812  1
  O  O213  1  0.00410170  0.25749974  0.86701457  1
  O  O214  1  0.00752112  0.74616017  0.40258303  1
  O  O215  1  0.01135188  0.77101875  0.86345660  1
  O  O216  1  0.47424123  0.25231597  0.36370377  1
  O  O217  1  0.51945353  0.24797882  0.87740744  1
  O  O218  1  0.49274175  0.74862633  0.35373706  1
  O  O219  1  0.51883386  0.75185019  0.86102319  1
  O  O220  1  0.26127255  0.14354347  0.48768997  1
  O  O221  1  0.24231128  0.13557660  1.00518573  1
  O  O222  1  0.24470949  0.62257900  0.48611177  1
  O  O223  1  0.25968735  0.55918862  0.93651135  1
  O  O224  1  0.72016219  0.13065988  0.50201504  1
  O  O225  1  0.74490833  0.12690825  0.99494613  1
  O  O226  1  0.73754609  0.64598610  0.50200706  1
  O  O227  1  0.69307480  0.57528738  1.01984514  1
  O  O228  1  0.27281821  0.36474820  0.00427739  1
  O  O229  1  0.26106349  0.36850708  0.50139214  1
  O  O230  1  0.25228649  0.89891253  0.01371364  1
  O  O231  1  0.17476492  0.80551416  0.53728714  1
  O  O232  1  0.74711385  0.35641481  -0.00092506  1
  O  O233  1  0.72895164  0.36320697  0.50507780  1
  O  O234  1  0.76239554  0.89266354  0.01510762  1
  O  O235  1  0.70003668  0.83469469  0.51273640  1
  O  O236  1  0.12634006  0.48669925  0.23406620  1
  O  O237  1  0.12028347  0.48788788  0.76256683  1
  O  O238  1  0.12867494  1.00132415  0.24942488  1
  O  O239  1  0.14191587  1.00383188  0.75860081  1
  O  O240  1  0.60879037  0.45251848  0.26637732  1
  O  O241  1  0.64286343  0.48743051  0.75909310  1
  O  O242  1  0.60779331  0.99662979  0.25125185  1
  O  O243  1  0.63579892  0.99180974  0.75692311  1
  O  O244  1  0.37927285  0.01098222  0.25583518  1
  O  O245  1  0.36779391  0.00157882  0.75736793  1
  O  O246  1  0.38186076  0.49685032  0.25150379  1
  O  O247  1  0.39310795  0.50279492  0.77500999  1
  O  O248  1  0.86586434  0.02293047  0.28759754  1
  O  O249  1  0.85597852  -0.00475977  0.75208592  1
  O  O250  1  0.87493733  0.51939910  0.24919999  1
  O  O251  1  0.86583443  0.48801453  0.73999927  1
  O  O252  1  0.12494246  0.36859584  0.36099094  1
  O  O253  1  0.11116233  0.36824955  0.86997456  1
  O  O254  1  0.11495925  0.88100403  0.36682106  1
  O  O255  1  0.11697990  0.88187720  0.86665425  1
  O  O256  1  0.60678000  0.40747267  0.32688797  1
  O  O257  1  0.62227253  0.36125438  0.87823292  1
  O  O258  1  0.61097287  0.88163802  0.36315037  1
  O  O259  1  0.62696157  0.86520087  0.86516433  1
  O  O260  1  0.37863800  0.12750751  0.12875334  1
  O  O261  1  0.38096661  0.13012843  0.64214926  1
  O  O262  1  0.35012213  0.65367790  0.10009626  1
  O  O263  1  0.40660274  0.63870519  0.62489551  1
  O  O264  1  0.89287557  0.13858605  0.11872598  1
  O  O265  1  0.90365234  0.11453428  0.62232055  1
  O  O266  1  0.86425504  0.63285548  0.11615663  1
  O  O267  1  0.92065980  0.58632598  0.59842575  1
  O  O268  1  0.26176354  0.25446501  0.11334895  1
  O  O269  1  0.24216123  0.24540004  0.60877002  1
  O  O270  1  0.26162976  0.76968727  0.11725658  1
  O  O271  1  0.28246539  0.72985724  0.64463675  1
  O  O272  1  0.76320769  0.24375846  0.11363202  1
  O  O273  1  0.76871697  0.20919379  0.61227542  1
  O  O274  1  0.75581978  0.78236495  0.13379256  1
  O  O275  1  0.77182912  0.74286771  0.62614653  1
  O  O276  1  0.24696157  0.24416576  0.37302093  1
  O  O277  1  0.24325763  0.26452778  0.88462967  1
  O  O278  1  0.26125585  0.73603084  0.37812406  1
  O  O279  1  0.24067384  0.75759095  0.86294907  1
  O  O280  1  0.75329979  0.19057915  0.32930397  1
  O  O281  1  0.74784029  0.23967696  0.88597794  1
  O  O282  1  0.71780046  0.75402547  0.37107689  1
  O  O283  1  0.74693486  0.75226392  0.86374818  1
  O  O284  1  0.00751648  0.12337283  0.00576599  1
  O  O285  1  0.00778037  0.15452199  0.51277192  1
  O  O286  1  0.00872724  0.70739387  0.07303917  1
  O  O287  1  0.01156663  0.64666988  0.48967176  1
  O  O288  1  0.50955612  0.12017320  0.00512040  1
  O  O289  1  0.49359136  0.12133121  0.51461500  1
  O  O290  1  0.52767789  0.62779575  0.02190208  1
  O  O291  1  0.49789662  0.60355027  0.50645237  1
  O  O292  1  0.48234903  0.38547512  0.50365071  1
  O  O293  1  0.49771807  0.36239731  0.99264670  1
  O  O294  1  0.50348108  0.88944135  0.49909619  1
  O  O295  1  0.50831903  0.89415011  1.00062838  1
  O  O296  1  0.99797915  0.36556223  0.47122369  1
  O  O297  1  0.99858883  0.36158355  0.98499154  1
  O  O298  1  0.96156566  0.86745483  0.54820155  1
  O  O299  1  1.00081548  0.88497410  0.98556750  1
  O  O300  1  0.48372285  0.50167268  0.38224313  1
  O  O301  1  0.52251623  0.48620617  0.88656515  1
  O  O302  1  0.47745008  1.00702404  0.39233929  1
  O  O303  1  0.49481020  1.00277185  0.88410133  1
  O  O304  1  1.02013088  0.49161226  0.36965818  1
  O  O305  1  0.98372286  0.48820160  0.88121029  1
  O  O306  1  0.96803869  0.98986826  0.39483977  1
  O  O307  1  1.00194828  1.00026771  0.88254328  1
  O  O308  1  -0.00718227  0.01652596  0.11901219  1
  O  O309  1  0.01960971  0.02027919  0.62783922  1
  O  O310  1  0.01118480  0.49613123  0.12328993  1
  O  O311  1  -0.02937972  0.53388380  0.60791691  1
  O  O312  1  0.48834186  0.01207880  0.10893753  1
  O  O313  1  0.48483762  0.00702811  0.61052203  1
  O  O314  1  0.53038996  0.49532433  0.12081365  1
  O  O315  1  0.50640882  0.50779435  0.62512355  1
  O  O316  1  0.24729601  0.36517148  0.23554675  1
  O  O317  1  0.22397303  0.36249826  0.73223484  1
  O  O318  1  0.24690263  0.88954958  0.24297330  1
  O  O319  1  0.23933223  0.88942015  0.75426984  1
  O  O320  1  0.74979841  0.34387508  0.25842006  1
  O  O321  1  0.74208914  0.38396055  0.75313549  1
  O  O322  1  0.72426096  0.88126472  0.24524773  1
  O  O323  1  0.74008055  0.89137494  0.74613873  1
  O  O324  1  0.25329125  0.11546320  0.25147270  1
  O  O325  1  0.26545657  0.12297051  0.74988920  1
  O  O326  1  0.25853684  0.63595804  0.25840263  1
  O  O327  1  0.28010261  0.61862256  0.78558160  1
  O  O328  1  0.74366079  0.15355543  0.26534223  1
  O  O329  1  0.73972959  0.11392012  0.76604180  1
  O  O330  1  0.77406562  0.63301152  0.24378682  1
  O  O331  1  0.75575126  0.60810975  0.75341659  1
  O  O332  1  0.36329905  0.11832561  0.36623018  1
  O  O333  1  0.38626659  0.11484666  0.85656535  1
  O  O334  1  0.36792634  0.60526979  0.37912598  1
  O  O335  1  0.39832745  0.60418067  0.90212364  1
  O  O336  1  0.87552502  0.10998186  0.39776697  1
  O  O337  1  0.86112007  0.12851462  0.87831533  1
  O  O338  1  0.87571010  0.59047650  0.39120536  1
  O  O339  1  0.88418978  0.61188411  0.91697302  1
  O  O340  1  0.13996587  0.38010995  0.12765288  1
  O  O341  1  0.09719759  0.38950692  0.63765824  1
  O  O342  1  0.13629217  0.86725412  0.11819811  1
  O  O343  1  0.11432203  0.90205594  0.65048502  1
  O  O344  1  0.64770909  0.33633049  0.13595540  1
  O  O345  1  0.61936916  0.37012562  0.64499043  1
  O  O346  1  0.63147385  0.88763270  0.12910397  1
  O  O347  1  0.61896054  0.87884890  0.64023388  1
  O  O348  1  0.12401666  0.25867420  0.25295155  1
  O  O349  1  0.11641284  0.25628458  0.76072573  1
  O  O350  1  0.11154129  0.77246194  0.27359170  1
  O  O351  1  0.11561387  0.77584433  0.75594683  1
  O  O352  1  0.59878548  0.23899865  0.26415170  1
  O  O353  1  0.63976813  0.25973591  0.76580036  1
  O  O354  1  0.60508335  0.75858045  0.25541679  1
  O  O355  1  0.62437311  0.76321018  0.75210961  1
  O  O356  1  0.37301334  0.23536208  0.23763713  1
  O  O357  1  0.36764849  0.24780260  0.76357299  1
  O  O358  1  0.38337482  0.75692603  0.23720630  1
  O  O359  1  0.40324307  0.75511484  0.75158777  1
  O  O360  1  0.89720901  0.24939553  0.24423790  1
  O  O361  1  0.88877906  0.25527275  0.75177308  1
  O  O362  1  0.87584366  0.73693017  0.27996673  1
  O  O363  1  0.88331787  0.74459869  0.76872359  1
  O  O364  1  0.38071009  0.48895847  0.50120659  1
  O  O365  1  0.39106780  0.47804280  1.01013625  1
  O  O366  1  0.36229587  1.00195123  0.48923973  1
  O  O367  1  0.38717789  1.01336524  0.98368323  1
  O  O368  1  0.84728803  0.46417554  0.47562438  1
  O  O369  1  0.86026885  0.48752896  1.01033255  1
  O  O370  1  0.86132501  1.00489206  0.49610355  1
  O  O371  1  0.89128056  0.99742074  0.99468647  1
  O  O372  1  0.11492959  0.01628558  -0.00729572  1
  O  O373  1  0.13600934  -0.00793520  0.51673156  1
  O  O374  1  0.12108824  0.48094184  0.00965460  1
  O  O375  1  0.11801208  0.48069919  0.49976024  1
  O  O376  1  0.61339488  0.01190521  -0.00884262  1
  O  O377  1  0.60613182  0.00919734  0.50005811  1
  O  O378  1  0.64977677  0.50048301  0.00775158  1
  O  O379  1  0.60512076  0.48401684  0.48581259  1
  O  O380  1  0.37803871  0.36203733  0.11332973  1
  O  O381  1  0.37496448  0.38141774  0.62153941  1
  O  O382  1  0.36426292  0.86903319  0.11929709  1
  O  O383  1  0.37955137  0.85612351  0.63135476  1
  O  O384  1  0.85956536  0.36054381  0.13825872  1
  O  O385  1  0.87253151  0.35860230  0.60067658  1
  O  O386  1  0.89791177  0.86414466  0.09914147  1
  O  O387  1  0.90987652  0.88256016  0.59853641  1
  O  O388  1  0.13866525  0.13937893  0.37100412  1
  O  O389  1  0.12065865  0.14545143  0.88782288  1
  O  O390  1  0.14118380  0.62127957  0.36021011  1
  O  O391  1  0.12054326  0.64443630  0.87046330  1
  O  O392  1  0.60585910  0.12762360  0.39370694  1
  O  O393  1  0.63365836  0.13375359  0.88067438  1
  O  O394  1  0.61857533  0.62503680  0.35397623  1
  O  O395  1  0.63014126  0.64480778  0.87279085  1
