# generated using pymatgen
data_V35Zn35O128
_symmetry_space_group_name_H-M   'P 1'
_cell_length_a   16.86591375
_cell_length_b   16.87425278
_cell_length_c   16.93655492
_cell_angle_alpha   90.06034757
_cell_angle_beta   90.06064927
_cell_angle_gamma   90.16901066
_symmetry_Int_Tables_number   1
_chemical_formula_structural   V35Zn35O128
_chemical_formula_sum   'V70 Zn70 O256'
_cell_volume   4820.11195347
_cell_formula_units_Z   2
loop_
 _symmetry_equiv_pos_site_id
 _symmetry_equiv_pos_as_xyz
  1  'x, y, z'
loop_
 _atom_site_type_symbol
 _atom_site_label
 _atom_site_symmetry_multiplicity
 _atom_site_fract_x
 _atom_site_fract_y
 _atom_site_fract_z
 _atom_site_occupancy
  V  V0  1  0.25668771  0.10561783  0.35059682  1
  V  V1  1  0.75964666  0.74799080  0.01065988  1
  V  V2  1  0.61722025  0.62911573  0.50706687  1
  V  V3  1  0.14361340  0.00139091  0.12870811  1
  V  V4  1  0.87309895  0.12498260  0.72571681  1
  V  V5  1  0.63809388  0.13729069  0.45471005  1
  V  V6  1  0.12851327  0.12443489  0.51291057  1
  V  V7  1  0.50923333  0.11841909  0.61840618  1
  V  V8  1  0.27110458  0.12780709  0.87785670  1
  V  V9  1  0.00728061  -0.00068849  0.00225879  1
  V  V10  1  0.25404389  0.63339945  0.38403682  1
  V  V11  1  0.48255778  0.87902795  0.37450454  1
  V  V12  1  0.75469061  0.37073316  0.12062851  1
  V  V13  1  0.12199111  0.34409907  0.26188181  1
  V  V14  1  0.27231386  0.00583935  0.75520376  1
  V  V15  1  0.25618553  0.37500842  0.62751565  1
  V  V16  1  0.86785897  0.12760019  0.24582142  1
  V  V17  1  0.48470601  0.87454797  0.86874288  1
  V  V18  1  0.36207494  0.85684023  -0.00123910  1
  V  V19  1  0.13413940  0.73540432  0.87702396  1
  V  V20  1  0.82094576  0.94087197  0.54300718  1
  V  V21  1  0.00018667  0.36263061  0.86352607  1
  V  V22  1  0.61954485  0.75412175  0.37126194  1
  V  V23  1  0.12181569  0.14391511  -0.01457559  1
  V  V24  1  0.76338599  0.75730911  0.51028316  1
  V  V25  1  0.87745320  0.86812714  0.01597683  1
  V  V26  1  0.24193126  0.49609281  0.75847947  1
  V  V27  1  0.36175931  0.75185245  0.61807229  1
  V  V28  1  0.00396804  0.88019006  0.37530134  1
  V  V29  1  -0.01331447  0.74498057  0.74599919  1
  V  V30  1  -0.00944071  0.62713667  0.61949209  1
  V  V31  1  0.62891821  0.36703739  0.74739743  1
  V  V32  1  0.22867812  0.50102952  0.24956087  1
  V  V33  1  0.76207245  0.62906165  0.37674150  1
  V  V34  1  0.01285197  -0.00128413  0.51202528  1
  V  V35  1  0.87318777  0.00074115  0.36462362  1
  V  V36  1  0.36660878  0.61860256  0.74765356  1
  V  V37  1  0.63178065  0.88949040  0.73510217  1
  V  V38  1  0.38499407  0.49891850  0.88843697  1
  V  V39  1  0.88370834  0.64113378  0.23380058  1
  V  V40  1  0.61770228  0.62594872  0.00325371  1
  V  V41  1  0.74878513  0.50148021  0.74221323  1
  V  V42  1  0.76569025  0.50885138  0.24256857  1
  V  V43  1  0.50396219  -0.01366945  0.01113417  1
  V  V44  1  0.13463463  0.75850272  0.38555593  1
  V  V45  1  0.86668460  0.35622471  -0.00555429  1
  V  V46  1  0.00062814  0.87310755  0.87420707  1
  V  V47  1  0.49557767  0.24735808  0.76089097  1
  V  V48  1  0.12433070  0.88726745  0.74406698  1
  V  V49  1  0.84878003  0.27624420  0.61310745  1
  V  V50  1  0.37507784  0.24126790  0.62643290  1
  V  V51  1  0.87236072  0.50348975  0.88208843  1
  V  V52  1  0.49176444  0.50015952  0.50881082  1
  V  V53  1  0.01008389  0.75400130  0.24282485  1
  V  V54  1  0.63742391  0.88067862  0.24402148  1
  V  V55  1  0.86041452  0.00506625  0.87447146  1
  V  V56  1  0.25046416  0.25144306  0.48957052  1
  V  V57  1  0.24823894  0.84579055  0.12809039  1
  V  V58  1  0.12383167  0.49873120  0.61856275  1
  V  V59  1  0.50397110  0.37053258  0.37467798  1
  V  V60  1  0.00773395  0.39061712  0.39831914  1
  V  V61  1  0.00836078  0.14602773  0.13445484  1
  V  V62  1  0.61640024  0.51082024  0.13010738  1
  V  V63  1  0.49614063  0.16333866  0.17535156  1
  V  V64  1  0.62666765  0.75428978  0.86859410  1
  V  V65  1  0.37374716  0.50112100  0.36993732  1
  V  V66  1  0.07281271  0.55510476  0.05257072  1
  V  V67  1  0.50120977  0.73593330  0.73955524  1
  V  V68  1  0.27001253  0.26765734  -0.00266589  1
  V  V69  1  0.75373608  0.62530366  0.87020640  1
  Zn  Zn70  1  0.24944363  0.88279562  0.61760918  1
  Zn  Zn71  1  0.50792577  -0.00339593  0.49848322  1
  Zn  Zn72  1  0.62338870  0.49497723  0.62188525  1
  Zn  Zn73  1  0.60203379  0.34190663  0.24031396  1
  Zn  Zn74  1  0.13079723  0.63518542  0.51030440  1
  Zn  Zn75  1  0.49799208  0.36725052  0.89035602  1
  Zn  Zn76  1  0.19981959  0.18871401  0.17502794  1
  Zn  Zn77  1  0.19365637  0.17797248  0.68938779  1
  Zn  Zn78  1  0.17909163  0.67407750  0.19578449  1
  Zn  Zn79  1  0.18007077  0.69044446  0.69703054  1
  Zn  Zn80  1  0.68021383  0.05589945  0.17077094  1
  Zn  Zn81  1  0.68805689  0.18365798  0.69333015  1
  Zn  Zn82  1  0.68778590  0.69132741  0.18820145  1
  Zn  Zn83  1  0.69269010  0.68951672  0.68554681  1
  Zn  Zn84  1  0.31387393  0.32498642  0.31490224  1
  Zn  Zn85  1  0.31411838  0.31649630  0.81648635  1
  Zn  Zn86  1  0.32146455  0.93380396  0.29172122  1
  Zn  Zn87  1  0.30767790  0.80937255  0.80309580  1
  Zn  Zn88  1  0.84433649  0.32768948  0.28950701  1
  Zn  Zn89  1  0.84633482  0.33545252  0.77802257  1
  Zn  Zn90  1  0.81599267  0.81383958  0.31693712  1
  Zn  Zn91  1  0.80878726  0.82249964  0.81136062  1
  Zn  Zn92  1  0.18861786  0.43528511  0.43945199  1
  Zn  Zn93  1  0.17049782  0.44251724  0.93742386  1
  Zn  Zn94  1  0.19035031  0.94468706  0.43073464  1
  Zn  Zn95  1  0.18935179  0.94275753  0.93546687  1
  Zn  Zn96  1  0.67981721  0.44610626  0.42452072  1
  Zn  Zn97  1  0.65659621  0.41726276  0.95397506  1
  Zn  Zn98  1  0.67962539  0.94742128  0.43423843  1
  Zn  Zn99  1  0.70753337  0.97043712  0.98463334  1
  Zn  Zn100  1  0.35918620  0.03330402  0.11892968  1
  Zn  Zn101  1  0.30832373  0.06239007  0.56757439  1
  Zn  Zn102  1  0.26837980  0.52468222  0.04354623  1
  Zn  Zn103  1  0.31291449  0.56576690  0.56630493  1
  Zn  Zn104  1  0.83436771  0.06557294  0.06370115  1
  Zn  Zn105  1  0.78380685  0.12365736  0.55961968  1
  Zn  Zn106  1  0.87489747  0.52324797  0.09249153  1
  Zn  Zn107  1  0.80839601  0.56115144  0.55731767  1
  Zn  Zn108  1  0.43363746  0.44720816  0.19432057  1
  Zn  Zn109  1  0.43771022  0.43055560  0.68889549  1
  Zn  Zn110  1  0.45272339  0.89801590  0.18141059  1
  Zn  Zn111  1  0.44136773  0.93099086  0.68305777  1
  Zn  Zn112  1  1.01734385  0.44712806  0.19608038  1
  Zn  Zn113  1  0.93449542  0.44631300  0.68106020  1
  Zn  Zn114  1  0.95302886  0.93726441  0.18992642  1
  Zn  Zn115  1  0.93594685  0.94338940  0.69509570  1
  Zn  Zn116  1  0.07582070  0.07117807  0.31336905  1
  Zn  Zn117  1  0.04932596  0.06807691  0.81033862  1
  Zn  Zn118  1  0.05737009  0.56985764  0.32897154  1
  Zn  Zn119  1  0.05336087  0.55911207  0.80927688  1
  Zn  Zn120  1  0.54733808  0.05382762  0.30541435  1
  Zn  Zn121  1  0.54276088  0.05661316  0.80370101  1
  Zn  Zn122  1  0.57090929  0.56056657  0.32020573  1
  Zn  Zn123  1  0.56565660  0.55942480  0.81432433  1
  Zn  Zn124  1  0.43240279  0.18461343  0.43558576  1
  Zn  Zn125  1  0.42653173  0.16057263  0.99228719  1
  Zn  Zn126  1  0.43422585  0.69117528  0.43826298  1
  Zn  Zn127  1  0.43344297  0.68462839  0.92807951  1
  Zn  Zn128  1  0.93483505  0.18019853  0.44347902  1
  Zn  Zn129  1  0.93755097  0.18725434  0.93624313  1
  Zn  Zn130  1  0.94443788  0.69417110  0.44004799  1
  Zn  Zn131  1  0.94597239  0.68293571  0.93921331  1
  Zn  Zn132  1  0.06443664  0.33637102  0.05689611  1
  Zn  Zn133  1  0.07301819  0.31277405  0.56506006  1
  Zn  Zn134  1  0.07454738  0.81104300  0.05815677  1
  Zn  Zn135  1  0.06072700  0.81448986  0.56589794  1
  Zn  Zn136  1  0.54752801  0.31557397  0.07575296  1
  Zn  Zn137  1  0.56840112  0.30926016  0.56000685  1
  Zn  Zn138  1  0.58452146  0.83714655  0.04276038  1
  Zn  Zn139  1  0.55674508  0.81332227  0.55765281  1
  O  O140  1  0.11851819  0.12045683  0.11222948  1
  O  O141  1  0.12720309  0.12047388  0.61273482  1
  O  O142  1  0.11712050  0.61169880  0.12330489  1
  O  O143  1  0.12172861  0.61648403  0.62821861  1
  O  O144  1  0.58085503  0.11416767  0.15436573  1
  O  O145  1  0.60933051  0.12672879  0.62441419  1
  O  O146  1  0.62725247  0.62652013  0.11293157  1
  O  O147  1  0.62854512  0.62541842  0.60837516  1
  O  O148  1  0.38154264  0.39552143  0.38048812  1
  O  O149  1  0.38298963  0.39335041  0.87048879  1
  O  O150  1  0.38551867  0.86054518  0.36043141  1
  O  O151  1  0.38010018  0.86758826  0.87392111  1
  O  O152  1  0.90205524  0.33922458  0.38986276  1
  O  O153  1  0.85975023  0.38291410  0.88324096  1
  O  O154  1  0.89522565  0.88335905  0.37271691  1
  O  O155  1  0.88717084  0.88299308  0.87736076  1
  O  O156  1  0.25072301  -0.00066826  0.35060473  1
  O  O157  1  0.24326829  0.01705209  0.86585548  1
  O  O158  1  0.25830066  0.50708761  0.37702852  1
  O  O159  1  0.26108384  0.49271113  0.85827245  1
  O  O160  1  0.77576701  -0.01160185  0.37860163  1
  O  O161  1  0.76272893  -0.01398890  0.88537297  1
  O  O162  1  0.74038070  0.52340340  0.35613684  1
  O  O163  1  0.75216079  0.51225973  0.86546795  1
  O  O164  1  0.25515365  0.50333058  0.15295910  1
  O  O165  1  0.24508286  0.49510988  0.63252406  1
  O  O166  1  0.24276574  1.01553380  0.11651996  1
  O  O167  1  0.25237506  1.00298112  0.65184532  1
  O  O168  1  0.75634063  0.51128275  0.13668159  1
  O  O169  1  0.74663421  0.51005491  0.63942395  1
  O  O170  1  0.72946294  1.03948536  0.07094898  1
  O  O171  1  0.75887678  1.00842958  0.58017326  1
  O  O172  1  0.01263655  0.36874494  0.27543202  1
  O  O173  1  -0.03279302  0.37348332  0.76426460  1
  O  O174  1  0.00631152  0.86424594  0.26372153  1
  O  O175  1  0.00562601  0.86873483  0.75348148  1
  O  O176  1  0.49889170  0.39038773  0.27012022  1
  O  O177  1  0.50676145  0.36079789  0.74885041  1
  O  O178  1  0.52056925  0.86644951  0.27042675  1
  O  O179  1  0.50169087  0.86026086  0.75693332  1
  O  O180  1  0.47163211  0.13682116  0.26820058  1
  O  O181  1  0.50218718  0.13948938  0.73676183  1
  O  O182  1  0.49714920  0.62908894  0.24378765  1
  O  O183  1  0.49324339  0.63124425  0.74925803  1
  O  O184  1  1.00677613  0.12785038  0.23733998  1
  O  O185  1  0.96835039  0.13073765  0.76714758  1
  O  O186  1  0.98997207  0.64002654  0.26130554  1
  O  O187  1  0.99709409  0.63886065  0.74022528  1
  O  O188  1  0.37266867  0.26150730  -0.00693977  1
  O  O189  1  0.35804266  0.24700344  0.51559280  1
  O  O190  1  0.36467911  0.75602362  -0.01693161  1
  O  O191  1  0.37585953  0.74414005  0.51967692  1
  O  O192  1  0.85951319  0.25664844  -0.00666888  1
  O  O193  1  0.90486180  0.23719439  0.53842465  1
  O  O194  1  0.87183643  0.75693484  -0.00589065  1
  O  O195  1  0.86232574  0.75203282  0.49659452  1
  O  O196  1  0.13593114  0.23631884  0.50444168  1
  O  O197  1  0.11626437  0.24398146  0.99814596  1
  O  O198  1  0.12922284  0.75738515  0.49032355  1
  O  O199  1  0.11803823  0.74961019  0.97643979  1
  O  O200  1  0.60874286  0.22876358  0.49351550  1
  O  O201  1  0.63548930  0.19872404  1.02237460  1
  O  O202  1  0.63269303  0.74164867  0.49492284  1
  O  O203  1  0.64054668  0.74858986  0.98936033  1
  O  O204  1  0.53162178  0.26668199  0.17059531  1
  O  O205  1  0.48588053  0.24205819  0.62225365  1
  O  O206  1  0.49332054  0.75435067  0.12832563  1
  O  O207  1  0.48811973  0.75138868  0.63722801  1
  O  O208  1  1.00724758  0.24314277  0.12031639  1
  O  O209  1  1.04435457  0.25220730  0.66755535  1
  O  O210  1  1.01687715  0.76032494  0.14427132  1
  O  O211  1  1.00262966  0.74114591  0.63500867  1
  O  O212  1  -0.03632264  0.27799044  0.38330429  1
  O  O213  1  -0.00863350  0.26167434  0.87098455  1
  O  O214  1  0.01244556  0.76400913  0.37722792  1
  O  O215  1  0.00204346  0.75552681  0.86228638  1
  O  O216  1  0.48173617  0.27341731  0.38263883  1
  O  O217  1  0.49369954  0.24463781  0.85931332  1
  O  O218  1  0.51480933  0.75619379  0.38714012  1
  O  O219  1  0.50549530  0.75096822  0.85948642  1
  O  O220  1  0.24174938  0.13617620  0.50613918  1
  O  O221  1  0.23391202  0.13844073  0.98305894  1
  O  O222  1  0.24857864  0.62240450  0.48858156  1
  O  O223  1  0.17311839  0.54930994  0.98995106  1
  O  O224  1  0.74124408  0.14037915  0.45742953  1
  O  O225  1  0.69447630  0.21783221  0.98386097  1
  O  O226  1  0.74344495  0.63309018  0.49054012  1
  O  O227  1  0.74450713  0.64231498  0.98601611  1
  O  O228  1  0.24680968  0.36515685  -0.01911708  1
  O  O229  1  0.23957604  0.35820109  0.51251683  1
  O  O230  1  0.25891624  0.87782924  0.00064375  1
  O  O231  1  0.27652982  0.91197557  0.50492486  1
  O  O232  1  0.74778760  0.37721484  0.01199062  1
  O  O233  1  0.77870670  0.41377315  0.48239742  1
  O  O234  1  0.76930866  0.86189486  -0.00136885  1
  O  O235  1  0.75291871  0.86904063  0.49613123  1
  O  O236  1  0.12479946  0.50438691  0.25620495  1
  O  O237  1  0.13894721  0.50578661  0.74525810  1
  O  O238  1  0.12464433  1.00623238  0.22634072  1
  O  O239  1  0.10981510  0.98764918  0.75281693  1
  O  O240  1  0.64273349  0.52648111  0.23530463  1
  O  O241  1  0.63141030  0.49469644  0.74435820  1
  O  O242  1  0.62938437  0.98633812  0.25109824  1
  O  O243  1  0.61692389  0.98822157  0.74938711  1
  O  O244  1  0.38719845  -0.01611646  0.21693323  1
  O  O245  1  0.37038946  -0.00524571  0.75779511  1
  O  O246  1  0.36321414  0.50407120  0.26655788  1
  O  O247  1  0.37076710  0.50882478  0.74678435  1
  O  O248  1  0.88878474  0.00154672  0.25978147  1
  O  O249  1  0.87490883  0.00921049  0.76797272  1
  O  O250  1  0.86871429  0.52818791  0.25105983  1
  O  O251  1  0.85372675  0.49295529  0.75934381  1
  O  O252  1  0.11501922  0.37266412  0.37751306  1
  O  O253  1  0.09795803  0.38591434  0.86740364  1
  O  O254  1  0.12429048  0.86564413  0.37527358  1
  O  O255  1  0.11258349  0.87328789  0.86800065  1
  O  O256  1  0.61106630  0.37841925  0.36665675  1
  O  O257  1  0.61781322  0.38307914  0.85027036  1
  O  O258  1  0.62905428  0.86239513  0.37198643  1
  O  O259  1  0.61397391  0.85756229  0.85610196  1
  O  O260  1  0.41530617  0.13695977  0.10992715  1
  O  O261  1  0.37592239  0.13757144  0.62878413  1
  O  O262  1  0.44309776  0.70315754  0.11160637  1
  O  O263  1  0.37145423  0.63550146  0.63897642  1
  O  O264  1  0.89998896  0.11813304  0.13547046  1
  O  O265  1  0.87806825  0.10550406  0.62761767  1
  O  O266  1  0.87945267  0.63775441  0.13581785  1
  O  O267  1  0.89149243  0.61050332  0.61747666  1
  O  O268  1  0.24776994  0.24979876  0.09473935  1
  O  O269  1  0.25872324  0.25591656  0.63105677  1
  O  O270  1  0.22868610  0.74806194  0.12287159  1
  O  O271  1  0.25723330  0.75189563  0.63314497  1
  O  O272  1  0.74694367  0.27664974  0.13840007  1
  O  O273  1  0.75212871  0.23544366  0.60541372  1
  O  O274  1  0.75209847  0.74508476  0.10838379  1
  O  O275  1  0.75192279  0.74690757  0.60890334  1
  O  O276  1  0.25891133  0.25457903  0.38964911  1
  O  O277  1  0.25723247  0.23746155  0.87773382  1
  O  O278  1  0.24066078  0.73927257  0.37247862  1
  O  O279  1  0.23356575  0.74908889  0.86238393  1
  O  O280  1  0.72820047  0.26933428  0.33657178  1
  O  O281  1  0.67222701  0.16006195  0.86551337  1
  O  O282  1  0.74319051  0.74324214  0.38563941  1
  O  O283  1  0.74352041  0.74345194  0.86995745  1
  O  O284  1  0.00616403  0.11974069  0.01037987  1
  O  O285  1  0.01916199  0.11034514  0.48786425  1
  O  O286  1  0.01258923  0.61009225  -0.00744359  1
  O  O287  1  0.00775850  0.63569041  0.51646523  1
  O  O288  1  0.51238888  0.08589746  -0.01034063  1
  O  O289  1  0.48930739  0.11911394  0.51214095  1
  O  O290  1  0.51942327  0.63730289  -0.00757849  1
  O  O291  1  0.51169000  0.61907629  0.49535847  1
  O  O292  1  0.50960673  0.39548670  0.48915186  1
  O  O293  1  0.55284399  0.37222585  0.98828210  1
  O  O294  1  0.50247303  0.87948136  0.48385554  1
  O  O295  1  0.48350385  0.85715465  0.97945948  1
  O  O296  1  1.01275505  0.38059525  0.49951286  1
  O  O297  1  0.97218374  0.36745737  0.98198248  1
  O  O298  1  1.01273457  0.88772111  0.48848921  1
  O  O299  1  0.99474615  0.87595362  0.99330046  1
  O  O300  1  0.48830105  0.50513079  0.38199524  1
  O  O301  1  0.48853976  0.50298979  0.87858355  1
  O  O302  1  0.48836094  0.98411986  0.37559933  1
  O  O303  1  0.49753445  0.97595540  0.87254871  1
  O  O304  1  0.99451070  0.49032258  0.38223794  1
  O  O305  1  0.97519407  0.49400368  0.86429969  1
  O  O306  1  1.00805865  0.98850385  0.37508558  1
  O  O307  1  0.99499596  0.99175561  0.88809267  1
  O  O308  1  0.01542630  -0.00434693  0.11119801  1
  O  O309  1  0.00182016  -0.00628629  0.60944701  1
  O  O310  1  -0.01182823  0.51295752  0.11580855  1
  O  O311  1  0.01517555  0.51348806  0.63629082  1
  O  O312  1  0.51045564  -0.02793740  0.11072479  1
  O  O313  1  0.48810323  0.01476798  0.62262188  1
  O  O314  1  0.51676809  0.50123500  0.13496784  1
  O  O315  1  0.49681184  0.49799327  0.61106766  1
  O  O316  1  0.22818086  0.39031779  0.27095876  1
  O  O317  1  0.25501564  0.38791404  0.74181511  1
  O  O318  1  0.25303830  0.86517330  0.22493438  1
  O  O319  1  0.23560788  0.89347419  0.76074763  1
  O  O320  1  0.77156105  0.40115184  0.24175444  1
  O  O321  1  0.73843629  0.38476581  0.75014318  1
  O  O322  1  0.73793377  0.86586286  0.25510530  1
  O  O323  1  0.73111024  0.87095115  0.74561940  1
  O  O324  1  0.26062379  0.13365021  0.25410557  1
  O  O325  1  0.25399706  0.11843229  0.76490028  1
  O  O326  1  0.24052546  0.61103061  0.27239335  1
  O  O327  1  0.25976671  0.61229173  0.74702426  1
  O  O328  1  0.77140955  0.10649903  0.23275638  1
  O  O329  1  0.77192920  0.13275518  0.75071370  1
  O  O330  1  0.76695851  0.63691102  0.25886835  1
  O  O331  1  0.74125918  0.61535364  0.75898113  1
  O  O332  1  0.34926971  0.12215834  0.38955094  1
  O  O333  1  0.36804012  0.11961929  0.89318793  1
  O  O334  1  0.36233748  0.61972592  0.38086176  1
  O  O335  1  0.37633057  0.61180007  0.85800506  1
  O  O336  1  0.88889891  0.11018214  0.36057352  1
  O  O337  1  0.86804814  0.10277308  0.90286773  1
  O  O338  1  0.86353403  0.63121906  0.38118169  1
  O  O339  1  0.86661400  0.61492897  0.87860771  1
  O  O340  1  0.11109721  0.36644612  0.16189375  1
  O  O341  1  0.13503517  0.39231633  0.62898908  1
  O  O342  1  0.14510929  0.89060843  0.10890113  1
  O  O343  1  0.13116834  0.87082817  0.64045378  1
  O  O344  1  0.64232700  0.39982675  0.13924194  1
  O  O345  1  0.61861740  0.37795945  0.63735382  1
  O  O346  1  0.62232546  0.85428081  0.14773828  1
  O  O347  1  0.61208925  0.87228851  0.63699186  1
  O  O348  1  0.13874190  0.24638887  0.26059987  1
  O  O349  1  0.09883236  0.24954740  0.72119505  1
  O  O350  1  0.11347053  0.74028898  0.26923495  1
  O  O351  1  0.11279418  0.76527989  0.75850118  1
  O  O352  1  0.68062498  0.25428074  0.28056470  1
  O  O353  1  0.61439878  0.25870202  0.74400130  1
  O  O354  1  0.62765447  0.74560561  0.26912947  1
  O  O355  1  0.61185139  0.74360529  0.74996355  1
  O  O356  1  0.36657315  0.29452594  0.21203962  1
  O  O357  1  0.38623078  0.25780884  0.73800199  1
  O  O358  1  0.44850715  0.68010471  0.26725819  1
  O  O359  1  0.38249556  0.73522076  0.74884116  1
  O  O360  1  0.87177343  0.22750179  0.25024296  1
  O  O361  1  0.87432708  0.24349560  0.71168419  1
  O  O362  1  0.89154251  0.74802490  0.25687535  1
  O  O363  1  0.88828473  0.76021283  0.75069671  1
  O  O364  1  0.38730661  0.51006335  0.49404414  1
  O  O365  1  0.36535939  0.51374601  0.98694102  1
  O  O366  1  0.33665038  0.97038628  0.50307671  1
  O  O367  1  0.39303336  0.97125335  1.00959107  1
  O  O368  1  0.83393206  0.46975140  0.48405887  1
  O  O369  1  0.86215907  0.49380693  0.98239580  1
  O  O370  1  0.89622630  0.99794089  0.48373660  1
  O  O371  1  0.88603751  0.98187951  0.99649033  1
  O  O372  1  0.12031931  0.01255511  0.00202311  1
  O  O373  1  0.12243997  0.00665832  0.50168993  1
  O  O374  1  0.09399151  0.44737427  0.02917764  1
  O  O375  1  0.13253457  0.50510604  0.51724297  1
  O  O376  1  0.60124359  -0.05795494  -0.00929858  1
  O  O377  1  0.62038706  0.03106588  0.48121623  1
  O  O378  1  0.63386442  0.51953811  0.01508019  1
  O  O379  1  0.61826720  0.51491175  0.49788648  1
  O  O380  1  0.37006281  0.35128055  0.15842126  1
  O  O381  1  0.36370046  0.36653440  0.62421031  1
  O  O382  1  0.36047991  0.85211665  0.10894991  1
  O  O383  1  0.36703722  0.85670893  0.63946454  1
  O  O384  1  0.86355629  0.38627667  0.10231862  1
  O  O385  1  0.86228176  0.37661464  0.62217469  1
  O  O386  1  0.88631759  0.87502631  0.11380861  1
  O  O387  1  0.86800638  0.89364079  0.61683336  1
  O  O388  1  0.15265195  0.11802167  0.38568103  1
  O  O389  1  0.11221387  0.12890963  0.88577921  1
  O  O390  1  0.13096054  0.63776049  0.38772210  1
  O  O391  1  0.11867945  0.63702268  0.85926849  1
  O  O392  1  0.60998832  0.13658331  0.35819370  1
  O  O393  1  0.62534813  0.10664263  0.88694643  1
  O  O394  1  0.63252558  0.63731543  0.38508599  1
  O  O395  1  0.63227227  0.63218545  0.88336366  1
