# generated using pymatgen
data_V35Zn35O128
_symmetry_space_group_name_H-M   'P 1'
_cell_length_a   16.82877900
_cell_length_b   16.82886003
_cell_length_c   16.84236929
_cell_angle_alpha   90.01435495
_cell_angle_beta   89.97203973
_cell_angle_gamma   90.06873944
_symmetry_Int_Tables_number   1
_chemical_formula_structural   V35Zn35O128
_chemical_formula_sum   'V70 Zn70 O256'
_cell_volume   4769.90921305
_cell_formula_units_Z   2
loop_
 _symmetry_equiv_pos_site_id
 _symmetry_equiv_pos_as_xyz
  1  'x, y, z'
loop_
 _atom_site_type_symbol
 _atom_site_label
 _atom_site_symmetry_multiplicity
 _atom_site_fract_x
 _atom_site_fract_y
 _atom_site_fract_z
 _atom_site_occupancy
  V  V0  1  0.87223999  0.26722471  0.62399174  1
  V  V1  1  0.11801219  0.13173439  -0.01074218  1
  V  V2  1  -0.00312342  0.12757762  0.62441890  1
  V  V3  1  -0.00957368  0.51266481  -0.02149968  1
  V  V4  1  0.37506436  0.75708282  0.11223041  1
  V  V5  1  0.25549077  0.13969406  0.87029645  1
  V  V6  1  0.75379119  0.62203801  0.38227232  1
  V  V7  1  0.12215232  0.13502292  0.49023398  1
  V  V8  1  0.87461215  0.85938835  0.51033370  1
  V  V9  1  0.61704558  0.62200227  0.50896501  1
  V  V10  1  -0.00129001  0.25396241  0.76359235  1
  V  V11  1  0.00025150  0.48291987  0.49830788  1
  V  V12  1  0.37945915  0.48351706  0.38036386  1
  V  V13  1  0.15345068  0.62737966  -0.00274616  1
  V  V14  1  0.26480365  0.11630741  0.36987376  1
  V  V15  1  0.03432726  0.86092974  0.86373694  1
  V  V16  1  0.62843270  0.49953971  0.11453307  1
  V  V17  1  0.63113007  0.74513779  0.37835051  1
  V  V18  1  0.77319008  0.49691561  0.76832330  1
  V  V19  1  0.62707964  0.47144613  0.63059553  1
  V  V20  1  0.26118041  0.01196624  0.74152999  1
  V  V21  1  0.49768098  0.47716708  0.50183658  1
  V  V22  1  0.47792660  0.25297653  0.24539981  1
  V  V23  1  0.73920977  -0.00213548  0.75082044  1
  V  V24  1  0.48863026  0.39933298  0.88186225  1
  V  V25  1  0.89139741  0.63381443  0.24432532  1
  V  V26  1  0.62112899  0.11323696  0.00781782  1
  V  V27  1  0.51027947  0.61888790  0.11494909  1
  V  V28  1  0.88133722  0.24041319  0.13265571  1
  V  V29  1  0.38107740  0.62510825  0.25301764  1
  V  V30  1  0.12012522  0.37459336  0.76261849  1
  V  V31  1  0.88811513  0.37079313  -0.01383714  1
  V  V32  1  0.12668606  0.75612514  0.35680289  1
  V  V33  1  0.25328015  0.62549218  0.37275265  1
  V  V34  1  0.62286947  0.00418697  0.61093803  1
  V  V35  1  0.51182302  0.74808409  0.25411443  1
  V  V36  1  0.25330073  0.25768301  0.49413933  1
  V  V37  1  0.75351943  0.37112653  0.11839677  1
  V  V38  1  0.87297648  0.77412892  0.10007805  1
  V  V39  1  0.62366678  0.36878424  0.25653298  1
  V  V40  1  0.10346263  0.50232158  0.12551584  1
  V  V41  1  0.38450963  0.89171754  0.49654364  1
  V  V42  1  0.25953154  0.50508623  0.76515367  1
  V  V43  1  0.72973826  0.63536440  0.88794001  1
  V  V44  1  0.75507195  0.26298328  0.50179274  1
  V  V45  1  0.38869723  0.74321279  0.62711115  1
  V  V46  1  0.11141586  0.36738578  0.25724964  1
  V  V47  1  0.00076341  0.87024357  0.36845606  1
  V  V48  1  0.36871501  -0.01981073  0.88770958  1
  V  V49  1  0.87493171  0.00307669  0.36722982  1
  V  V50  1  0.25034239  0.49343121  0.23936312  1
  V  V51  1  0.75516102  0.49998934  0.25351636  1
  V  V52  1  0.87144541  0.11231028  0.75327188  1
  V  V53  1  0.25857034  0.26101135  0.01768937  1
  V  V54  1  0.74134766  0.24308696  -0.01295476  1
  V  V55  1  0.12383760  0.00039378  0.62927662  1
  V  V56  1  0.75450284  0.12510241  0.36781096  1
  V  V57  1  0.74587483  0.86362159  0.62645978  1
  V  V58  1  0.52410516  0.25476294  0.76308554  1
  V  V59  1  0.24883997  0.88009209  0.62441540  1
  V  V60  1  0.50757724  0.88595050  0.37597031  1
  V  V61  1  0.37175309  0.24699000  0.64349070  1
  V  V62  1  0.25478403  0.75298236  0.49751894  1
  V  V63  1  0.00823990  0.12523153  0.14235526  1
  V  V64  1  0.38849160  0.62593055  0.75381584  1
  V  V65  1  0.11938111  0.62961397  0.50269209  1
  V  V66  1  0.12628379  0.50933642  0.62620747  1
  V  V67  1  -0.00538428  0.00143354  0.50485020  1
  V  V68  1  0.25359255  0.37820483  0.62358429  1
  V  V69  1  0.49075037  0.11649661  0.12741548  1
  Zn  Zn70  1  0.87596370  -0.03637286  0.88873034  1
  Zn  Zn71  1  -0.00081082  -0.00731249  0.00240604  1
  Zn  Zn72  1  0.88763906  0.49282042  0.37582750  1
  Zn  Zn73  1  0.49282930  0.11907201  0.62269347  1
  Zn  Zn74  1  0.61416945  0.25193261  0.37903299  1
  Zn  Zn75  1  0.62408783  0.12911551  0.49752224  1
  Zn  Zn76  1  0.18848242  0.18499441  0.18902206  1
  Zn  Zn77  1  0.18340350  0.19146923  0.68698964  1
  Zn  Zn78  1  0.16615465  0.71847696  0.14835793  1
  Zn  Zn79  1  0.19875873  0.69285303  0.69217681  1
  Zn  Zn80  1  0.68944918  0.18299017  0.18319816  1
  Zn  Zn81  1  0.68923940  0.18852656  0.68823204  1
  Zn  Zn82  1  0.69740512  0.68295704  0.17813748  1
  Zn  Zn83  1  0.71341341  0.66307316  0.67912754  1
  Zn  Zn84  1  0.29759025  0.30946719  0.30988164  1
  Zn  Zn85  1  0.31330384  0.32546622  0.82266574  1
  Zn  Zn86  1  0.32484215  0.81107130  0.31252929  1
  Zn  Zn87  1  0.27880738  0.80994667  0.81642581  1
  Zn  Zn88  1  0.80975987  0.30780690  0.30826718  1
  Zn  Zn89  1  0.80720232  0.31039398  0.80684069  1
  Zn  Zn90  1  0.78992380  0.79303575  0.26685992  1
  Zn  Zn91  1  0.80780497  0.78416604  0.85560648  1
  Zn  Zn92  1  0.18364640  0.43833916  0.43485836  1
  Zn  Zn93  1  0.18683560  0.43932685  0.94516595  1
  Zn  Zn94  1  0.18443416  0.94115732  0.43858376  1
  Zn  Zn95  1  0.17003865  0.96250810  0.92270907  1
  Zn  Zn96  1  0.68852845  0.43706053  0.43983650  1
  Zn  Zn97  1  0.68631448  0.44005246  0.92348831  1
  Zn  Zn98  1  0.69324884  0.93443113  0.43833171  1
  Zn  Zn99  1  0.65382229  0.98955493  0.90778273  1
  Zn  Zn100  1  0.30980800  0.06856170  0.05517595  1
  Zn  Zn101  1  0.31212247  0.07148380  0.55495559  1
  Zn  Zn102  1  0.32473685  0.56187452  0.06505510  1
  Zn  Zn103  1  0.31512278  0.56145939  0.56269268  1
  Zn  Zn104  1  0.81332335  0.05540623  0.05800157  1
  Zn  Zn105  1  0.80702143  0.06669738  0.56165579  1
  Zn  Zn106  1  0.81894277  0.56546945  0.05796097  1
  Zn  Zn107  1  0.80485226  0.53323265  0.55908663  1
  Zn  Zn108  1  0.44235389  0.43759289  0.19138510  1
  Zn  Zn109  1  0.44406731  0.43209096  0.69367796  1
  Zn  Zn110  1  0.44342757  0.93434149  0.18957609  1
  Zn  Zn111  1  0.43857168  0.93459978  0.68473079  1
  Zn  Zn112  1  0.93395400  0.43459554  0.18294650  1
  Zn  Zn113  1  0.94482231  0.44671911  0.68895418  1
  Zn  Zn114  1  0.94748791  0.93971063  0.18364288  1
  Zn  Zn115  1  0.91491061  0.89102238  0.72516715  1
  Zn  Zn116  1  0.07501739  0.05469359  0.30983763  1
  Zn  Zn117  1  0.05897411  0.05937944  0.81225409  1
  Zn  Zn118  1  0.06770928  0.56038133  0.31734624  1
  Zn  Zn119  1  0.07117622  0.57776784  0.81245442  1
  Zn  Zn120  1  0.54738751  0.08561310  0.32216168  1
  Zn  Zn121  1  0.53584317  0.07934050  0.81712438  1
  Zn  Zn122  1  0.56558595  0.55636756  0.31463797  1
  Zn  Zn123  1  0.56654589  0.56082924  0.80760488  1
  Zn  Zn124  1  0.43615524  0.19861884  0.44076196  1
  Zn  Zn125  1  0.43573774  0.18735796  0.94123818  1
  Zn  Zn126  1  0.44313154  0.68379411  0.44117220  1
  Zn  Zn127  1  0.43957607  0.67647170  0.93593149  1
  Zn  Zn128  1  0.93269182  0.19398806  0.43459707  1
  Zn  Zn129  1  0.92239074  0.17447647  0.94397482  1
  Zn  Zn130  1  0.93757090  0.68546644  0.42989829  1
  Zn  Zn131  1  0.92316089  0.69144080  0.92181744  1
  Zn  Zn132  1  0.07044427  0.31189257  0.06450985  1
  Zn  Zn133  1  0.06864408  0.31294601  0.57442001  1
  Zn  Zn134  1  0.03558295  0.78030392  0.01779465  1
  Zn  Zn135  1  0.06391745  0.81058227  0.56491697  1
  Zn  Zn136  1  0.55795465  0.30610707  0.06122070  1
  Zn  Zn137  1  0.55060177  0.28982069  0.55724716  1
  Zn  Zn138  1  0.55644554  0.82050583  0.06737413  1
  Zn  Zn139  1  0.56886748  0.81288185  0.55932169  1
  O  O140  1  0.11088019  0.13267011  0.11761567  1
  O  O141  1  0.11417413  0.12252459  0.61729800  1
  O  O142  1  0.13690241  0.60468050  0.11586812  1
  O  O143  1  0.14339941  0.62051152  0.61464149  1
  O  O144  1  0.61382397  0.13299866  0.11748085  1
  O  O145  1  0.63143148  0.11084930  0.62177060  1
  O  O146  1  0.62208090  0.61303312  0.12810606  1
  O  O147  1  0.62824822  0.61555141  0.60989301  1
  O  O148  1  0.36613711  0.38603196  0.37404956  1
  O  O149  1  0.38766747  0.37626850  0.88586539  1
  O  O150  1  0.39135144  0.87191619  0.38826206  1
  O  O151  1  0.35109161  0.88016078  0.86650882  1
  O  O152  1  0.89879564  0.34915850  0.37710034  1
  O  O153  1  0.87639971  0.36535880  0.88809445  1
  O  O154  1  0.88754071  0.88659759  0.39430875  1
  O  O155  1  0.88151663  0.86323325  0.83657560  1
  O  O156  1  0.24931542  0.01657198  0.38675376  1
  O  O157  1  0.25605108  0.00898186  0.85895092  1
  O  O158  1  0.26095698  0.50872501  0.37265099  1
  O  O159  1  0.25190066  0.49647641  0.86415174  1
  O  O160  1  0.76528029  0.01323478  0.38860699  1
  O  O161  1  0.75404386  -0.01409171  0.85409909  1
  O  O162  1  0.75895226  0.50087668  0.36915565  1
  O  O163  1  0.76693605  0.50621692  0.87433150  1
  O  O164  1  0.25685446  0.50219247  0.13987222  1
  O  O165  1  0.24418487  0.49379871  0.62536574  1
  O  O166  1  0.24147983  1.00651672  0.13222322  1
  O  O167  1  0.24313281  1.00174477  0.62124819  1
  O  O168  1  0.74511895  0.49334917  0.13194088  1
  O  O169  1  0.73326068  0.49631732  0.63735818  1
  O  O170  1  0.74497003  0.97090212  0.12028433  1
  O  O171  1  0.74031093  0.99394765  0.62774966  1
  O  O172  1  0.01140671  0.38563925  0.24774159  1
  O  O173  1  0.01277112  0.37250977  0.74736136  1
  O  O174  1  -0.00571153  0.87603246  0.27008465  1
  O  O175  1  0.02079383  0.86420280  0.76024738  1
  O  O176  1  0.51506474  0.36632599  0.24399246  1
  O  O177  1  0.49357676  0.36276207  0.77043266  1
  O  O178  1  0.49857324  0.86186256  0.26746294  1
  O  O179  1  0.49286564  0.86088298  0.77230042  1
  O  O180  1  0.49645914  0.14189906  0.24016175  1
  O  O181  1  0.50656176  0.14956094  0.73462362  1
  O  O182  1  0.49638440  0.62731374  0.24947241  1
  O  O183  1  0.48811555  0.62147939  0.74483781  1
  O  O184  1  1.00964427  0.12626351  0.24214468  1
  O  O185  1  0.99326299  0.13186677  0.74163229  1
  O  O186  1  0.98963842  0.61320318  0.25366681  1
  O  O187  1  1.00598560  0.64955370  0.73994369  1
  O  O188  1  0.35788167  0.24790925  -0.00359167  1
  O  O189  1  0.35660305  0.25597519  0.51174541  1
  O  O190  1  0.38160120  0.73750081  0.01337901  1
  O  O191  1  0.36826287  0.75087552  0.50505338  1
  O  O192  1  0.86572549  0.25675640  0.00714874  1
  O  O193  1  0.87141352  0.24809923  0.51715297  1
  O  O194  1  0.85628741  0.76316151  0.00042079  1
  O  O195  1  0.88208233  0.76055424  0.50010667  1
  O  O196  1  0.13495415  0.24283663  0.51118178  1
  O  O197  1  0.13744580  0.23974694  1.00377586  1
  O  O198  1  0.14002539  0.74723317  0.49454315  1
  O  O199  1  0.13717082  0.72744526  1.03212081  1
  O  O200  1  0.64686575  0.25747093  0.49403694  1
  O  O201  1  0.63930818  0.24752023  1.00120394  1
  O  O202  1  0.62101147  0.73040719  0.49334990  1
  O  O203  1  0.58933605  0.73914610  0.97778720  1
  O  O204  1  0.50112992  0.24726137  0.13985785  1
  O  O205  1  0.47773436  0.27067959  0.64753947  1
  O  O206  1  0.50803913  0.73416300  0.13340854  1
  O  O207  1  0.48800832  0.75596842  0.61980543  1
  O  O208  1  0.98865953  0.24177286  0.11921829  1
  O  O209  1  0.99043716  0.24527896  0.63281274  1
  O  O210  1  0.97244014  0.74689566  0.10952840  1
  O  O211  1  1.00289545  0.74168313  0.64241152  1
  O  O212  1  -0.04093032  0.29746761  0.37764803  1
  O  O213  1  -0.01092488  0.24369570  0.86106893  1
  O  O214  1  0.01195371  0.76241193  0.38165208  1
  O  O215  1  0.01296312  0.75910261  0.89340895  1
  O  O216  1  0.50049159  0.24520168  0.35311287  1
  O  O217  1  0.50198003  0.23849456  0.86212408  1
  O  O218  1  0.51127527  0.74985933  0.37096828  1
  O  O219  1  0.54396732  0.73836912  0.91652491  1
  O  O220  1  0.24099283  0.13880318  0.49367297  1
  O  O221  1  0.23999339  0.13501797  0.98827500  1
  O  O222  1  0.24870444  0.63290964  0.48826269  1
  O  O223  1  0.25348119  0.61133564  0.99475091  1
  O  O224  1  0.75003572  0.13813423  0.49147480  1
  O  O225  1  0.73841605  0.13563614  1.00989261  1
  O  O226  1  0.73850502  0.60703121  0.48926745  1
  O  O227  1  0.75531668  0.62501885  0.98773278  1
  O  O228  1  0.24060173  0.36133673  0.00287087  1
  O  O229  1  0.23780174  0.36560267  0.50847796  1
  O  O230  1  0.22314805  0.93511679  0.09760845  1
  O  O231  1  0.26537221  0.87188233  0.50009115  1
  O  O232  1  0.75735689  0.36629772  0.00484956  1
  O  O233  1  0.76303737  0.36339321  0.48807714  1
  O  O234  1  0.71238398  0.91019291  0.08006600  1
  O  O235  1  0.76640621  0.87669452  0.50967089  1
  O  O236  1  0.13592724  0.50326194  0.24035313  1
  O  O237  1  0.13421523  0.49927071  0.74502205  1
  O  O238  1  0.10737516  0.96849407  0.24901602  1
  O  O239  1  0.13534013  1.00936258  0.73307112  1
  O  O240  1  0.63700369  0.48879752  0.24750145  1
  O  O241  1  0.60153175  0.48564415  0.72683423  1
  O  O242  1  0.69067972  0.93752623  0.25627613  1
  O  O243  1  0.63740716  1.00536970  0.74469093  1
  O  O244  1  0.33827630  -0.03559301  0.24545187  1
  O  O245  1  0.36330158  0.00655268  0.73711916  1
  O  O246  1  0.37008794  0.50268163  0.25984196  1
  O  O247  1  0.36788633  0.50956855  0.74271227  1
  O  O248  1  0.87747129  -0.00807099  0.26929843  1
  O  O249  1  0.87137381  0.00802940  0.74295184  1
  O  O250  1  0.86695114  0.50085661  0.25350747  1
  O  O251  1  0.87105485  0.51010484  0.74458259  1
  O  O252  1  0.12758422  0.37970765  0.35787254  1
  O  O253  1  0.12676285  0.38257836  0.86096562  1
  O  O254  1  0.11214693  0.86939354  0.38466511  1
  O  O255  1  0.13805025  0.86808658  0.87386106  1
  O  O256  1  0.63140022  0.37473317  0.35990248  1
  O  O257  1  0.60190418  0.37639669  0.88533627  1
  O  O258  1  0.61367222  0.86026457  0.39403164  1
  O  O259  1  0.58991498  0.88767247  0.91981804  1
  O  O260  1  0.39007708  0.12054538  0.11780572  1
  O  O261  1  0.37364254  0.14301191  0.62149302  1
  O  O262  1  0.39304977  0.62671557  0.13584168  1
  O  O263  1  0.37313048  0.63771636  0.62584324  1
  O  O264  1  0.87999456  0.13560219  0.12141120  1
  O  O265  1  0.88550737  0.12941864  0.63052591  1
  O  O266  1  0.86649585  0.62692978  0.14373040  1
  O  O267  1  0.87990272  0.62466257  0.61537859  1
  O  O268  1  0.25504767  0.24376863  0.11722040  1
  O  O269  1  0.25336360  0.25793065  0.61986383  1
  O  O270  1  0.27713415  0.75274013  0.13735971  1
  O  O271  1  0.25672744  0.76207634  0.61252008  1
  O  O272  1  0.75923162  0.25666149  0.11744512  1
  O  O273  1  0.76240821  0.25027920  0.61600143  1
  O  O274  1  0.77194172  0.76258445  0.15541788  1
  O  O275  1  0.73208083  0.76401650  0.63394458  1
  O  O276  1  0.24990979  0.24478013  0.39041432  1
  O  O277  1  0.25021794  0.24113061  0.87423978  1
  O  O278  1  0.24880554  0.74773844  0.37744685  1
  O  O279  1  0.19566775  0.74331240  0.79058128  1
  O  O280  1  0.76383646  0.23769251  0.38670083  1
  O  O281  1  0.75440911  0.24629006  0.88799518  1
  O  O282  1  0.74014026  0.73722699  0.36545192  1
  O  O283  1  0.70683484  0.73663509  0.86954390  1
  O  O284  1  0.01379740  0.13465846  -0.00228319  1
  O  O285  1  0.00212618  0.12489420  0.50460482  1
  O  O286  1  -0.02202776  0.61198434  -0.00804230  1
  O  O287  1  0.01713985  0.62800956  0.49583905  1
  O  O288  1  0.50998461  0.13320419  0.01565306  1
  O  O289  1  0.51549816  0.17217305  0.51936545  1
  O  O290  1  0.49560461  0.61245137  0.01752315  1
  O  O291  1  0.51311919  0.60864344  0.49412754  1
  O  O292  1  0.50231497  0.37858910  0.49010621  1
  O  O293  1  0.51554148  0.37579484  0.98468053  1
  O  O294  1  0.49192919  0.87382891  0.49229886  1
  O  O295  1  0.53370857  0.89206102  0.97306407  1
  O  O296  1  1.01097700  0.38413210  0.50522385  1
  O  O297  1  0.99208475  0.37855457  1.00066710  1
  O  O298  1  0.99066296  0.88228773  0.50596423  1
  O  O299  1  1.00858115  0.88140823  0.97675764  1
  O  O300  1  0.48664597  0.49712551  0.37913648  1
  O  O301  1  0.48923777  0.49892058  0.87134159  1
  O  O302  1  0.51458110  0.98540372  0.36520867  1
  O  O303  1  0.46633347  0.99956146  0.85983264  1
  O  O304  1  1.00634843  0.49995575  0.39308998  1
  O  O305  1  1.00227946  0.50565291  0.87932764  1
  O  O306  1  0.99347966  0.99326413  0.38682347  1
  O  O307  1  1.00506107  0.97798832  0.86927802  1
  O  O308  1  -0.00833972  0.02262586  0.11966843  1
  O  O309  1  0.00710201  0.01187130  0.61916596  1
  O  O310  1  0.00260170  0.50687456  0.11775821  1
  O  O311  1  0.01681005  0.50231443  0.61460326  1
  O  O312  1  0.50617798  0.01658380  0.14679088  1
  O  O313  1  0.51818383  -0.00149310  0.63346698  1
  O  O314  1  0.51804845  0.50867104  0.13704124  1
  O  O315  1  0.50294666  0.48646366  0.60672144  1
  O  O316  1  0.24207003  0.39075276  0.25052206  1
  O  O317  1  0.24065864  0.38702174  0.74561075  1
  O  O318  1  0.28647207  0.90744651  0.25388122  1
  O  O319  1  0.25451474  0.89241911  0.72706605  1
  O  O320  1  0.74664481  0.38063055  0.24080139  1
  O  O321  1  0.74962593  0.39649428  0.76186060  1
  O  O322  1  0.73566573  0.89414795  0.29861134  1
  O  O323  1  0.75394288  0.88923021  0.73010876  1
  O  O324  1  0.24432834  0.13094531  0.27146320  1
  O  O325  1  0.24229008  0.12375747  0.75983188  1
  O  O326  1  0.26409063  0.61461031  0.26040783  1
  O  O327  1  0.25988555  0.60683164  0.74428134  1
  O  O328  1  0.74967753  0.12988961  0.26735127  1
  O  O329  1  0.76265863  0.11192761  0.73850464  1
  O  O330  1  0.75401482  0.61301362  0.26171453  1
  O  O331  1  0.72257262  0.59647839  0.76545693  1
  O  O332  1  0.36534197  0.12790010  0.38284969  1
  O  O333  1  0.35655055  0.11519691  0.88183447  1
  O  O334  1  0.37124609  0.62130066  0.36911652  1
  O  O335  1  0.37506511  0.64146451  0.85312165  1
  O  O336  1  0.87218470  0.11346583  0.37712941  1
  O  O337  1  0.87538529  0.12582008  0.85189169  1
  O  O338  1  0.86791006  0.61821102  0.36780920  1
  O  O339  1  0.84043903  0.66679612  0.85048846  1
  O  O340  1  0.12176806  0.39702045  0.13135525  1
  O  O341  1  0.13517005  0.38812638  0.63667224  1
  O  O342  1  0.16849074  0.89483519  0.13135267  1
  O  O343  1  0.13853560  0.88869428  0.60755540  1
  O  O344  1  0.63486886  0.38328428  0.13327244  1
  O  O345  1  0.62201391  0.37345720  0.61317000  1
  O  O346  1  0.65096673  0.87542590  0.12031427  1
  O  O347  1  0.63754678  0.88794022  0.61283762  1
  O  O348  1  0.12645284  0.26979711  0.23916562  1
  O  O349  1  0.11607403  0.26670630  0.74547064  1
  O  O350  1  0.13513703  0.74877745  0.25713031  1
  O  O351  1  0.04581759  0.70982559  0.70397080  1
  O  O352  1  0.63457137  0.26480024  0.25037320  1
  O  O353  1  0.62465097  0.25834058  0.74953035  1
  O  O354  1  0.61929972  0.74013005  0.25997822  1
  O  O355  1  0.55989831  0.83008207  0.76144417  1
  O  O356  1  0.37936985  0.26682134  0.24362699  1
  O  O357  1  0.35703899  0.25025290  0.74222168  1
  O  O358  1  0.39147765  0.74005640  0.24683552  1
  O  O359  1  0.37030568  0.74165343  0.73183883  1
  O  O360  1  0.87296940  0.25236318  0.23149502  1
  O  O361  1  0.87662487  0.24202763  0.73763265  1
  O  O362  1  0.88815609  0.73457307  0.26346588  1
  O  O363  1  0.85178752  0.66621045  0.67078162  1
  O  O364  1  0.38513693  0.50078098  0.48992357  1
  O  O365  1  0.38289473  0.45981738  1.03771012  1
  O  O366  1  0.38017880  0.99065765  0.50612089  1
  O  O367  1  0.35938341  0.98776939  0.98781255  1
  O  O368  1  0.89482715  0.49866937  0.50094958  1
  O  O369  1  0.88470666  0.48319253  1.00307059  1
  O  O370  1  0.88613964  0.99874014  0.50157807  1
  O  O371  1  0.88748636  1.02640960  0.98008724  1
  O  O372  1  0.12332784  0.02340820  0.00351391  1
  O  O373  1  0.11373615  0.01227790  0.50734830  1
  O  O374  1  0.10950436  0.50853694  0.00714117  1
  O  O375  1  0.12142836  0.50996877  0.50575903  1
  O  O376  1  0.63056454  0.01401208  0.02012176  1
  O  O377  1  0.62593276  0.00423680  0.50708055  1
  O  O378  1  0.63414722  0.49334099  0.01768828  1
  O  O379  1  0.61445165  0.49925642  0.50465628  1
  O  O380  1  0.38292231  0.40494858  0.09233364  1
  O  O381  1  0.35867839  0.36994226  0.63272791  1
  O  O382  1  0.40823806  0.85467869  0.11625468  1
  O  O383  1  0.37260305  0.86684830  0.61167354  1
  O  O384  1  0.86862486  0.36538064  0.11507025  1
  O  O385  1  0.88023809  0.36577478  0.63048629  1
  O  O386  1  0.87865565  0.87439001  0.12189224  1
  O  O387  1  0.86533278  0.87057072  0.61940843  1
  O  O388  1  0.12412809  0.12518510  0.38695563  1
  O  O389  1  0.13411618  0.12343317  0.88078565  1
  O  O390  1  0.13638091  0.63564180  0.38011580  1
  O  O391  1  0.12528122  0.62624318  0.90070591  1
  O  O392  1  0.63881849  0.12849651  0.37711679  1
  O  O393  1  0.61481584  0.10288412  0.89754422  1
  O  O394  1  0.63313953  0.62481152  0.38274716  1
  O  O395  1  0.63228615  0.59804537  0.88962365  1
