# generated using pymatgen
data_V35Zn35O128
_symmetry_space_group_name_H-M   'P 1'
_cell_length_a   16.89161642
_cell_length_b   16.87507350
_cell_length_c   16.88561920
_cell_angle_alpha   90.22286724
_cell_angle_beta   89.90364970
_cell_angle_gamma   90.20407809
_symmetry_Int_Tables_number   1
_chemical_formula_structural   V35Zn35O128
_chemical_formula_sum   'V70 Zn70 O256'
_cell_volume   4813.12599152
_cell_formula_units_Z   2
loop_
 _symmetry_equiv_pos_site_id
 _symmetry_equiv_pos_as_xyz
  1  'x, y, z'
loop_
 _atom_site_type_symbol
 _atom_site_label
 _atom_site_symmetry_multiplicity
 _atom_site_fract_x
 _atom_site_fract_y
 _atom_site_fract_z
 _atom_site_occupancy
  V  V0  1  0.51511803  0.87172769  0.87618246  1
  V  V1  1  0.36929244  0.87044276  0.50149799  1
  V  V2  1  -0.00331115  0.11859308  0.63355302  1
  V  V3  1  0.49800518  0.88052864  0.36694269  1
  V  V4  1  0.24758824  0.39169982  0.61731214  1
  V  V5  1  0.79076477  0.24149739  0.02070346  1
  V  V6  1  0.13848347  0.23848792  0.88212524  1
  V  V7  1  0.49262779  0.00170177  0.49854852  1
  V  V8  1  0.11076672  0.62762952  -0.00143224  1
  V  V9  1  0.49302272  0.12862719  0.63130094  1
  V  V10  1  0.62163115  0.61856804  0.50928769  1
  V  V11  1  0.50009494  0.02834979  -0.00788613  1
  V  V12  1  0.63674654  0.12456893  0.49551641  1
  V  V13  1  0.64073400  0.38234854  0.24896293  1
  V  V14  1  0.87200137  0.60739663  0.25659430  1
  V  V15  1  0.49926954  0.61075484  0.11214875  1
  V  V16  1  0.86451459  0.00513441  0.36978463  1
  V  V17  1  0.62637895  0.00669536  0.10822753  1
  V  V18  1  0.86732648  0.25704150  0.62615994  1
  V  V19  1  0.49206189  0.49561832  0.50740504  1
  V  V20  1  0.75025511  0.60340786  0.37601056  1
  V  V21  1  0.74355568  0.87539807  0.62585734  1
  V  V22  1  0.25369913  0.87711296  0.13225373  1
  V  V23  1  0.12436915  0.24271839  0.36575063  1
  V  V24  1  0.12656974  0.87882492  0.25508078  1
  V  V25  1  -0.01533464  -0.01560016  -0.01452391  1
  V  V26  1  0.36041309  0.75732407  0.62515806  1
  V  V27  1  0.14424540  0.38221281  0.25209701  1
  V  V28  1  -0.00484407  0.74457351  0.24246204  1
  V  V29  1  0.25340631  0.75085000  -0.00223028  1
  V  V30  1  0.37720764  0.74566315  0.12793831  1
  V  V31  1  0.74185447  -0.01413859  0.24173581  1
  V  V32  1  0.39269811  0.50319179  0.88298624  1
  V  V33  1  0.62338858  -0.00415149  0.62972831  1
  V  V34  1  -0.00606776  0.37565882  0.37593872  1
  V  V35  1  0.12536926  0.76712562  0.86491115  1
  V  V36  1  0.11882287  -0.00526210  0.11514439  1
  V  V37  1  0.87778197  0.51378278  0.86225959  1
  V  V38  1  0.01387051  0.38932924  0.88028119  1
  V  V39  1  0.75247611  0.26463946  0.49835190  1
  V  V40  1  0.11268984  0.49936408  0.63986533  1
  V  V41  1  0.87140839  0.13370382  0.24523830  1
  V  V42  1  0.12411378  0.13327115  0.50725621  1
  V  V43  1  0.36371005  0.34680942  0.03264296  1
  V  V44  1  0.37819978  0.62443628  0.74011224  1
  V  V45  1  0.36089970  0.01173125  0.86064156  1
  V  V46  1  0.24917869  0.62021597  0.86634838  1
  V  V47  1  0.75251353  0.00621355  0.76259230  1
  V  V48  1  0.85605936  0.75289658  0.12387453  1
  V  V49  1  0.49963542  0.73216714  0.25311867  1
  V  V50  1  0.00192279  0.13198472  0.12566378  1
  V  V51  1  0.88372276  0.39171942  0.01001325  1
  V  V52  1  0.13108105  0.74028630  0.38167361  1
  V  V53  1  -0.00266369  0.76249137  0.75030740  1
  V  V54  1  0.63149211  0.75146821  0.37557503  1
  V  V55  1  0.64937843  0.50136104  0.11371411  1
  V  V56  1  0.13511937  0.50193627  0.11512574  1
  V  V57  1  0.00323284  0.26231456  0.75212519  1
  V  V58  1  0.48951328  0.24318812  0.24046893  1
  V  V59  1  0.86463473  0.87296937  0.49972307  1
  V  V60  1  0.36752426  0.25564854  0.61256400  1
  V  V61  1  0.30576736  0.57513127  0.32097798  1
  V  V62  1  0.48238076  0.37701956  0.37460994  1
  V  V63  1  0.87208668  0.74727735  0.62581770  1
  V  V64  1  -0.00481180  0.00343676  0.50115638  1
  V  V65  1  0.50987319  0.76110313  0.74342358  1
  V  V66  1  0.25668867  0.10242932  0.37475952  1
  V  V67  1  0.73202881  0.47749629  0.75149855  1
  V  V68  1  0.50467317  0.27533701  0.75485309  1
  V  V69  1  -0.00519495  0.87189395  0.37558811  1
  Zn  Zn70  1  0.62808933  0.24820646  0.36478170  1
  Zn  Zn71  1  -0.01414058  0.49999017  0.49152605  1
  Zn  Zn72  1  0.00247405  0.62844097  0.62191850  1
  Zn  Zn73  1  0.86966443  0.12480952  0.76723185  1
  Zn  Zn74  1  0.37914730  0.87947842  -0.00420506  1
  Zn  Zn75  1  0.12152896  0.61573323  0.49340331  1
  Zn  Zn76  1  0.18743426  0.16815167  0.20210774  1
  Zn  Zn77  1  0.21116453  0.24579290  0.72044090  1
  Zn  Zn78  1  0.18482837  0.68896022  0.18821797  1
  Zn  Zn79  1  0.18482642  0.68682880  0.68414131  1
  Zn  Zn80  1  0.68485337  0.18778528  0.18454113  1
  Zn  Zn81  1  0.68162011  0.18820418  0.69105452  1
  Zn  Zn82  1  0.68383658  0.67739651  0.19239735  1
  Zn  Zn83  1  0.69059681  0.68641780  0.69312411  1
  Zn  Zn84  1  0.30891002  0.29152032  0.32206505  1
  Zn  Zn85  1  0.32599565  0.32196565  0.80033258  1
  Zn  Zn86  1  0.31528733  0.80433374  0.31627262  1
  Zn  Zn87  1  0.31552671  0.82611535  0.80890146  1
  Zn  Zn88  1  0.81074453  0.31299494  0.31160662  1
  Zn  Zn89  1  0.82709740  0.31798423  0.82090243  1
  Zn  Zn90  1  0.81053032  0.81287999  0.30815478  1
  Zn  Zn91  1  0.81070710  0.83312409  0.80890448  1
  Zn  Zn92  1  0.17629576  0.43218035  0.45074329  1
  Zn  Zn93  1  0.19806203  0.43367329  0.93498656  1
  Zn  Zn94  1  0.17662137  0.92938130  0.46159055  1
  Zn  Zn95  1  0.19165579  0.94117874  0.93909227  1
  Zn  Zn96  1  0.67863897  0.43288106  0.44145155  1
  Zn  Zn97  1  0.68031116  0.54181981  0.92459012  1
  Zn  Zn98  1  0.68297672  0.93798458  0.43580024  1
  Zn  Zn99  1  0.69383996  1.08406424  0.93412629  1
  Zn  Zn100  1  0.31646355  0.05514145  0.06533572  1
  Zn  Zn101  1  0.30765786  0.06321384  0.56553681  1
  Zn  Zn102  1  0.30960724  0.56325998  0.06249334  1
  Zn  Zn103  1  0.31138829  0.56518880  0.55492988  1
  Zn  Zn104  1  0.81791828  0.05386359  0.06700788  1
  Zn  Zn105  1  0.81532836  0.06327150  0.56966771  1
  Zn  Zn106  1  0.83870441  0.58291013  0.05533468  1
  Zn  Zn107  1  0.79797818  0.56495426  0.55867237  1
  Zn  Zn108  1  0.41842450  0.43624659  0.20349519  1
  Zn  Zn109  1  0.43120955  0.43671505  0.68097311  1
  Zn  Zn110  1  0.46752537  0.92829233  0.16700912  1
  Zn  Zn111  1  0.43267354  0.93830321  0.68867520  1
  Zn  Zn112  1  0.96544994  0.43953707  0.19576683  1
  Zn  Zn113  1  0.89200183  0.46901981  0.64948643  1
  Zn  Zn114  1  0.93161296  0.93135272  0.18301424  1
  Zn  Zn115  1  0.93339550  0.93712482  0.69407412  1
  Zn  Zn116  1  0.05593503  0.06230560  0.31338645  1
  Zn  Zn117  1  0.07289047  0.06099891  0.81389352  1
  Zn  Zn118  1  0.06643537  0.55359644  0.29813634  1
  Zn  Zn119  1  0.05798333  0.57511137  0.80406217  1
  Zn  Zn120  1  0.56441787  0.06437158  0.31257748  1
  Zn  Zn121  1  0.55920769  0.06458403  0.81366402  1
  Zn  Zn122  1  0.56395045  0.55361702  0.31423902  1
  Zn  Zn123  1  0.55783847  0.56119827  0.78831949  1
  Zn  Zn124  1  0.43892982  0.18842497  0.42991555  1
  Zn  Zn125  1  0.42748251  0.20024340  0.92719218  1
  Zn  Zn126  1  0.43983718  0.68401451  0.44225178  1
  Zn  Zn127  1  0.44116826  0.68839197  0.93312107  1
  Zn  Zn128  1  0.93628936  0.19250365  0.43583971  1
  Zn  Zn129  1  0.95678372  0.18688012  0.94740837  1
  Zn  Zn130  1  0.93547876  0.68384470  0.44045113  1
  Zn  Zn131  1  0.91461248  0.72002087  0.92352177  1
  Zn  Zn132  1  0.07507432  0.31595387  0.06128126  1
  Zn  Zn133  1  0.06070805  0.31760521  0.56314385  1
  Zn  Zn134  1  0.05975604  0.81171211  0.05905819  1
  Zn  Zn135  1  0.06355050  0.81588446  0.56349364  1
  Zn  Zn136  1  0.53279013  0.34766434  0.07914918  1
  Zn  Zn137  1  0.56502533  0.31593459  0.56537259  1
  Zn  Zn138  1  0.56303392  0.82147155  0.06877589  1
  Zn  Zn139  1  0.55759245  0.80833525  0.55788269  1
  O  O140  1  0.11375730  0.09922737  0.14008525  1
  O  O141  1  0.10266664  0.12715821  0.61343282  1
  O  O142  1  0.13047243  0.63050558  0.10234112  1
  O  O143  1  0.13020294  0.61338422  0.61686170  1
  O  O144  1  0.62261975  0.10422393  0.13511584  1
  O  O145  1  0.61324038  0.11492370  0.61333751  1
  O  O146  1  0.60888221  0.60706162  0.13508281  1
  O  O147  1  0.63186196  0.63425531  0.60730885  1
  O  O148  1  0.38311890  0.36640262  0.37658679  1
  O  O149  1  0.37083988  0.40655396  0.85983013  1
  O  O150  1  0.39158199  0.86191741  0.38736258  1
  O  O151  1  0.37767531  0.89086443  0.87911230  1
  O  O152  1  0.89535121  0.36869980  0.36121755  1
  O  O153  1  0.89637285  0.38801841  0.88489046  1
  O  O154  1  0.87623384  0.88023999  0.38100607  1
  O  O155  1  0.85028883  0.80993050  0.90389246  1
  O  O156  1  0.23580349  0.00409916  0.39416405  1
  O  O157  1  0.26082880  0.00814359  0.88403830  1
  O  O158  1  0.24781087  0.53119868  0.40963075  1
  O  O159  1  0.25174301  0.51955556  0.87322143  1
  O  O160  1  0.75780375  -0.00599295  0.36447687  1
  O  O161  1  0.73887114  0.00091695  0.86049165  1
  O  O162  1  0.75076873  0.50498779  0.37979713  1
  O  O163  1  0.76755416  0.49796113  0.86123127  1
  O  O164  1  0.23318787  0.51633769  0.13338185  1
  O  O165  1  0.24635988  0.49477734  0.62112412  1
  O  O166  1  0.23694148  0.98583821  0.11913641  1
  O  O167  1  0.23919543  1.00099409  0.64626846  1
  O  O168  1  0.74645322  0.52020585  0.11445697  1
  O  O169  1  0.76567396  0.51430086  0.66040164  1
  O  O170  1  0.73648109  0.99317611  0.12860940  1
  O  O171  1  0.74107680  0.99217262  0.62609252  1
  O  O172  1  0.02930397  0.37167687  0.26366872  1
  O  O173  1  -0.00065445  0.36229429  0.76380176  1
  O  O174  1  0.00251281  0.86481095  0.25792799  1
  O  O175  1  0.00742275  0.86468354  0.74031349  1
  O  O176  1  0.50002301  0.36905464  0.26204470  1
  O  O177  1  0.50404272  0.37568545  0.74139087  1
  O  O178  1  0.49405849  0.87320629  0.26526658  1
  O  O179  1  0.49516054  0.86899652  0.75947585  1
  O  O180  1  0.51072565  0.14483117  0.25986155  1
  O  O181  1  0.49997753  0.11993738  0.73054382  1
  O  O182  1  0.49715253  0.63105119  0.24682732  1
  O  O183  1  0.48472130  0.64443490  0.75151187  1
  O  O184  1  0.98743881  0.11362283  0.23731793  1
  O  O185  1  0.99641715  0.12119086  0.74100620  1
  O  O186  1  0.98289301  0.64148034  0.26812625  1
  O  O187  1  1.00612645  0.65210384  0.73796367  1
  O  O188  1  0.36799317  0.24568268  0.00999617  1
  O  O189  1  0.38360906  0.24740335  0.51363562  1
  O  O190  1  0.36672612  0.75095057  0.00693099  1
  O  O191  1  0.38850605  0.75816815  0.51589667  1
  O  O192  1  0.89328885  0.25377000  0.02414722  1
  O  O193  1  0.86151998  0.24421899  0.51078892  1
  O  O194  1  0.87844915  0.70614181  0.03306998  1
  O  O195  1  0.87830055  0.76384071  0.51253245  1
  O  O196  1  0.11653661  0.23607419  0.49765811  1
  O  O197  1  0.13621949  0.26034579  0.98092528  1
  O  O198  1  0.11444126  0.74190146  0.48423036  1
  O  O199  1  0.13050629  0.74405588  0.98827768  1
  O  O200  1  0.63897748  0.23577074  0.50906653  1
  O  O201  1  0.64554336  0.27486605  0.96721757  1
  O  O202  1  0.60968534  0.73461914  0.48152241  1
  O  O203  1  0.63744553  0.74272446  1.01517824  1
  O  O204  1  0.50457074  0.25562890  0.14055611  1
  O  O205  1  0.49604679  0.23815540  0.62262417  1
  O  O206  1  0.49884777  0.74286141  0.13760602  1
  O  O207  1  0.48935535  0.76096553  0.63834354  1
  O  O208  1  1.02300408  0.22916623  0.12104701  1
  O  O209  1  0.99373627  0.24307296  0.63578199  1
  O  O210  1  1.00277348  0.74859808  0.14159764  1
  O  O211  1  0.98919102  0.75683308  0.62811729  1
  O  O212  1  0.01392794  0.25724438  0.37977823  1
  O  O213  1  0.01211505  0.25567917  0.86842299  1
  O  O214  1  -0.00362895  0.76168521  0.36998232  1
  O  O215  1  0.01423221  0.75204922  0.86131731  1
  O  O216  1  0.50786666  0.26322615  0.37282633  1
  O  O217  1  0.48867589  0.26031782  0.85368510  1
  O  O218  1  0.50345091  0.75374745  0.36307738  1
  O  O219  1  0.49184353  0.76261753  0.86116329  1
  O  O220  1  0.22584204  0.11498626  0.50268463  1
  O  O221  1  0.24935665  0.15261029  1.04935533  1
  O  O222  1  0.24210993  0.59666595  0.46671634  1
  O  O223  1  0.24780282  0.63770483  0.98583531  1
  O  O224  1  0.73833231  0.12055337  0.50402604  1
  O  O225  1  0.76229866  0.13569110  1.00847734  1
  O  O226  1  0.73522250  0.62562355  0.48521405  1
  O  O227  1  0.73376918  0.63647731  0.98931846  1
  O  O228  1  0.27368984  0.38342694  -0.00320063  1
  O  O229  1  0.23840761  0.36279898  0.51931512  1
  O  O230  1  0.24883958  0.86346701  0.01240050  1
  O  O231  1  0.27335478  0.86762128  0.48578557  1
  O  O232  1  0.78639857  0.35222460  -0.00461252  1
  O  O233  1  0.74270046  0.36337693  0.50842647  1
  O  O234  1  0.69149335  0.77524982  -0.02566657  1
  O  O235  1  0.75710548  0.88085329  0.50669151  1
  O  O236  1  0.16216641  0.47799756  0.27634164  1
  O  O237  1  0.13119723  0.51196698  0.73876885  1
  O  O238  1  0.11470277  0.98148171  0.24679424  1
  O  O239  1  0.14472683  0.99940585  0.73892428  1
  O  O240  1  0.62480264  0.48957652  0.23930681  1
  O  O241  1  0.63136426  0.48063629  0.75577030  1
  O  O242  1  0.64197307  1.00310960  0.25572684  1
  O  O243  1  0.63064547  1.00270514  0.73390828  1
  O  O244  1  0.39138865  0.02614869  0.22078988  1
  O  O245  1  0.36880185  -0.00219660  0.75939835  1
  O  O246  1  0.35583230  0.50427718  0.27031527  1
  O  O247  1  0.38212368  0.52176953  0.74924342  1
  O  O248  1  0.86388837  -0.00237489  0.25331139  1
  O  O249  1  0.86006156  0.00308667  0.75405451  1
  O  O250  1  0.88737245  0.51031181  0.25306977  1
  O  O251  1  0.88539582  0.49759521  0.76278053  1
  O  O252  1  0.13312541  0.35564884  0.37021187  1
  O  O253  1  0.11668217  0.37531941  0.87597177  1
  O  O254  1  0.11169635  0.86615232  0.37238355  1
  O  O255  1  0.13195136  0.86529331  0.87619742  1
  O  O256  1  0.62239961  0.37559117  0.35819499  1
  O  O257  1  0.64361392  0.30767353  0.90225816  1
  O  O258  1  0.61016299  0.86025716  0.38328259  1
  O  O259  1  0.61083543  0.87412254  0.87162517  1
  O  O260  1  0.37498444  0.08340372  0.17505654  1
  O  O261  1  0.38973627  0.12620972  0.61643151  1
  O  O262  1  0.38402622  0.63816300  0.12130968  1
  O  O263  1  0.36651445  0.63702183  0.63366100  1
  O  O264  1  0.88980955  0.11891123  0.13559391  1
  O  O265  1  0.88618100  0.13481285  0.62780304  1
  O  O266  1  0.87067975  0.63162765  0.15538470  1
  O  O267  1  0.86824018  0.64771559  0.62078239  1
  O  O268  1  0.24881656  0.20377076  0.10732383  1
  O  O269  1  0.26927388  0.22641787  0.62573269  1
  O  O270  1  0.25804125  0.75515653  0.11933134  1
  O  O271  1  0.26108520  0.75064901  0.62170504  1
  O  O272  1  0.75293889  0.25018971  0.11361351  1
  O  O273  1  0.76224476  0.24215467  0.62107193  1
  O  O274  1  0.75569845  0.74568500  0.13605542  1
  O  O275  1  0.76163439  0.76202163  0.63823995  1
  O  O276  1  0.23139559  0.22569160  0.38036401  1
  O  O277  1  0.23510213  0.25351081  0.84188408  1
  O  O278  1  0.22969211  0.75516426  0.37216778  1
  O  O279  1  0.24275037  0.74785148  0.88077798  1
  O  O280  1  0.74837721  0.25427933  0.39375924  1
  O  O281  1  0.80470276  0.22588456  0.89275063  1
  O  O282  1  0.73239463  0.75483591  0.37060141  1
  O  O283  1  0.75324036  0.69479199  0.94433660  1
  O  O284  1  -0.00249767  0.10609909  0.02000401  1
  O  O285  1  -0.00474445  0.12160414  0.51007376  1
  O  O286  1  0.01501242  0.63131183  -0.01115096  1
  O  O287  1  -0.00101866  0.61867037  0.50520758  1
  O  O288  1  0.50406133  0.12565652  -0.01593441  1
  O  O289  1  0.50695786  0.11420116  0.50358241  1
  O  O290  1  0.50258123  0.63221770  0.01391585  1
  O  O291  1  0.51265404  0.61038704  0.49087273  1
  O  O292  1  0.50894181  0.38397865  0.48577356  1
  O  O293  1  0.45931399  0.37840626  1.00232203  1
  O  O294  1  0.49513702  0.88435739  0.49154163  1
  O  O295  1  0.49953394  0.87173937  0.98642987  1
  O  O296  1  1.00310997  0.37463150  0.48264162  1
  O  O297  1  0.99892650  0.37308845  0.98760102  1
  O  O298  1  0.98422011  0.88441637  0.49237019  1
  O  O299  1  1.00383105  0.88364591  0.99429918  1
  O  O300  1  0.50059826  0.48420134  0.37926396  1
  O  O301  1  0.49197721  0.51979489  0.87309957  1
  O  O302  1  0.50499549  0.98723358  0.38091616  1
  O  O303  1  0.49710705  0.99084315  0.88168530  1
  O  O304  1  1.01137398  0.48208356  0.37265540  1
  O  O305  1  1.00286078  0.49317298  0.86934039  1
  O  O306  1  0.98590375  0.98860642  0.37799719  1
  O  O307  1  1.00376395  1.00775492  0.88739720  1
  O  O308  1  0.00961648  -0.00986887  0.11757833  1
  O  O309  1  -0.01431675  0.01166821  0.61737162  1
  O  O310  1  0.05120804  0.52359079  0.17699987  1
  O  O311  1  0.00939910  0.50373397  0.64076228  1
  O  O312  1  0.50195327  0.01441555  0.09742878  1
  O  O313  1  0.50454080  0.00433940  0.61707041  1
  O  O314  1  0.48135108  0.51290727  0.12783392  1
  O  O315  1  0.50237308  0.49170009  0.60785370  1
  O  O316  1  0.23591233  0.34123880  0.24579727  1
  O  O317  1  0.24612661  0.35864564  0.71908327  1
  O  O318  1  0.24178580  0.86361911  0.24080873  1
  O  O319  1  0.24024437  0.86446817  0.73636704  1
  O  O320  1  0.74018512  0.37612850  0.24897648  1
  O  O321  1  0.75664816  0.37844874  0.75674225  1
  O  O322  1  0.74940287  0.88616161  0.24655566  1
  O  O323  1  0.74942742  0.89044272  0.73689568  1
  O  O324  1  0.24620987  0.10564355  0.27309800  1
  O  O325  1  0.20307135  0.04148143  0.70385382  1
  O  O326  1  0.24899452  0.63031948  0.25816949  1
  O  O327  1  0.26121972  0.63716871  0.76103729  1
  O  O328  1  0.76678546  0.11107752  0.23865353  1
  O  O329  1  0.74997261  0.11024093  0.74114709  1
  O  O330  1  0.75815751  0.62121974  0.26614255  1
  O  O331  1  0.71398712  0.61139164  0.77795939  1
  O  O332  1  0.35576095  0.11763905  0.39368655  1
  O  O333  1  0.38292346  0.11047565  0.87036379  1
  O  O334  1  0.37065114  0.63847236  0.36610875  1
  O  O335  1  0.36555893  0.62520248  0.86350809  1
  O  O336  1  0.88477713  0.11321090  0.36041836  1
  O  O337  1  0.85974001  0.16051412  0.88226560  1
  O  O338  1  0.85684643  0.63167845  0.37219647  1
  O  O339  1  0.89027725  0.61199358  0.87700524  1
  O  O340  1  0.12519649  0.39311826  0.13475583  1
  O  O341  1  0.12903360  0.38967456  0.62595574  1
  O  O342  1  0.13154495  0.87758202  0.13363995  1
  O  O343  1  0.13991060  0.89454129  0.56501036  1
  O  O344  1  0.62417849  0.39282690  0.13176294  1
  O  O345  1  0.64028071  0.38326534  0.61324667  1
  O  O346  1  0.59173073  0.90711493  0.13748574  1
  O  O347  1  0.63371994  0.88215882  0.61019317  1
  O  O348  1  0.12073417  0.23938499  0.26323803  1
  O  O349  1  0.10451628  0.23926837  0.75415436  1
  O  O350  1  0.11013518  0.75704377  0.25766446  1
  O  O351  1  0.12394654  0.75398683  0.75936391  1
  O  O352  1  0.62234149  0.26606887  0.24624783  1
  O  O353  1  0.60383892  0.25130106  0.73826327  1
  O  O354  1  0.60992663  0.74345752  0.26160393  1
  O  O355  1  0.60877416  0.75272047  0.74278496  1
  O  O356  1  0.38928409  0.24455689  0.25590273  1
  O  O357  1  0.39377306  0.25719354  0.72685922  1
  O  O358  1  0.38939498  0.75536291  0.24018030  1
  O  O359  1  0.37747394  0.74831690  0.73708158  1
  O  O360  1  0.86890851  0.23247161  0.25295061  1
  O  O361  1  0.88685741  0.24406042  0.74257820  1
  O  O362  1  0.88382305  0.75180218  0.24363502  1
  O  O363  1  0.88688649  0.76356171  0.73687721  1
  O  O364  1  0.39259801  0.50683769  0.49905291  1
  O  O365  1  0.37376121  0.51740325  0.98170821  1
  O  O366  1  0.38292471  0.98508924  0.51094348  1
  O  O367  1  0.38847658  1.00523737  0.99296321  1
  O  O368  1  0.88067265  0.49339738  0.53668797  1
  O  O369  1  0.87158082  0.49649056  0.98581901  1
  O  O370  1  0.87649022  0.99642444  0.49022815  1
  O  O371  1  0.88485542  0.99156980  0.99996133  1
  O  O372  1  0.11878832  -0.00490289  0.01300475  1
  O  O373  1  0.09812250  0.01757209  0.48966848  1
  O  O374  1  0.12676287  0.51149974  0.00744075  1
  O  O375  1  0.10966256  0.49952988  0.51509932  1
  O  O376  1  0.61862388  0.00925474  0.00207483  1
  O  O377  1  0.61645608  0.00772145  0.50476699  1
  O  O378  1  0.62759427  0.49945022  0.01397223  1
  O  O379  1  0.61936608  0.51331452  0.49727863  1
  O  O380  1  0.36366299  0.36629398  0.13341762  1
  O  O381  1  0.36074623  0.36711596  0.61736764  1
  O  O382  1  0.37177751  0.86693499  0.12190126  1
  O  O383  1  0.37351703  0.86767234  0.61511098  1
  O  O384  1  0.90234644  0.40157819  0.10860368  1
  O  O385  1  0.88117295  0.35412780  0.63101518  1
  O  O386  1  0.87759781  0.85198857  0.11958122  1
  O  O387  1  0.86342776  0.87531493  0.61623822  1
  O  O388  1  0.11701848  0.12945641  0.38701586  1
  O  O389  1  0.12744866  0.13844938  0.87857106  1
  O  O390  1  0.11376709  0.63946347  0.36487256  1
  O  O391  1  0.13661631  0.63319804  0.87941090  1
  O  O392  1  0.62245474  0.12810659  0.39313455  1
  O  O393  1  0.62534950  0.13590388  0.86599710  1
  O  O394  1  0.63634804  0.63030398  0.37369034  1
  O  O395  1  0.65246713  0.61988219  0.83788083  1
