# generated using pymatgen
data_V35Zn35O128
_symmetry_space_group_name_H-M   'P 1'
_cell_length_a   16.90904309
_cell_length_b   16.90539338
_cell_length_c   16.87458804
_cell_angle_alpha   89.80867128
_cell_angle_beta   89.98348834
_cell_angle_gamma   89.76162935
_symmetry_Int_Tables_number   1
_chemical_formula_structural   V35Zn35O128
_chemical_formula_sum   'V70 Zn70 O256'
_cell_volume   4823.60009197
_cell_formula_units_Z   2
loop_
 _symmetry_equiv_pos_site_id
 _symmetry_equiv_pos_as_xyz
  1  'x, y, z'
loop_
 _atom_site_type_symbol
 _atom_site_label
 _atom_site_symmetry_multiplicity
 _atom_site_fract_x
 _atom_site_fract_y
 _atom_site_fract_z
 _atom_site_occupancy
  V  V0  1  0.12615062  0.23597098  0.38675539  1
  V  V1  1  0.52489772  0.11378015  0.11795345  1
  V  V2  1  0.24878769  0.37530148  0.10710032  1
  V  V3  1  0.37547580  0.23957762  0.11527657  1
  V  V4  1  0.75432905  0.22651690  -0.00287285  1
  V  V5  1  -0.01746864  0.75486516  0.78349765  1
  V  V6  1  0.00000058  0.36842573  0.88215540  1
  V  V7  1  0.25511981  0.37921851  0.62930928  1
  V  V8  1  0.23550426  0.75930956  0.51879524  1
  V  V9  1  -0.02560311  0.61706774  0.15052306  1
  V  V10  1  0.37105233  0.86784785  0.00118362  1
  V  V11  1  0.62868267  0.63590082  0.00267109  1
  V  V12  1  0.75319266  0.37558402  0.10900024  1
  V  V13  1  0.12061490  0.50844994  0.61449170  1
  V  V14  1  0.02619363  0.13519365  0.11720637  1
  V  V15  1  0.13196128  0.77005179  0.36302559  1
  V  V16  1  0.62536467  0.23751681  0.88326287  1
  V  V17  1  0.74231599  0.61694856  0.36711052  1
  V  V18  1  0.13153726  0.37018843  0.25480040  1
  V  V19  1  0.00039087  0.61902362  0.58672950  1
  V  V20  1  0.62285765  0.49481642  0.12574807  1
  V  V21  1  -0.00723972  0.51158911  0.00299805  1
  V  V22  1  0.60996619  0.50171066  0.62326198  1
  V  V23  1  0.12170715  0.37534089  0.76129529  1
  V  V24  1  0.87589571  0.24807232  0.12002056  1
  V  V25  1  0.50823628  0.26099107  0.25005220  1
  V  V26  1  0.00217054  -0.00453571  0.46659290  1
  V  V27  1  0.48587024  0.74091271  0.24040809  1
  V  V28  1  0.49575807  0.73493947  0.74744186  1
  V  V29  1  0.37622357  0.52135216  0.86669125  1
  V  V30  1  0.25892998  0.24341959  0.50641557  1
  V  V31  1  0.15619337  -0.01443444  0.12881829  1
  V  V32  1  0.75545275  0.62606805  0.87266115  1
  V  V33  1  0.50229180  0.87930738  0.86754709  1
  V  V34  1  0.75165159  -0.00495331  0.76047258  1
  V  V35  1  0.63503566  0.75482055  0.85948665  1
  V  V36  1  0.24973731  0.52205920  0.75174388  1
  V  V37  1  0.87960595  0.49589281  0.37798946  1
  V  V38  1  0.50251503  0.09594409  0.62696243  1
  V  V39  1  0.37941593  0.48267018  0.39079007  1
  V  V40  1  0.12091857  0.50682933  0.13051644  1
  V  V41  1  0.87240946  0.12288093  0.26339913  1
  V  V42  1  0.87445528  0.49338757  0.87894301  1
  V  V43  1  0.61643466  0.84936775  0.26027503  1
  V  V44  1  0.38976663  0.74306703  0.61047357  1
  V  V45  1  0.62005700  0.09444460  0.48993162  1
  V  V46  1  0.74379327  0.74150210  0.48784599  1
  V  V47  1  0.24215441  0.61798816  0.38830645  1
  V  V48  1  0.61442585  0.61488135  0.50043275  1
  V  V49  1  0.88014760  0.61536698  0.74156043  1
  V  V50  1  0.23609688  -0.02112442  0.74014982  1
  V  V51  1  0.47451265  0.88593657  0.38474248  1
  V  V52  1  0.39032771  0.25708241  0.64678195  1
  V  V53  1  0.74611829  0.48573996  0.24918383  1
  V  V54  1  -0.00127427  0.25223318  0.25581033  1
  V  V55  1  0.87530075  0.87542726  0.47004704  1
  V  V56  1  0.00197414  0.37406100  0.39309389  1
  V  V57  1  0.37235412  0.61817908  0.24211875  1
  V  V58  1  0.73109192  0.00766616  0.26202846  1
  V  V59  1  0.86880039  0.12969640  0.70878942  1
  V  V60  1  0.23604586  0.13364651  0.86057733  1
  V  V61  1  0.50094375  0.50493308  0.00315984  1
  V  V62  1  0.50067463  0.37572258  0.87140948  1
  V  V63  1  0.85887207  0.36377296  0.51530473  1
  V  V64  1  0.75132082  0.49380934  0.73887492  1
  V  V65  1  -0.00037264  0.76381253  0.24701896  1
  V  V66  1  0.73954459  0.87973947  0.61446407  1
  V  V67  1  0.38174668  0.01226976  0.86193515  1
  V  V68  1  0.63055741  0.36548238  0.74983989  1
  V  V69  1  0.87634054  0.74544532  0.60899047  1
  Zn  Zn70  1  0.11663887  0.11159881  0.52914961  1
  Zn  Zn71  1  0.72819117  0.87001453  0.11644607  1
  Zn  Zn72  1  0.74828524  0.22348647  0.45612354  1
  Zn  Zn73  1  0.36392942  0.38075773  -0.00901152  1
  Zn  Zn74  1  0.25328322  0.49443109  0.25413300  1
  Zn  Zn75  1  0.17273955  0.69059641  0.92164642  1
  Zn  Zn76  1  0.20633950  0.13824261  0.21374912  1
  Zn  Zn77  1  0.19644296  0.19965895  0.70037708  1
  Zn  Zn78  1  0.18763933  0.68213738  0.19081316  1
  Zn  Zn79  1  0.18831159  0.77028373  0.73124810  1
  Zn  Zn80  1  0.68697813  0.19313831  0.19398949  1
  Zn  Zn81  1  0.67733733  0.16018096  0.68240312  1
  Zn  Zn82  1  0.68870911  0.68988004  0.18397855  1
  Zn  Zn83  1  0.68992777  0.68405945  0.68019852  1
  Zn  Zn84  1  0.31770753  0.29303311  0.30701821  1
  Zn  Zn85  1  0.31268856  0.32287451  0.81313239  1
  Zn  Zn86  1  0.34028683  0.78525142  0.34170174  1
  Zn  Zn87  1  0.31664075  0.80441112  0.82652209  1
  Zn  Zn88  1  0.81067295  0.31287917  0.31218749  1
  Zn  Zn89  1  0.81532215  0.30205785  0.81191723  1
  Zn  Zn90  1  0.80435739  0.79686050  0.27347472  1
  Zn  Zn91  1  0.81709787  0.81283041  0.79490334  1
  Zn  Zn92  1  0.19670404  0.42683955  0.43999155  1
  Zn  Zn93  1  0.17437471  0.47963057  0.93174303  1
  Zn  Zn94  1  0.19571382  0.94018967  0.44536472  1
  Zn  Zn95  1  0.21018794  0.97623437  0.95280157  1
  Zn  Zn96  1  0.69652839  0.40609630  0.42795643  1
  Zn  Zn97  1  0.68656060  0.44036579  0.93505720  1
  Zn  Zn98  1  0.68431376  0.92600901  0.41762386  1
  Zn  Zn99  1  0.71125334  0.91720378  0.93017913  1
  Zn  Zn100  1  0.32327291  0.06549885  0.04064960  1
  Zn  Zn101  1  0.30142484  0.08968993  0.62066648  1
  Zn  Zn102  1  0.30938195  0.56406693  0.05846062  1
  Zn  Zn103  1  0.31615104  0.56988328  0.56584834  1
  Zn  Zn104  1  0.71130270  0.04415570  0.07868933  1
  Zn  Zn105  1  0.81051108  0.05710227  0.54042842  1
  Zn  Zn106  1  0.80834371  0.56580487  0.06106810  1
  Zn  Zn107  1  0.81095328  0.55381995  0.55297735  1
  Zn  Zn108  1  0.43414857  0.43474401  0.19350781  1
  Zn  Zn109  1  0.43792746  0.44086266  0.69232257  1
  Zn  Zn110  1  0.44675040  0.93147040  0.18406727  1
  Zn  Zn111  1  0.42458987  0.91560800  0.68713062  1
  Zn  Zn112  1  0.93265180  0.43016416  0.19407772  1
  Zn  Zn113  1  0.94336839  0.43345509  0.68561296  1
  Zn  Zn114  1  0.95764146  0.96049716  0.18818901  1
  Zn  Zn115  1  0.92318241  0.92435961  0.69312379  1
  Zn  Zn116  1  0.07252087  0.05944391  0.29958768  1
  Zn  Zn117  1  0.07060787  0.08978917  0.75166852  1
  Zn  Zn118  1  0.06452677  0.55765060  0.32013588  1
  Zn  Zn119  1  0.06336117  0.56787728  0.81348981  1
  Zn  Zn120  1  0.54085065  0.07372231  0.31075501  1
  Zn  Zn121  1  0.56788155  0.05969580  0.80089344  1
  Zn  Zn122  1  0.55512635  0.55093000  0.31379603  1
  Zn  Zn123  1  0.56842346  0.56014716  0.81392207  1
  Zn  Zn124  1  0.44787740  0.18333411  0.43965646  1
  Zn  Zn125  1  0.44237334  0.18919395  0.94101871  1
  Zn  Zn126  1  0.43269364  0.67896383  0.43220169  1
  Zn  Zn127  1  0.44865499  0.69472144  0.94182837  1
  Zn  Zn128  1  0.93767432  0.18501713  0.45227223  1
  Zn  Zn129  1  1.08017911  0.19029314  0.93555999  1
  Zn  Zn130  1  0.92779274  0.69671757  0.40067377  1
  Zn  Zn131  1  1.00676872  0.73206507  1.00053014  1
  Zn  Zn132  1  0.06340234  0.31989626  0.06100175  1
  Zn  Zn133  1  0.06738289  0.30970165  0.57577955  1
  Zn  Zn134  1  0.18533752  0.81700378  0.05417389  1
  Zn  Zn135  1  0.05388914  0.80905805  0.54386817  1
  Zn  Zn136  1  0.56136217  0.31264368  0.05978420  1
  Zn  Zn137  1  0.57428981  0.31660944  0.56494661  1
  Zn  Zn138  1  0.56270459  0.92518487  0.05849220  1
  Zn  Zn139  1  0.55943550  0.81067244  0.54996044  1
  O  O140  1  0.12165729  0.16085297  0.13384666  1
  O  O141  1  0.09778989  0.15714934  0.64321457  1
  O  O142  1  0.10830602  0.60672686  0.14303455  1
  O  O143  1  0.10703267  0.61522512  0.61163580  1
  O  O144  1  0.62928893  0.12016348  0.12003149  1
  O  O145  1  0.61260567  0.09792056  0.60938034  1
  O  O146  1  0.63765986  0.61897606  0.10813260  1
  O  O147  1  0.62892927  0.61181688  0.61354968  1
  O  O148  1  0.35579809  0.38500427  0.37072461  1
  O  O149  1  0.38729217  0.38594858  0.87364453  1
  O  O150  1  0.36954210  0.88660322  0.37518248  1
  O  O151  1  0.39195623  0.87612438  0.87485617  1
  O  O152  1  0.88424163  0.37816388  0.38626065  1
  O  O153  1  0.88771124  0.38373698  0.86198557  1
  O  O154  1  0.86207432  0.86581709  0.37396095  1
  O  O155  1  0.85510831  0.81030730  0.97278233  1
  O  O156  1  0.25585947  0.03228457  0.40084352  1
  O  O157  1  0.26123920  0.00988605  0.85456045  1
  O  O158  1  0.25036810  0.50760513  0.37724626  1
  O  O159  1  0.26828118  0.50174064  0.86354203  1
  O  O160  1  0.75666961  -0.00267749  0.36011038  1
  O  O161  1  0.77533793  -0.02690204  0.85745777  1
  O  O162  1  0.75158291  0.49444912  0.36809613  1
  O  O163  1  0.75571892  0.50583970  0.86320807  1
  O  O164  1  0.22919594  0.50004410  0.12888152  1
  O  O165  1  0.24349181  0.49982647  0.63475482  1
  O  O166  1  0.25210671  1.02019224  0.11715170  1
  O  O167  1  0.25934666  0.98943162  0.63923377  1
  O  O168  1  0.74505473  0.49342104  0.12933672  1
  O  O169  1  0.74786528  0.50270530  0.63620125  1
  O  O170  1  0.76193973  0.97635216  0.16131511  1
  O  O171  1  0.74548878  0.97812929  0.59979802  1
  O  O172  1  0.00612648  0.36555161  0.26299592  1
  O  O173  1  0.01347146  0.38610875  0.76286463  1
  O  O174  1  -0.00688810  0.86117177  0.22814328  1
  O  O175  1  -0.06999181  0.85073825  0.78383686  1
  O  O176  1  0.50868717  0.36387486  0.23939233  1
  O  O177  1  0.51654675  0.38383791  0.76156337  1
  O  O178  1  0.49381279  0.85774886  0.25771643  1
  O  O179  1  0.50226433  0.85831779  0.76110930  1
  O  O180  1  0.49699113  0.13450240  0.22198796  1
  O  O181  1  0.51808327  0.12690483  0.72391921  1
  O  O182  1  0.48321413  0.63074474  0.26448116  1
  O  O183  1  0.51219006  0.63565926  0.75046536  1
  O  O184  1  0.99599337  0.14331274  0.25190717  1
  O  O185  1  0.96306042  0.11037725  0.74468650  1
  O  O186  1  0.99125417  0.61369018  0.25157818  1
  O  O187  1  0.98705030  0.63406739  0.75214448  1
  O  O188  1  0.38836754  0.26742312  0.01162152  1
  O  O189  1  0.35886118  0.24260730  0.50016680  1
  O  O190  1  0.37905403  0.76670110  -0.01014506  1
  O  O191  1  0.35737243  0.74256418  0.50916418  1
  O  O192  1  0.85677072  0.24573252  0.00875579  1
  O  O193  1  0.86059115  0.26020544  0.49026946  1
  O  O194  1  0.89779180  0.77967330  0.03203076  1
  O  O195  1  0.86658654  0.75245407  0.48991179  1
  O  O196  1  0.12059444  0.24243904  0.49363261  1
  O  O197  1  0.13331675  0.26817576  0.99267858  1
  O  O198  1  0.13150478  0.75449369  0.47958521  1
  O  O199  1  0.11273422  0.76235071  0.98877710  1
  O  O200  1  0.66113808  0.24545259  0.54333011  1
  O  O201  1  0.63877659  0.25327193  0.99094449  1
  O  O202  1  0.63599520  0.72932427  0.50123589  1
  O  O203  1  0.62830101  0.73474435  0.98244136  1
  O  O204  1  0.49905175  0.24161959  0.12511758  1
  O  O205  1  0.48479797  0.27755317  0.61816174  1
  O  O206  1  0.49349630  0.74332888  0.14426614  1
  O  O207  1  0.49625123  0.74968704  0.63194267  1
  O  O208  1  0.99492837  0.25603708  0.13585499  1
  O  O209  1  1.03574366  0.21647770  0.63830836  1
  O  O210  1  0.99655061  0.72423144  0.14450609  1
  O  O211  1  0.98818298  0.73015561  0.60263426  1
  O  O212  1  0.00847744  0.25590738  0.37670099  1
  O  O213  1  0.00335761  0.27061306  0.88217943  1
  O  O214  1  0.02488658  0.75255966  0.36462581  1
  O  O215  1  -0.01568115  0.73433211  0.88024096  1
  O  O216  1  0.46698065  0.23956089  0.34348580  1
  O  O217  1  0.51718654  0.26349102  0.88593200  1
  O  O218  1  0.46709106  0.76322035  0.36403679  1
  O  O219  1  0.51834434  0.75270495  0.86418689  1
  O  O220  1  0.23392877  0.14314633  0.53595009  1
  O  O221  1  0.24907668  0.11160048  0.96096177  1
  O  O222  1  0.24581284  0.63425926  0.49147177  1
  O  O223  1  0.24128339  0.65596081  1.02965376  1
  O  O224  1  0.72712238  0.11644841  0.48800178  1
  O  O225  1  0.75022695  0.12786442  1.00568398  1
  O  O226  1  0.74259278  0.62372785  0.48906483  1
  O  O227  1  0.74181830  0.62046376  0.98375565  1
  O  O228  1  0.24126564  0.39764298  0.00640309  1
  O  O229  1  0.23637082  0.35515911  0.52228045  1
  O  O230  1  0.26421746  0.87618165  -0.01222402  1
  O  O231  1  0.24885111  0.85740318  0.50280020  1
  O  O232  1  0.75328938  0.37806298  0.00644363  1
  O  O233  1  0.76036530  0.38063373  0.52295237  1
  O  O234  1  0.78287683  0.84142263  -0.00241451  1
  O  O235  1  0.75597280  0.85988293  0.49399098  1
  O  O236  1  0.11945176  0.48437333  0.24577253  1
  O  O237  1  0.13587665  0.50124732  0.74062796  1
  O  O238  1  0.15766084  1.03458844  0.23329382  1
  O  O239  1  0.13641606  0.99800289  0.74653995  1
  O  O240  1  0.62894632  0.50620747  0.23458402  1
  O  O241  1  0.63404285  0.49651203  0.74129543  1
  O  O242  1  0.63185325  1.01573800  0.25867022  1
  O  O243  1  0.64991248  0.99480066  0.75648548  1
  O  O244  1  0.36040859  0.00308593  0.24547524  1
  O  O245  1  0.36673286  -0.01304237  0.76012820  1
  O  O246  1  0.37271710  0.50577071  0.26469465  1
  O  O247  1  0.36642272  0.50638491  0.75731885  1
  O  O248  1  0.88898959  0.02340292  0.25279534  1
  O  O249  1  0.85471154  0.00967224  0.71867717  1
  O  O250  1  0.86110159  0.48580969  0.26783173  1
  O  O251  1  0.87095996  0.50104507  0.75136554  1
  O  O252  1  0.11878844  0.37072398  0.37310467  1
  O  O253  1  0.11369223  0.39631239  0.86837244  1
  O  O254  1  0.14545877  0.86850595  0.36279943  1
  O  O255  1  0.05650711  0.92313447  0.88230461  1
  O  O256  1  0.57861327  0.37829903  0.40441541  1
  O  O257  1  0.62014862  0.37580177  0.86556018  1
  O  O258  1  0.59607322  0.87164016  0.36378288  1
  O  O259  1  0.62293302  0.85917297  0.87550918  1
  O  O260  1  0.36980461  0.13939888  0.11552664  1
  O  O261  1  0.39613346  0.14870847  0.62623462  1
  O  O262  1  0.37489785  0.60495120  0.14356843  1
  O  O263  1  0.35794675  0.64927131  0.63544823  1
  O  O264  1  0.89293612  0.14396537  0.14062767  1
  O  O265  1  0.86562587  0.13130452  0.60726357  1
  O  O266  1  0.87462230  0.61395709  0.13989951  1
  O  O267  1  0.88673398  0.61963276  0.61945456  1
  O  O268  1  0.26701751  0.27304231  0.11311088  1
  O  O269  1  0.26850651  0.26041157  0.62949720  1
  O  O270  1  0.24421911  0.71401406  0.09180180  1
  O  O271  1  0.21445881  0.75136859  0.61687835  1
  O  O272  1  0.75176111  0.25508445  0.11385265  1
  O  O273  1  0.70885086  0.24628739  0.61163218  1
  O  O274  1  0.76193078  0.77222769  0.16718245  1
  O  O275  1  0.76099463  0.74413371  0.60679233  1
  O  O276  1  0.23524197  0.25426379  0.39980751  1
  O  O277  1  0.26219815  0.23094391  0.85620332  1
  O  O278  1  0.24148133  0.73695939  0.37737295  1
  O  O279  1  0.22776302  0.73921981  0.83519810  1
  O  O280  1  0.72370228  0.30211072  0.38070375  1
  O  O281  1  0.74156721  0.24922533  0.88929925  1
  O  O282  1  0.75231929  0.72374648  0.37407144  1
  O  O283  1  0.74554210  0.74351717  0.85778950  1
  O  O284  1  0.01534581  0.13741104  0.01745316  1
  O  O285  1  -0.00287774  0.09812879  0.49584567  1
  O  O286  1  -0.00946373  0.61461695  0.02634540  1
  O  O287  1  -0.00822938  0.61862812  0.48943605  1
  O  O288  1  0.49927863  0.12679612  0.01922840  1
  O  O289  1  0.51002865  0.13156725  0.51889443  1
  O  O290  1  0.51866212  0.61698619  -0.00883377  1
  O  O291  1  0.51631763  0.62754402  0.49348039  1
  O  O292  1  0.53141637  0.35731750  0.46082578  1
  O  O293  1  0.50544932  0.39196682  0.98704091  1
  O  O294  1  0.49156548  0.87096385  0.48493494  1
  O  O295  1  0.49707700  0.87770196  0.97719450  1
  O  O296  1  1.00091557  0.36625310  0.49509387  1
  O  O297  1  0.99867018  0.39163683  0.98825352  1
  O  O298  1  0.98416545  0.87824708  0.48170824  1
  O  O299  1  1.00797276  0.90592720  0.93337371  1
  O  O300  1  0.47961523  0.49694799  0.37871016  1
  O  O301  1  0.49211999  0.49816070  0.87762037  1
  O  O302  1  0.48685635  0.98484785  0.35924694  1
  O  O303  1  0.49633345  0.98735377  0.85718054  1
  O  O304  1  0.98612872  0.48956724  0.37270939  1
  O  O305  1  0.98766794  0.50222221  0.88424298  1
  O  O306  1  1.00645330  0.99611859  0.36717494  1
  O  O307  1  0.93373807  1.04198475  0.89206949  1
  O  O308  1  0.03509908  0.03024169  0.14142679  1
  O  O309  1  0.02223733  -0.05187455  0.63185015  1
  O  O310  1  -0.00293727  0.50120157  0.12774587  1
  O  O311  1  0.00931939  0.51003068  0.62299349  1
  O  O312  1  0.50710130  0.00867035  0.12363688  1
  O  O313  1  0.47630202  -0.00059467  0.62701575  1
  O  O314  1  0.50854562  0.49473125  0.11228711  1
  O  O315  1  0.51082604  0.50236769  0.62851728  1
  O  O316  1  0.23888641  0.37430236  0.24323237  1
  O  O317  1  0.24058154  0.38859451  0.74635604  1
  O  O318  1  0.30362567  0.96505157  0.27208731  1
  O  O319  1  0.24257799  0.87715557  0.75683005  1
  O  O320  1  0.74512411  0.38259433  0.23404183  1
  O  O321  1  0.73875618  0.38214663  0.75950213  1
  O  O322  1  0.71830569  0.87863435  0.27634352  1
  O  O323  1  0.75942454  0.88226594  0.72270627  1
  O  O324  1  0.28240457  0.18910796  0.27039219  1
  O  O325  1  0.25281021  0.11132265  0.74765009  1
  O  O326  1  0.25918717  0.61934577  0.25955068  1
  O  O327  1  0.24358087  0.61682257  0.74584960  1
  O  O328  1  0.76311040  0.11786997  0.24497091  1
  O  O329  1  0.75628209  0.10582092  0.74531976  1
  O  O330  1  0.74046170  0.60919242  0.26312189  1
  O  O331  1  0.76013973  0.61526094  0.75013778  1
  O  O332  1  0.36599245  0.10257178  0.38746926  1
  O  O333  1  0.38971068  0.11338043  0.86826800  1
  O  O334  1  0.35805658  0.61325108  0.37215541  1
  O  O335  1  0.38314737  0.61894922  0.87641092  1
  O  O336  1  0.87498249  0.13979134  0.36247047  1
  O  O337  1  0.88574976  0.09509065  0.90308811  1
  O  O338  1  0.85812745  0.60181684  0.38220465  1
  O  O339  1  0.86483671  0.61118776  0.85871759  1
  O  O340  1  0.13206340  0.38055663  0.13640801  1
  O  O341  1  0.12802523  0.38771721  0.64127594  1
  O  O342  1  0.16211676  0.88540760  0.14417680  1
  O  O343  1  0.07575421  0.89015658  0.62938236  1
  O  O344  1  0.63529887  0.38829279  0.11337482  1
  O  O345  1  0.62279482  0.38842907  0.64244733  1
  O  O346  1  0.60963509  0.87555955  0.15881658  1
  O  O347  1  0.64253864  0.85709884  0.61212248  1
  O  O348  1  0.11670547  0.25785712  0.27065054  1
  O  O349  1  0.13274393  0.27680361  0.75936635  1
  O  O350  1  0.11842805  0.74839339  0.25518277  1
  O  O351  1  0.07305766  0.77465882  0.74734942  1
  O  O352  1  0.60903734  0.24434218  0.25451111  1
  O  O353  1  0.63475928  0.26189303  0.76483852  1
  O  O354  1  0.60585376  0.74399580  0.25796257  1
  O  O355  1  0.62428017  0.74520031  0.75537831  1
  O  O356  1  0.38963170  0.27567042  0.21284379  1
  O  O357  1  0.38840325  0.26097491  0.74563277  1
  O  O358  1  0.37170239  0.73044074  0.24367257  1
  O  O359  1  0.39690178  0.74014054  0.76180765  1
  O  O360  1  0.88036536  0.24863485  0.24676562  1
  O  O361  1  0.85269212  0.22655066  0.73975517  1
  O  O362  1  0.90385435  0.74074655  0.28306364  1
  O  O363  1  0.87457915  0.72894361  0.72680649  1
  O  O364  1  0.36333552  0.49805672  0.49167215  1
  O  O365  1  0.38192554  0.50559412  0.98539733  1
  O  O366  1  0.33073347  1.04586715  0.42748757  1
  O  O367  1  0.37355652  0.98819440  0.96917304  1
  O  O368  1  0.86983761  0.48121644  0.48599319  1
  O  O369  1  0.87609202  0.50406757  0.98707717  1
  O  O370  1  0.88450509  0.98229940  0.48891337  1
  O  O371  1  0.88868771  0.97894197  1.02726797  1
  O  O372  1  0.12822519  -0.00839013  0.02706767  1
  O  O373  1  0.10574731  -0.00609654  0.49543893  1
  O  O374  1  0.10605082  0.49482850  0.02619221  1
  O  O375  1  0.13397717  0.48947612  0.51809138  1
  O  O376  1  0.67188846  -0.05232542  0.02973238  1
  O  O377  1  0.61829723  -0.00470044  0.48324769  1
  O  O378  1  0.62039186  0.51047576  0.00326368  1
  O  O379  1  0.62837355  0.50245039  0.51631311  1
  O  O380  1  0.35097646  0.40271890  0.11704600  1
  O  O381  1  0.36321731  0.37442289  0.63440853  1
  O  O382  1  0.38563755  0.88623414  0.09911078  1
  O  O383  1  0.35704916  0.83340836  0.64395215  1
  O  O384  1  0.86503063  0.36113442  0.13064226  1
  O  O385  1  0.89247061  0.36829544  0.61084650  1
  O  O386  1  0.91263657  0.92790977  0.07557929  1
  O  O387  1  0.86712035  0.85598857  0.60545150  1
  O  O388  1  0.12219157  0.13709033  0.37700883  1
  O  O389  1  0.12927444  0.13112167  0.85097257  1
  O  O390  1  0.14024883  0.62470457  0.36918041  1
  O  O391  1  0.13475359  0.58706614  0.89663332  1
  O  O392  1  0.59572743  0.12973914  0.39637775  1
  O  O393  1  0.61573265  0.13990132  0.87309381  1
  O  O394  1  0.63524437  0.60282313  0.38823070  1
  O  O395  1  0.63852602  0.63174075  0.87621990  1
