# generated using pymatgen
data_V35Zn35O128
_symmetry_space_group_name_H-M   'P 1'
_cell_length_a   16.86375837
_cell_length_b   16.86632666
_cell_length_c   16.84600551
_cell_angle_alpha   89.91211876
_cell_angle_beta   89.96527743
_cell_angle_gamma   89.95404040
_symmetry_Int_Tables_number   1
_chemical_formula_structural   V35Zn35O128
_chemical_formula_sum   'V70 Zn70 O256'
_cell_volume   4791.49551797
_cell_formula_units_Z   2
loop_
 _symmetry_equiv_pos_site_id
 _symmetry_equiv_pos_as_xyz
  1  'x, y, z'
loop_
 _atom_site_type_symbol
 _atom_site_label
 _atom_site_symmetry_multiplicity
 _atom_site_fract_x
 _atom_site_fract_y
 _atom_site_fract_z
 _atom_site_occupancy
  V  V0  1  0.15170504  0.12430879  0.49310826  1
  V  V1  1  0.11457171  0.87361591  0.25769754  1
  V  V2  1  0.88408583  0.86343744  0.00335631  1
  V  V3  1  0.23070865  0.74636734  0.00417443  1
  V  V4  1  0.24845933  0.63990106  0.37967285  1
  V  V5  1  0.24675693  0.61314982  0.86883954  1
  V  V6  1  0.37165111  0.86297259  0.50473506  1
  V  V7  1  0.37023545  0.62800496  0.24979538  1
  V  V8  1  0.01650082  0.36807909  0.35994357  1
  V  V9  1  0.38826519  0.73325166  0.64771223  1
  V  V10  1  0.63159947  0.48281544  0.12246737  1
  V  V11  1  0.49942578  0.25794731  0.25979061  1
  V  V12  1  0.51186952  0.12641554  0.63841249  1
  V  V13  1  0.87454219  0.00818832  0.90004707  1
  V  V14  1  0.61019799  0.50475040  0.62949242  1
  V  V15  1  0.62537775  0.12741889  0.49504889  1
  V  V16  1  0.75619203  0.62650810  0.87379789  1
  V  V17  1  0.62812127  0.61973001  0.49850470  1
  V  V18  1  0.75989557  0.50868225  0.75216615  1
  V  V19  1  0.75162246  0.00495649  0.24695440  1
  V  V20  1  0.15706288  0.24517089  0.35247017  1
  V  V21  1  0.24233081  0.38602337  0.62437504  1
  V  V22  1  0.90621698  0.25278987  0.12635163  1
  V  V23  1  0.37569269  0.12691191  0.24476723  1
  V  V24  1  0.51230722  -0.00700294  0.00597751  1
  V  V25  1  0.25450435  0.87938815  0.65116103  1
  V  V26  1  0.48474666  0.49435972  -0.00566436  1
  V  V27  1  0.36737550  0.24562955  0.62682439  1
  V  V28  1  0.62361818  0.63034318  0.00507495  1
  V  V29  1  0.61983877  0.35937927  0.76184909  1
  V  V30  1  0.87350319  0.62711836  0.27185355  1
  V  V31  1  0.73277248  0.25615280  0.00854322  1
  V  V32  1  0.74641032  0.87105673  0.63060752  1
  V  V33  1  0.74623244  0.87856835  0.11189984  1
  V  V34  1  0.01029361  0.24974974  0.76351221  1
  V  V35  1  0.49990521  0.87154890  0.86398102  1
  V  V36  1  0.36733287  -0.00380465  0.88170268  1
  V  V37  1  0.51284745  0.12626563  0.11946898  1
  V  V38  1  0.48230057  0.35770224  0.87722007  1
  V  V39  1  0.35347191  0.11866295  0.75582858  1
  V  V40  1  0.51320418  -0.00195145  0.50583380  1
  V  V41  1  0.74698391  0.25232419  0.49794290  1
  V  V42  1  0.37319703  0.48854067  0.37188884  1
  V  V43  1  0.49919874  0.74878746  0.24745644  1
  V  V44  1  0.74579086  0.37126281  0.62473375  1
  V  V45  1  0.24766666  0.88339503  0.12309548  1
  V  V46  1  0.87454420  0.11703171  0.73832027  1
  V  V47  1  0.49242997  0.49130479  0.49418725  1
  V  V48  1  0.26596984  0.27564653  0.01827688  1
  V  V49  1  0.38070441  0.00154138  0.37556323  1
  V  V50  1  0.12168127  0.75545627  0.85755538  1
  V  V51  1  -0.01277467  0.39968960  0.87379535  1
  V  V52  1  0.74887179  0.12886918  0.36933088  1
  V  V53  1  0.88447595  0.74914599  0.13974779  1
  V  V54  1  0.00445854  0.48638401  0.50687030  1
  V  V55  1  0.88496793  0.25820825  0.62286435  1
  V  V56  1  0.23028853  0.49433634  0.24301880  1
  V  V57  1  0.50704767  0.87164607  0.37831212  1
  V  V58  1  0.63710013  0.73517531  0.37274675  1
  V  V59  1  0.63217795  0.37359819  0.26114417  1
  V  V60  1  0.73824363  0.13098347  0.87891406  1
  V  V61  1  0.61345227  0.74363175  0.85710521  1
  V  V62  1  0.62973688  0.88024537  0.24686522  1
  V  V63  1  0.11942906  0.62362322  0.50990318  1
  V  V64  1  0.24479690  0.00159351  0.25946614  1
  V  V65  1  0.89052561  0.12842767  0.24780433  1
  V  V66  1  0.37284757  0.75563433  0.11528898  1
  V  V67  1  -0.00315461  0.87632882  0.84959625  1
  V  V68  1  0.09937018  0.75345262  0.37719698  1
  V  V69  1  0.86747419  0.48415530  0.37462473  1
  Zn  Zn70  1  0.49791239  0.62132355  0.12268564  1
  Zn  Zn71  1  0.19839887  0.15892508  0.92971529  1
  Zn  Zn72  1  0.36938335  0.35073148  0.48296142  1
  Zn  Zn73  1  0.14092643  0.39600767  0.76617223  1
  Zn  Zn74  1  0.87555243  0.37423838  0.00771269  1
  Zn  Zn75  1  -0.00085932  -0.00322986  0.49023471  1
  Zn  Zn76  1  0.12752464  0.22069280  0.13784301  1
  Zn  Zn77  1  0.18290813  0.18148915  0.67744384  1
  Zn  Zn78  1  0.17586316  0.68548275  0.19191202  1
  Zn  Zn79  1  0.21014234  0.69802222  0.67927834  1
  Zn  Zn80  1  0.68202827  0.19418901  0.18543630  1
  Zn  Zn81  1  0.69128807  0.18133490  0.69042781  1
  Zn  Zn82  1  0.69722624  0.68990101  0.18669433  1
  Zn  Zn83  1  0.91534932  0.68236001  0.66836370  1
  Zn  Zn84  1  0.29799441  0.30836204  0.20082216  1
  Zn  Zn85  1  0.30417352  0.30320004  0.81417633  1
  Zn  Zn86  1  0.31374610  0.81832496  0.31294132  1
  Zn  Zn87  1  0.32088994  0.80558885  0.82033658  1
  Zn  Zn88  1  0.81713799  0.30948581  0.30758602  1
  Zn  Zn89  1  0.81001352  0.31653145  0.80395930  1
  Zn  Zn90  1  0.82011405  0.81746716  0.31993279  1
  Zn  Zn91  1  0.80788747  0.80596514  0.81643106  1
  Zn  Zn92  1  0.19209344  0.43362642  0.43795707  1
  Zn  Zn93  1  0.17280676  0.43861164  0.95357459  1
  Zn  Zn94  1  0.18871815  0.93736634  0.44068458  1
  Zn  Zn95  1  0.17789596  0.93662033  0.93480847  1
  Zn  Zn96  1  0.68251942  0.43416911  0.43927079  1
  Zn  Zn97  1  0.68726607  0.43644491  0.94062520  1
  Zn  Zn98  1  0.70974076  0.92889412  0.42654147  1
  Zn  Zn99  1  0.67459997  0.94821119  0.90519837  1
  Zn  Zn100  1  0.31449331  0.06142394  0.06506525  1
  Zn  Zn101  1  0.32081772  0.05531342  0.56541100  1
  Zn  Zn102  1  0.30300887  0.56626864  0.06225205  1
  Zn  Zn103  1  0.30818135  0.56099449  0.56212805  1
  Zn  Zn104  1  0.80402531  0.07513986  0.06952550  1
  Zn  Zn105  1  0.81198930  0.06410685  0.56060857  1
  Zn  Zn106  1  0.79689693  0.58022972  0.08059104  1
  Zn  Zn107  1  0.80892067  0.54553557  0.56005129  1
  Zn  Zn108  1  0.43886425  0.44103230  0.18273070  1
  Zn  Zn109  1  0.43639458  0.42703869  0.69297533  1
  Zn  Zn110  1  0.43825619  0.93769070  0.18435798  1
  Zn  Zn111  1  0.43560656  0.94186684  0.68829791  1
  Zn  Zn112  1  0.93926554  0.44049962  0.19339210  1
  Zn  Zn113  1  0.97582978  0.50545141  0.72174807  1
  Zn  Zn114  1  0.93692238  0.94983717  0.18541503  1
  Zn  Zn115  1  0.94374313  0.94240952  0.65094376  1
  Zn  Zn116  1  0.05505638  0.07416833  0.34786355  1
  Zn  Zn117  1  0.03862963  0.07367431  0.82237196  1
  Zn  Zn118  1  0.04966511  0.56647399  0.31461767  1
  Zn  Zn119  1  0.10681672  0.59511108  0.76694765  1
  Zn  Zn120  1  0.56428884  0.06616875  0.31307152  1
  Zn  Zn121  1  0.56357925  0.05708691  0.81836321  1
  Zn  Zn122  1  0.55986974  0.55457152  0.30844252  1
  Zn  Zn123  1  0.56497825  0.55279571  0.81914129  1
  Zn  Zn124  1  0.43735003  0.18346707  0.43824907  1
  Zn  Zn125  1  0.40550045  0.18015288  0.95558246  1
  Zn  Zn126  1  0.44348843  0.67852349  0.44043100  1
  Zn  Zn127  1  0.43171927  0.68268471  0.93446134  1
  Zn  Zn128  1  0.93466230  0.19276743  0.43614425  1
  Zn  Zn129  1  0.89845751  0.22388908  0.91273284  1
  Zn  Zn130  1  0.90923435  0.65802999  0.47690885  1
  Zn  Zn131  1  0.94431807  0.67741851  0.82733412  1
  Zn  Zn132  1  0.07381524  0.29164386  -0.04024115  1
  Zn  Zn133  1  0.07606897  0.30088777  0.54709558  1
  Zn  Zn134  1  0.06127039  0.81975898  0.06989118  1
  Zn  Zn135  1  0.08219390  0.82276418  0.55996314  1
  Zn  Zn136  1  0.54510918  0.30853753  0.06221916  1
  Zn  Zn137  1  0.55744312  0.31093495  0.56447419  1
  Zn  Zn138  1  0.56207063  0.81576059  0.05885402  1
  Zn  Zn139  1  0.56311645  0.80104011  0.56608175  1
  O  O140  1  0.11067135  0.09343297  0.12489767  1
  O  O141  1  0.12253764  0.13889718  0.59226851  1
  O  O142  1  0.11267028  0.64580833  0.11126986  1
  O  O143  1  0.13618193  0.63774189  0.60806283  1
  O  O144  1  0.61235847  0.11842759  0.13044551  1
  O  O145  1  0.61843299  0.12403521  0.61698139  1
  O  O146  1  0.62616561  0.61903257  0.11529572  1
  O  O147  1  0.62024553  0.60680767  0.61019525  1
  O  O148  1  0.36704150  0.39004952  0.37037103  1
  O  O149  1  0.38617552  0.37689248  0.85601837  1
  O  O150  1  0.39070515  0.87858361  0.38170755  1
  O  O151  1  0.38969683  0.88381153  0.87574845  1
  O  O152  1  0.88774684  0.38162255  0.36582688  1
  O  O153  1  0.88714950  0.35374442  0.87981608  1
  O  O154  1  0.81637189  0.88620383  0.40531171  1
  O  O155  1  0.87380600  0.88324209  0.88681598  1
  O  O156  1  0.26775108  -0.01218025  0.36517310  1
  O  O157  1  0.26835175  -0.01277257  0.88390187  1
  O  O158  1  0.25932759  0.51178337  0.36429567  1
  O  O159  1  0.23200789  0.51728390  0.89348485  1
  O  O160  1  0.74390106  0.01929867  0.36148603  1
  O  O161  1  0.76801122  0.01639779  0.88444962  1
  O  O162  1  0.76786619  0.48577687  0.38398757  1
  O  O163  1  0.74216412  0.50864168  0.86212804  1
  O  O164  1  0.24739791  0.51551867  0.14428102  1
  O  O165  1  0.25646367  0.48631312  0.63152636  1
  O  O166  1  0.25697515  0.98867589  0.13830293  1
  O  O167  1  0.26431472  0.97877186  0.62529399  1
  O  O168  1  0.73183817  0.49489857  0.11693419  1
  O  O169  1  0.73618266  0.49039025  0.63284448  1
  O  O170  1  0.75062916  0.99117106  0.13418525  1
  O  O171  1  0.74644851  0.97659232  0.61903614  1
  O  O172  1  0.01325893  0.38305499  0.26025241  1
  O  O173  1  -0.00240107  0.35512757  0.76695362  1
  O  O174  1  0.01699661  0.89017007  0.24647178  1
  O  O175  1  -0.01105342  0.88346740  0.75146046  1
  O  O176  1  0.50022748  0.36057297  0.24652884  1
  O  O177  1  0.51128887  0.37343712  0.76330464  1
  O  O178  1  0.50888172  0.86787278  0.25603552  1
  O  O179  1  0.50175758  0.88122281  0.76481668  1
  O  O180  1  0.49552130  0.12806099  0.24403623  1
  O  O181  1  0.51096182  0.11771680  0.73875275  1
  O  O182  1  0.49083731  0.63495624  0.24880445  1
  O  O183  1  0.46097098  0.58525025  0.75522232  1
  O  O184  1  0.98800762  0.11842702  0.25861579  1
  O  O185  1  0.98545388  0.13774767  0.74512620  1
  O  O186  1  0.97580942  0.62786406  0.25179906  1
  O  O187  1  0.99368935  0.62509155  0.73719233  1
  O  O188  1  0.36831806  0.27625200  0.01385445  1
  O  O189  1  0.38342411  0.24113335  0.51904785  1
  O  O190  1  0.36418118  0.74773847  0.01159924  1
  O  O191  1  0.38725669  0.76302903  0.49495262  1
  O  O192  1  0.87747634  0.24512393  0.02214798  1
  O  O193  1  0.86303001  0.24343946  0.51549424  1
  O  O194  1  0.87087757  0.76588549  0.01286002  1
  O  O195  1  0.93464211  0.77183551  0.51757674  1
  O  O196  1  0.12829187  0.23369215  0.47144343  1
  O  O197  1  0.14248363  0.22693664  1.01591049  1
  O  O198  1  0.11746104  0.73967786  0.48660920  1
  O  O199  1  0.12934120  0.75883153  0.99958039  1
  O  O200  1  0.63344527  0.23913308  0.50694013  1
  O  O201  1  0.63381283  0.25986820  1.00013362  1
  O  O202  1  0.61711012  0.73081206  0.48563515  1
  O  O203  1  0.61877507  0.73186466  1.00278542  1
  O  O204  1  0.49953014  0.23233898  0.13496007  1
  O  O205  1  0.49423782  0.23158886  0.62608623  1
  O  O206  1  0.49206445  0.75330311  0.13392281  1
  O  O207  1  0.48758897  0.74740935  0.62550827  1
  O  O208  1  1.00434085  0.24357534  0.12651505  1
  O  O209  1  0.98676015  0.26193468  0.62395170  1
  O  O210  1  0.98281017  0.76725877  0.13291389  1
  O  O211  1  0.97325265  0.76244739  0.58417380  1
  O  O212  1  -0.00659363  0.26939322  0.37332668  1
  O  O213  1  0.00821203  0.23323541  0.86952530  1
  O  O214  1  0.00316259  0.75177679  0.37429938  1
  O  O215  1  0.01021254  0.76431436  0.86962875  1
  O  O216  1  0.49439245  0.24571430  0.35967472  1
  O  O217  1  0.48518897  0.25968829  0.89205076  1
  O  O218  1  0.50578526  0.75545292  0.36418350  1
  O  O219  1  0.50096284  0.76077504  0.88331194  1
  O  O220  1  0.25331535  0.11753939  0.49772406  1
  O  O221  1  0.29179614  0.14469029  0.99545059  1
  O  O222  1  0.23724183  0.61740663  0.48339720  1
  O  O223  1  0.24170795  0.64340604  0.99517974  1
  O  O224  1  0.74435461  0.12873988  0.49250361  1
  O  O225  1  0.75045136  0.13804950  0.98944216  1
  O  O226  1  0.72570355  0.60394291  0.49250938  1
  O  O227  1  0.73137192  0.61438335  0.98641564  1
  O  O228  1  0.23829763  0.37410127  0.01842472  1
  O  O229  1  0.26186675  0.37900470  0.51487024  1
  O  O230  1  0.23716208  0.87480934  0.01897812  1
  O  O231  1  0.27182854  0.87509160  0.49410402  1
  O  O232  1  0.75876277  0.36087903  -0.00926750  1
  O  O233  1  0.73788616  0.36454382  0.51308078  1
  O  O234  1  0.75670311  0.88648674  0.01059462  1
  O  O235  1  0.73759371  0.86358843  0.52435594  1
  O  O236  1  0.13261597  0.51404738  0.25694817  1
  O  O237  1  0.08864617  0.48994098  0.73766283  1
  O  O238  1  0.14208727  0.99005798  0.26677303  1
  O  O239  1  0.11670723  1.00851827  0.73793847  1
  O  O240  1  0.61385007  0.48561484  0.23397578  1
  O  O241  1  0.62577822  0.49721532  0.73791043  1
  O  O242  1  0.62973097  0.98577158  0.25572294  1
  O  O243  1  0.64313679  0.98245179  0.79725801  1
  O  O244  1  0.37548260  -0.00104166  0.26033685  1
  O  O245  1  0.38070791  0.01112956  0.76196647  1
  O  O246  1  0.37502868  0.51376940  0.25826887  1
  O  O247  1  0.40610402  0.53265413  0.75167411  1
  O  O248  1  0.86321239  0.01662979  0.24471187  1
  O  O249  1  0.88664936  0.01716834  0.72872081  1
  O  O250  1  0.87922930  0.51055560  0.26659274  1
  O  O251  1  0.85760625  0.49796415  0.73808300  1
  O  O252  1  0.12381725  0.36029137  0.37600941  1
  O  O253  1  0.10252511  0.38326994  0.87895527  1
  O  O254  1  0.12683576  0.86277571  0.37163575  1
  O  O255  1  0.10412649  0.87433173  0.87097824  1
  O  O256  1  0.61716209  0.38595921  0.35990737  1
  O  O257  1  0.61898958  0.37698775  0.86452133  1
  O  O258  1  0.62325830  0.86006169  0.36900573  1
  O  O259  1  0.61392209  0.85177293  0.88348906  1
  O  O260  1  0.38966357  0.10942391  0.14309221  1
  O  O261  1  0.38540264  0.12481761  0.63925260  1
  O  O262  1  0.37377256  0.63809697  0.13559335  1
  O  O263  1  0.36746210  0.63678766  0.62075347  1
  O  O264  1  0.87787859  0.13399025  0.13843683  1
  O  O265  1  0.85898167  0.14404847  0.63542704  1
  O  O266  1  0.87653380  0.64867667  0.12108213  1
  O  O267  1  0.86387874  0.64049345  0.58099710  1
  O  O268  1  0.24325030  0.24535302  0.12317365  1
  O  O269  1  0.26571662  0.24434608  0.62373212  1
  O  O270  1  0.25296828  0.75909619  0.11767397  1
  O  O271  1  0.28101471  0.76809793  0.62730791  1
  O  O272  1  0.74915210  0.24674129  0.10993090  1
  O  O273  1  0.74961026  0.25556867  0.61917105  1
  O  O274  1  0.76324297  0.77303479  0.13159270  1
  O  O275  1  0.74644592  0.76633060  0.63705344  1
  O  O276  1  0.25349049  0.25772583  0.35451530  1
  O  O277  1  0.24516291  0.26161627  0.90215964  1
  O  O278  1  0.25378324  0.74085685  0.37628085  1
  O  O279  1  0.23555185  0.76641772  0.89252833  1
  O  O280  1  0.75467799  0.24716938  0.38937750  1
  O  O281  1  0.77071299  0.23689863  0.88646284  1
  O  O282  1  0.73454088  0.74133960  0.36880407  1
  O  O283  1  0.72951976  0.73481635  0.86569003  1
  O  O284  1  0.03573335  0.07656244  0.11270921  1
  O  O285  1  0.00683652  0.11007292  0.45905611  1
  O  O286  1  -0.05716441  0.54849471  -0.00140168  1
  O  O287  1  0.01535403  0.61161453  0.49620070  1
  O  O288  1  0.49352821  0.11812921  0.01491456  1
  O  O289  1  0.51033762  0.11624529  0.50469170  1
  O  O290  1  0.50810160  0.61504042  -0.00181841  1
  O  O291  1  0.51023992  0.60334393  0.49402165  1
  O  O292  1  0.48843594  0.38426578  0.50382553  1
  O  O293  1  0.49686312  0.38462737  0.98963237  1
  O  O294  1  0.50441890  0.87836530  0.49368799  1
  O  O295  1  0.49942400  0.88763534  0.99797153  1
  O  O296  1  1.01280382  0.38322374  0.48832810  1
  O  O297  1  0.99435570  0.37801478  0.98002247  1
  O  O298  1  1.02054978  0.91648164  0.56963897  1
  O  O299  1  0.98614871  0.87524450  0.99725481  1
  O  O300  1  0.48259538  0.50058986  0.37688061  1
  O  O301  1  0.50002045  0.49185095  0.89008457  1
  O  O302  1  0.50115490  0.98773432  0.38044880  1
  O  O303  1  0.49610101  0.98816320  0.88538908  1
  O  O304  1  0.99665118  0.48633189  0.38175243  1
  O  O305  1  0.97086456  0.49502924  0.85914365  1
  O  O306  1  0.99145176  0.98558244  0.37713743  1
  O  O307  1  0.97924048  0.98576059  0.86956689  1
  O  O308  1  0.01876999  -0.00194115  0.11011717  1
  O  O309  1  0.09550334  0.01046994  0.66715001  1
  O  O310  1  0.01491004  0.51043048  0.12539319  1
  O  O311  1  -0.01296779  0.48926202  0.60430831  1
  O  O312  1  0.50108360  0.00298372  0.11425745  1
  O  O313  1  0.49764511  0.01174840  0.61514816  1
  O  O314  1  0.50841411  0.50281845  0.11267557  1
  O  O315  1  0.50689077  0.49129523  0.61961122  1
  O  O316  1  0.24165904  0.39487465  0.25077802  1
  O  O317  1  0.24465657  0.36209610  0.73470182  1
  O  O318  1  0.24534102  0.88327938  0.24550889  1
  O  O319  1  0.26498706  0.87847842  0.75153546  1
  O  O320  1  0.73139252  0.36351161  0.25154566  1
  O  O321  1  0.73551698  0.38480666  0.74693312  1
  O  O322  1  0.74545766  0.88664763  0.24495373  1
  O  O323  1  0.75156482  0.87897610  0.73461665  1
  O  O324  1  0.26874607  0.10466925  0.24697916  1
  O  O325  1  0.25317784  0.11927399  0.74999970  1
  O  O326  1  0.25534949  0.62819581  0.26098395  1
  O  O327  1  0.22777448  0.61900694  0.76453062  1
  O  O328  1  0.74371069  0.12162370  0.25320179  1
  O  O329  1  0.76570883  0.13166570  0.76608817  1
  O  O330  1  0.77350851  0.62328987  0.23621189  1
  O  O331  1  0.74772165  0.61230027  0.76093050  1
  O  O332  1  0.38796501  0.10835377  0.36387618  1
  O  O333  1  0.37966848  0.11242466  0.86131216  1
  O  O334  1  0.36417733  0.62643356  0.36762713  1
  O  O335  1  0.34551712  0.63558047  0.87733569  1
  O  O336  1  0.85908658  0.13776456  0.35702357  1
  O  O337  1  0.88206136  0.11133829  0.86749011  1
  O  O338  1  0.86885080  0.62271180  0.37551640  1
  O  O339  1  0.85410564  0.63343393  0.88533111  1
  O  O340  1  0.07277098  0.46984274  0.08997992  1
  O  O341  1  0.14199964  0.36517635  0.61745185  1
  O  O342  1  0.13866983  0.87043205  0.14465197  1
  O  O343  1  0.15669050  0.85592809  0.63616357  1
  O  O344  1  0.61767367  0.38070191  0.12677186  1
  O  O345  1  0.62621798  0.37982954  0.63679545  1
  O  O346  1  0.63782998  0.86745464  0.13271493  1
  O  O347  1  0.64019575  0.86823860  0.63159961  1
  O  O348  1  0.12897859  0.24254048  0.25372816  1
  O  O349  1  0.10885466  0.24047732  0.74366063  1
  O  O350  1  0.12616122  0.76382509  0.26426975  1
  O  O351  1  0.13371871  0.75459882  0.75935278  1
  O  O352  1  0.61067988  0.26170786  0.24781875  1
  O  O353  1  0.63107417  0.26128773  0.75091404  1
  O  O354  1  0.61948546  0.75290575  0.25599057  1
  O  O355  1  0.60239718  0.73627123  0.76245918  1
  O  O356  1  0.38261532  0.23160982  0.24902726  1
  O  O357  1  0.37258700  0.22742145  0.74328976  1
  O  O358  1  0.38170209  0.74676648  0.24510421  1
  O  O359  1  0.38277546  0.74055485  0.74954840  1
  O  O360  1  0.87562855  0.23980192  0.23654591  1
  O  O361  1  0.88437544  0.24489336  0.74011764  1
  O  O362  1  0.87212210  0.74728112  0.24883124  1
  O  O363  1  0.88311269  0.74836456  0.75589166  1
  O  O364  1  0.37693418  0.50589597  0.48243944  1
  O  O365  1  0.38660207  0.51081754  1.00639836  1
  O  O366  1  0.39234553  0.98811175  0.49178581  1
  O  O367  1  0.38825979  1.00505542  0.98625033  1
  O  O368  1  0.89060083  0.50233610  0.48327276  1
  O  O369  1  0.88109165  0.50913714  1.01600766  1
  O  O370  1  0.90193404  1.00056635  0.55411727  1
  O  O371  1  0.87759352  1.00383257  1.00070057  1
  O  O372  1  0.11401356  0.02911297  -0.03595153  1
  O  O373  1  0.12482635  0.01789036  0.48321012  1
  O  O374  1  0.10689807  0.51000300  0.03142442  1
  O  O375  1  0.11821022  0.51157444  0.49373597  1
  O  O376  1  0.61157854  0.00061961  -0.00954132  1
  O  O377  1  0.61990083  0.00719026  0.49041516  1
  O  O378  1  0.61478103  0.50393983  0.00850025  1
  O  O379  1  0.61329319  0.49730957  0.50826709  1
  O  O380  1  0.37021278  0.36885906  0.13726257  1
  O  O381  1  0.37039148  0.35431111  0.63548826  1
  O  O382  1  0.35987446  0.86587276  0.13463178  1
  O  O383  1  0.38084014  0.87011840  0.61369368  1
  O  O384  1  0.88961646  0.35967627  0.12827491  1
  O  O385  1  0.85462293  0.36130033  0.63228094  1
  O  O386  1  0.86833526  0.87840382  0.11805935  1
  O  O387  1  0.84990278  0.86668944  0.62091102  1
  O  O388  1  0.14748104  0.13515729  0.37082757  1
  O  O389  1  0.12651776  0.07801522  0.89514377  1
  O  O390  1  0.13226177  0.64063257  0.37409230  1
  O  O391  1  0.12992930  0.65090507  0.87744188  1
  O  O392  1  0.63192554  0.12949645  0.38434299  1
  O  O393  1  0.64023431  0.13285743  0.86902226  1
  O  O394  1  0.61833464  0.62913971  0.37654155  1
  O  O395  1  0.62062327  0.63087986  0.88404883  1
