# generated using pymatgen
data_V35Zn35O128
_symmetry_space_group_name_H-M   'P 1'
_cell_length_a   16.83085788
_cell_length_b   16.86394742
_cell_length_c   16.84178471
_cell_angle_alpha   89.95070195
_cell_angle_beta   89.94681938
_cell_angle_gamma   90.01445806
_symmetry_Int_Tables_number   1
_chemical_formula_structural   V35Zn35O128
_chemical_formula_sum   'V70 Zn70 O256'
_cell_volume   4780.27896510
_cell_formula_units_Z   2
loop_
 _symmetry_equiv_pos_site_id
 _symmetry_equiv_pos_as_xyz
  1  'x, y, z'
loop_
 _atom_site_type_symbol
 _atom_site_label
 _atom_site_symmetry_multiplicity
 _atom_site_fract_x
 _atom_site_fract_y
 _atom_site_fract_z
 _atom_site_occupancy
  V  V0  1  0.48419518  0.74156456  0.24621352  1
  V  V1  1  0.50464654  0.50135479  0.00026436  1
  V  V2  1  0.85926891  0.61824502  0.25208010  1
  V  V3  1  0.00924484  0.62035532  0.61286929  1
  V  V4  1  0.10348003  0.23426545  0.39840645  1
  V  V5  1  0.37576095  0.36625083  0.01035920  1
  V  V6  1  0.25159136  0.00052764  0.75010811  1
  V  V7  1  0.87828644  0.37442626  -0.00669608  1
  V  V8  1  0.22580499  0.37576741  0.15396486  1
  V  V9  1  0.48324160  0.25086903  0.24812058  1
  V  V10  1  0.11150057  0.36874681  0.76165158  1
  V  V11  1  0.75395472  0.63210970  0.87342010  1
  V  V12  1  0.49097183  0.12329715  0.13200498  1
  V  V13  1  0.74437164  0.37758645  0.13600172  1
  V  V14  1  0.49958399  -0.01651133  0.49131175  1
  V  V15  1  0.62676935  -0.00155158  0.12095333  1
  V  V16  1  0.38023005  0.00518465  0.88008806  1
  V  V17  1  0.63200215  0.25274617  0.36311376  1
  V  V18  1  0.52280151  0.76005342  0.75805936  1
  V  V19  1  0.75910980  0.86752612  0.12345899  1
  V  V20  1  0.25186859  0.49620017  0.73785190  1
  V  V21  1  0.47895054  0.36046331  0.39364710  1
  V  V22  1  0.12970939  0.00590028  0.13137074  1
  V  V23  1  0.01000646  0.49836722  -0.00272593  1
  V  V24  1  0.26586414  0.87687417  0.61852022  1
  V  V25  1  0.51321430  0.87673516  0.88186666  1
  V  V26  1  0.75156377  0.24770098  -0.00292963  1
  V  V27  1  0.50031625  0.37408838  0.86885670  1
  V  V28  1  0.63248062  -0.01983494  0.62471426  1
  V  V29  1  0.26693980  0.72944679  0.50016482  1
  V  V30  1  0.12186929  0.48972841  0.60868047  1
  V  V31  1  0.36431058  0.86455755  -0.00475541  1
  V  V32  1  0.00147082  0.61212165  0.13182025  1
  V  V33  1  0.12123070  0.74166452  0.36833770  1
  V  V34  1  0.87340853  0.50033272  0.87228034  1
  V  V35  1  0.62457241  0.63376497  -0.00379747  1
  V  V36  1  0.50118260  0.25029460  0.74292412  1
  V  V37  1  0.09005490  0.36383003  0.26974744  1
  V  V38  1  0.24064959  0.62951398  0.87514847  1
  V  V39  1  0.13101416  0.87139267  0.74781981  1
  V  V40  1  0.12225933  0.13279411  -0.01207289  1
  V  V41  1  0.61616428  0.72542182  0.37379332  1
  V  V42  1  0.75196193  0.74897959  0.48003423  1
  V  V43  1  0.74550587  0.24106810  0.51174537  1
  V  V44  1  0.48468466  0.53427579  0.48231783  1
  V  V45  1  0.87610352  0.39039763  0.48754115  1
  V  V46  1  0.75471357  0.12302868  0.36608055  1
  V  V47  1  0.76623368  0.11813914  0.86691880  1
  V  V48  1  0.74990650  0.39866416  0.62301009  1
  V  V49  1  0.87410888  0.62006258  0.74742087  1
  V  V50  1  0.89944831  -0.03557401  0.37965297  1
  V  V51  1  0.52711105  0.61928699  0.64317396  1
  V  V52  1  0.62652815  0.49872622  0.13359283  1
  V  V53  1  0.88158100  0.88634629  -0.01354411  1
  V  V54  1  0.00437152  0.89607472  0.87230161  1
  V  V55  1  0.63143792  0.38502844  0.74634317  1
  V  V56  1  0.87794947  0.24724440  0.14238261  1
  V  V57  1  0.24509759  0.11980515  0.35977373  1
  V  V58  1  0.62083643  0.87647286  0.25923743  1
  V  V59  1  0.00695541  0.74472769  0.75797806  1
  V  V60  1  0.61551767  0.11975417  -0.00366276  1
  V  V61  1  -0.00152285  0.76363460  0.23892786  1
  V  V62  1  0.24468028  0.87893137  0.13222817  1
  V  V63  1  0.51416917  0.12514417  0.61484573  1
  V  V64  1  -0.00533248  0.11940640  0.13428337  1
  V  V65  1  0.87883887  0.76039938  0.60824500  1
  V  V66  1  0.38270011  0.73259351  0.64163810  1
  V  V67  1  0.37805043  0.12551140  0.73778798  1
  V  V68  1  0.76088306  -0.01659443  0.74343949  1
  V  V69  1  0.37680099  0.50608073  0.86568006  1
  Zn  Zn70  1  0.62306773  0.24486972  0.87371708  1
  Zn  Zn71  1  0.77645827  0.74333327  0.00322452  1
  Zn  Zn72  1  0.76020079  0.00289410  0.25010898  1
  Zn  Zn73  1  0.36808653  0.74525697  0.12593556  1
  Zn  Zn74  1  0.23660220  0.25545430  -0.00998858  1
  Zn  Zn75  1  0.13955908  0.64561370  0.00668029  1
  Zn  Zn76  1  0.18493154  0.19576483  0.18900903  1
  Zn  Zn77  1  0.18992968  0.19000297  0.68996940  1
  Zn  Zn78  1  0.17985945  0.69271836  0.18005520  1
  Zn  Zn79  1  0.19353194  0.68029265  0.69059704  1
  Zn  Zn80  1  0.68553722  0.18991089  0.18696750  1
  Zn  Zn81  1  0.68715105  0.18550472  0.69009897  1
  Zn  Zn82  1  0.67555617  0.68885518  0.18189479  1
  Zn  Zn83  1  0.69993237  0.70512772  0.68882823  1
  Zn  Zn84  1  0.29835479  0.29035685  0.32318306  1
  Zn  Zn85  1  0.29948119  0.31648895  0.80931429  1
  Zn  Zn86  1  0.29247678  0.81588676  0.31495553  1
  Zn  Zn87  1  0.31806703  0.81207967  0.81327925  1
  Zn  Zn88  1  0.80210435  0.45057364  0.32190655  1
  Zn  Zn89  1  0.81246691  0.31068828  0.81139798  1
  Zn  Zn90  1  0.81357741  0.80319768  0.30576779  1
  Zn  Zn91  1  0.82323584  0.80745590  0.80960496  1
  Zn  Zn92  1  0.17416868  0.44443268  0.39982021  1
  Zn  Zn93  1  0.19197923  0.43607162  0.93086916  1
  Zn  Zn94  1  0.18747306  0.92405031  0.42989665  1
  Zn  Zn95  1  0.18399906  0.94954439  0.93951919  1
  Zn  Zn96  1  0.65801430  0.43943800  0.44143871  1
  Zn  Zn97  1  0.69014634  0.43910422  0.93493577  1
  Zn  Zn98  1  0.69470442  0.93743611  0.44735677  1
  Zn  Zn99  1  0.69950426  0.94077196  0.93708307  1
  Zn  Zn100  1  0.30536920  0.06902166  0.05833100  1
  Zn  Zn101  1  0.31901674  0.05656802  0.55255946  1
  Zn  Zn102  1  0.30443562  0.54505197  0.05949590  1
  Zn  Zn103  1  0.29713091  0.51921118  0.52231754  1
  Zn  Zn104  1  0.81054108  0.06260800  0.06198646  1
  Zn  Zn105  1  0.81630161  0.05574840  0.55114853  1
  Zn  Zn106  1  0.81619630  0.56379639  0.06471964  1
  Zn  Zn107  1  0.80438883  0.57155409  0.55441126  1
  Zn  Zn108  1  0.44243252  0.43335086  0.19120194  1
  Zn  Zn109  1  0.42685906  0.45113896  0.65716848  1
  Zn  Zn110  1  0.44226412  0.93203593  0.17691429  1
  Zn  Zn111  1  0.44478378  0.93696331  0.68887391  1
  Zn  Zn112  1  0.93206724  0.43826332  0.18500037  1
  Zn  Zn113  1  0.93685973  0.43413379  0.67977654  1
  Zn  Zn114  1  0.93526514  0.94876655  0.19194178  1
  Zn  Zn115  1  0.94364677  0.93862997  0.67852037  1
  Zn  Zn116  1  0.05615960  0.05920944  0.31787744  1
  Zn  Zn117  1  0.07091737  0.06653314  0.80643409  1
  Zn  Zn118  1  0.06812416  0.56462905  0.32102573  1
  Zn  Zn119  1  0.06509438  0.55309754  0.81130565  1
  Zn  Zn120  1  0.57867680  0.06484724  0.31129947  1
  Zn  Zn121  1  0.56768083  0.05532151  0.80645781  1
  Zn  Zn122  1  0.42078632  0.55462143  0.31467661  1
  Zn  Zn123  1  0.56696590  0.56543696  0.81169394  1
  Zn  Zn124  1  0.45396118  0.14035687  0.40573972  1
  Zn  Zn125  1  0.39277077  0.20931223  0.90875985  1
  Zn  Zn126  1  0.42701823  0.71587141  0.43266414  1
  Zn  Zn127  1  0.43831617  0.68879947  0.93205604  1
  Zn  Zn128  1  0.89240237  0.25916400  0.36315707  1
  Zn  Zn129  1  0.93923510  0.18020811  0.94598146  1
  Zn  Zn130  1  0.94152853  0.66773606  0.42384543  1
  Zn  Zn131  1  0.97531419  0.71176170  0.96363687  1
  Zn  Zn132  1  0.06259411  0.31242506  0.07126027  1
  Zn  Zn133  1  0.04898503  0.30949988  0.56503172  1
  Zn  Zn134  1  0.06491354  0.81798213  0.06294628  1
  Zn  Zn135  1  0.09324338  0.78056132  0.57499061  1
  Zn  Zn136  1  0.55979236  0.30817883  0.06266846  1
  Zn  Zn137  1  0.57111960  0.31076216  0.56155139  1
  Zn  Zn138  1  0.55569195  0.81558593  0.06409061  1
  Zn  Zn139  1  0.56240091  0.80641978  0.55656636  1
  O  O140  1  0.11284554  0.12106460  0.12336006  1
  O  O141  1  0.08911037  0.12848644  0.65306868  1
  O  O142  1  0.10926371  0.62389804  0.11990574  1
  O  O143  1  0.11524962  0.61550617  0.63251881  1
  O  O144  1  0.62758411  0.11674449  0.11417370  1
  O  O145  1  0.61617029  0.11691601  0.62669689  1
  O  O146  1  0.63278130  0.60914625  0.10653625  1
  O  O147  1  0.62659599  0.63222707  0.64350281  1
  O  O148  1  0.38185072  0.33976135  0.38110380  1
  O  O149  1  0.38889207  0.38508881  0.87276913  1
  O  O150  1  0.37159915  0.93386692  0.33789631  1
  O  O151  1  0.37966787  0.88328593  0.88406611  1
  O  O152  1  0.86950721  0.37607017  0.38139418  1
  O  O153  1  0.86802001  0.38446585  0.88279540  1
  O  O154  1  0.87441636  0.86573769  0.38034370  1
  O  O155  1  0.88667577  0.88049910  0.87828214  1
  O  O156  1  0.23273593  0.02214464  0.39944917  1
  O  O157  1  0.26529517  -0.00408805  0.85889064  1
  O  O158  1  0.27882152  0.46154933  0.42865957  1
  O  O159  1  0.26000254  0.50480706  0.86341908  1
  O  O160  1  0.74594301  0.01670629  0.37843802  1
  O  O161  1  0.74643756  0.00985534  0.85716043  1
  O  O162  1  0.72943123  0.50314178  0.38585057  1
  O  O163  1  0.76420659  0.51219103  0.87949745  1
  O  O164  1  0.24330716  0.46709143  0.11245871  1
  O  O165  1  0.23769688  0.50450022  0.63143286  1
  O  O166  1  0.23796506  0.99746168  0.11978630  1
  O  O167  1  0.26177025  0.98473975  0.63448111  1
  O  O168  1  0.74191664  0.48462957  0.11398434  1
  O  O169  1  0.74611113  0.49747140  0.62880474  1
  O  O170  1  0.74311696  0.99041700  0.12720076  1
  O  O171  1  0.74231848  1.00172670  0.62864442  1
  O  O172  1  -0.00968002  0.37157805  0.25845186  1
  O  O173  1  0.01022447  0.37626844  0.74467469  1
  O  O174  1  -0.00266394  0.86241911  0.23606842  1
  O  O175  1  0.01036140  0.86923628  0.75162983  1
  O  O176  1  0.49422804  0.35421625  0.25726245  1
  O  O177  1  0.51190952  0.36803237  0.75190900  1
  O  O178  1  0.51780852  0.87376998  0.24305089  1
  O  O179  1  0.50065758  0.86989938  0.76648109  1
  O  O180  1  0.50662193  0.12759233  0.23812054  1
  O  O181  1  0.49614363  0.12790386  0.74128394  1
  O  O182  1  0.48160250  0.64273907  0.25067006  1
  O  O183  1  0.51140235  0.65005439  0.75672129  1
  O  O184  1  0.99835110  0.12327150  0.23400341  1
  O  O185  1  1.03486131  0.11922829  0.70737907  1
  O  O186  1  0.99616854  0.61849408  0.23802920  1
  O  O187  1  0.99765551  0.63505970  0.75107865  1
  O  O188  1  0.39446450  0.26595171  0.00663868  1
  O  O189  1  0.34844897  0.33279131  0.56031304  1
  O  O190  1  0.37456841  0.76080290  0.00179975  1
  O  O191  1  0.37718224  0.75101765  0.53125474  1
  O  O192  1  0.86719320  0.25655384  0.00136269  1
  O  O193  1  0.84370523  0.27568000  0.48950898  1
  O  O194  1  0.88800096  0.77590312  0.00253056  1
  O  O195  1  0.86893147  0.73640621  0.50132402  1
  O  O196  1  0.10763590  0.23779564  0.50067184  1
  O  O197  1  0.11796325  0.24328773  1.00025468  1
  O  O198  1  0.15470008  0.74760725  0.48640792  1
  O  O199  1  0.08627175  0.74199152  0.98549756  1
  O  O200  1  0.64005955  0.25352978  0.48939535  1
  O  O201  1  0.63439935  0.23776578  0.99971831  1
  O  O202  1  0.62773711  0.75261075  0.47762511  1
  O  O203  1  0.61840692  0.73345520  1.00573305  1
  O  O204  1  0.50718168  0.23534635  0.13647133  1
  O  O205  1  0.50919266  0.23653189  0.63363433  1
  O  O206  1  0.48973080  0.75555968  0.13772171  1
  O  O207  1  0.50074127  0.74956922  0.64148430  1
  O  O208  1  0.98218806  0.24520558  0.12608461  1
  O  O209  1  0.96415577  0.23612321  0.62374331  1
  O  O210  1  1.00459467  0.73996979  0.13597547  1
  O  O211  1  1.00213543  0.73879943  0.63269872  1
  O  O212  1  0.00384203  0.23175005  0.37848210  1
  O  O213  1  -0.03042214  0.23984493  0.83916011  1
  O  O214  1  0.01676842  0.74788945  0.37059363  1
  O  O215  1  -0.00743844  0.76381674  0.85668507  1
  O  O216  1  0.50578602  0.23772733  0.36075625  1
  O  O217  1  0.49489824  0.25920138  0.86196653  1
  O  O218  1  0.50919905  0.75593624  0.36136744  1
  O  O219  1  0.50031398  0.76423963  0.86856422  1
  O  O220  1  0.23392077  0.13591337  0.54383121  1
  O  O221  1  0.23054494  0.13747967  1.00962886  1
  O  O222  1  0.26545824  0.63178946  0.51461296  1
  O  O223  1  0.24966043  0.61402026  0.98340572  1
  O  O224  1  0.75362577  0.13807627  0.49238574  1
  O  O225  1  0.74449743  0.13036173  0.98996939  1
  O  O226  1  0.73759618  0.65450039  0.52052171  1
  O  O227  1  0.74467763  0.62809550  0.99426138  1
  O  O228  1  0.27249348  0.37223145  -0.01527474  1
  O  O229  1  0.28609994  0.36363851  0.53094231  1
  O  O230  1  0.26110461  0.88006227  -0.00478766  1
  O  O231  1  0.25445748  0.86812554  0.51748859  1
  O  O232  1  0.75646997  0.36319451  -0.00000193  1
  O  O233  1  0.73750065  0.37916630  0.51855755  1
  O  O234  1  0.76346675  0.87249073  0.00425524  1
  O  O235  1  0.74631017  0.84993541  0.50078210  1
  O  O236  1  0.12312843  0.46880489  0.29413316  1
  O  O237  1  0.13158606  0.48868994  0.74114374  1
  O  O238  1  0.11920581  1.00321915  0.23032813  1
  O  O239  1  0.14540189  0.99266365  0.74983543  1
  O  O240  1  0.62283222  0.50420206  0.22900408  1
  O  O241  1  0.63382054  0.48254597  0.76345755  1
  O  O242  1  0.63224077  0.98783679  0.24059540  1
  O  O243  1  0.63914896  1.00173562  0.73422962  1
  O  O244  1  0.38208283  -0.01988100  0.28000502  1
  O  O245  1  0.37128335  0.00488793  0.75438231  1
  O  O246  1  0.37065905  0.50419177  0.23420691  1
  O  O247  1  0.36078102  0.49065305  0.75024097  1
  O  O248  1  0.87188599  -0.00687591  0.27585788  1
  O  O249  1  0.86160337  -0.00106489  0.73042763  1
  O  O250  1  0.86743992  0.50996602  0.24640380  1
  O  O251  1  0.88691506  0.51102938  0.75754063  1
  O  O252  1  0.11238286  0.34695307  0.37868098  1
  O  O253  1  0.12077061  0.37779564  0.86273258  1
  O  O254  1  0.18055366  0.83333676  0.36031047  1
  O  O255  1  0.11467576  0.88513420  0.86382105  1
  O  O256  1  0.60187475  0.35559004  0.37943129  1
  O  O257  1  0.61779995  0.36906508  0.86798178  1
  O  O258  1  0.63329374  0.88058433  0.35803963  1
  O  O259  1  0.61172762  0.88294438  0.89043241  1
  O  O260  1  0.39305008  0.11190103  0.11984397  1
  O  O261  1  0.39146282  0.11390258  0.63484623  1
  O  O262  1  0.32932916  0.63177737  0.14101973  1
  O  O263  1  0.39153633  0.63458564  0.64456917  1
  O  O264  1  0.88008633  0.13660012  0.12032624  1
  O  O265  1  0.88819174  0.12820053  0.62179025  1
  O  O266  1  0.89039368  0.62373736  0.13060869  1
  O  O267  1  0.89119977  0.62816860  0.63102635  1
  O  O268  1  0.23721099  0.27711330  0.11631007  1
  O  O269  1  0.24741406  0.20098111  0.58530907  1
  O  O270  1  0.24596997  0.77349417  0.12285972  1
  O  O271  1  0.26455973  0.75120303  0.62674704  1
  O  O272  1  0.75636353  0.25670203  0.11687557  1
  O  O273  1  0.74460730  0.24872091  0.61457815  1
  O  O274  1  0.74184024  0.76505121  0.11703128  1
  O  O275  1  0.77900122  0.76121222  0.62992132  1
  O  O276  1  0.22391681  0.22919196  0.38321416  1
  O  O277  1  0.28308024  0.23778421  0.88427434  1
  O  O278  1  0.30586203  0.74127589  0.40324664  1
  O  O279  1  0.25755012  0.72843638  0.86290558  1
  O  O280  1  0.73681893  0.24803339  0.37415500  1
  O  O281  1  0.74946561  0.23720877  0.88140404  1
  O  O282  1  0.73597528  0.74299967  0.37394135  1
  O  O283  1  0.76307054  0.73732190  0.87989206  1
  O  O284  1  0.01128511  0.13078418  0.01461549  1
  O  O285  1  -0.05937345  0.17329513  0.58278894  1
  O  O286  1  -0.00572936  0.60633619  0.01054441  1
  O  O287  1  0.00968099  0.63810280  0.51626490  1
  O  O288  1  0.51559157  0.12854937  0.01274499  1
  O  O289  1  0.49751275  0.12839112  0.51604115  1
  O  O290  1  0.51333277  0.61526835  -0.01171543  1
  O  O291  1  0.50759063  0.62649130  0.53788506  1
  O  O292  1  0.48772536  0.34610725  0.49365024  1
  O  O293  1  0.49807273  0.38104358  0.98863199  1
  O  O294  1  0.50729279  0.88336313  0.48774310  1
  O  O295  1  0.48471375  0.87439735  0.98962110  1
  O  O296  1  0.97324863  0.37618184  0.50935512  1
  O  O297  1  0.98763152  0.38529728  1.01090884  1
  O  O298  1  1.04718667  0.94580201  0.54407630  1
  O  O299  1  0.99637830  0.88598502  0.98081816  1
  O  O300  1  0.47845354  0.46729558  0.38548951  1
  O  O301  1  0.49684642  0.49358453  0.87655746  1
  O  O302  1  0.50689633  1.02729118  0.39450930  1
  O  O303  1  0.48982300  0.98738488  0.86633133  1
  O  O304  1  0.98706597  0.56063954  0.39897754  1
  O  O305  1  0.98847178  0.50521128  0.88875682  1
  O  O306  1  1.00103904  0.97520285  0.37056211  1
  O  O307  1  0.99608681  0.99377807  0.85453714  1
  O  O308  1  0.00380545  0.01248070  0.12211521  1
  O  O309  1  0.01515827  -0.00487340  0.59993166  1
  O  O310  1  -0.00185607  0.50435935  0.11476506  1
  O  O311  1  0.00936347  0.51156079  0.62432605  1
  O  O312  1  0.51521113  0.01079571  0.12952655  1
  O  O313  1  0.51323575  0.00446651  0.61952765  1
  O  O314  1  0.51578228  0.48763411  0.11043388  1
  O  O315  1  0.51470664  0.52170132  0.66756000  1
  O  O316  1  0.25038778  0.37038919  0.25228122  1
  O  O317  1  0.23825955  0.39015538  0.75051327  1
  O  O318  1  0.25574740  0.88728485  0.23009578  1
  O  O319  1  0.24938800  0.88168733  0.74685318  1
  O  O320  1  0.75235764  0.37782476  0.23386647  1
  O  O321  1  0.73995275  0.36321964  0.73957992  1
  O  O322  1  0.74017710  0.86878804  0.23506024  1
  O  O323  1  0.75563656  0.88451240  0.75603787  1
  O  O324  1  0.24626496  0.12348321  0.25762531  1
  O  O325  1  0.26429793  0.11154527  0.73681140  1
  O  O326  1  0.27828683  0.62998829  0.20404695  1
  O  O327  1  0.24527241  0.60566577  0.76040705  1
  O  O328  1  0.74242459  0.12132051  0.25905256  1
  O  O329  1  0.75405234  0.12908295  0.76444845  1
  O  O330  1  0.76245309  0.63411985  0.23037857  1
  O  O331  1  0.76674193  0.63497877  0.75662146  1
  O  O332  1  0.34299824  0.13344395  0.39456701  1
  O  O333  1  0.38894512  0.10796840  0.85719554  1
  O  O334  1  0.42978694  0.60279427  0.41447964  1
  O  O335  1  0.37187844  0.61026350  0.87705237  1
  O  O336  1  0.85256350  0.14564624  0.37021639  1
  O  O337  1  0.86445362  0.11776512  0.88283285  1
  O  O338  1  0.85949444  0.62726074  0.35388443  1
  O  O339  1  0.87111849  0.61778338  0.86545397  1
  O  O340  1  0.11662810  0.37771615  0.15519070  1
  O  O341  1  0.11484363  0.38711888  0.62626704  1
  O  O342  1  0.13416028  0.89301419  0.11228587  1
  O  O343  1  0.14659290  0.86221563  0.63878663  1
  O  O344  1  0.63671315  0.38020798  0.11741599  1
  O  O345  1  0.62993723  0.37549465  0.63957672  1
  O  O346  1  0.63342472  0.88354015  0.12245062  1
  O  O347  1  0.62279571  0.88081608  0.62658685  1
  O  O348  1  0.11578545  0.26131884  0.25743848  1
  O  O349  1  0.13646291  0.27056121  0.74154633  1
  O  O350  1  0.10986821  0.74652599  0.25462469  1
  O  O351  1  0.11535693  0.75426013  0.74792413  1
  O  O352  1  0.61960369  0.25157888  0.25793192  1
  O  O353  1  0.61449435  0.25331696  0.75471861  1
  O  O354  1  0.61517818  0.75659099  0.25564382  1
  O  O355  1  0.62238798  0.76536492  0.75242616  1
  O  O356  1  0.38480519  0.23905602  0.24963379  1
  O  O357  1  0.38282139  0.23173900  0.74955897  1
  O  O358  1  0.38299398  0.77143658  0.25170900  1
  O  O359  1  0.38985871  0.75632151  0.74473936  1
  O  O360  1  0.86895541  0.25348191  0.23929740  1
  O  O361  1  0.91450508  0.24380860  0.78588122  1
  O  O362  1  0.89416305  0.73631377  0.25341029  1
  O  O363  1  0.89231755  0.74450134  0.73558860  1
  O  O364  1  0.41071783  0.49280632  0.54474442  1
  O  O365  1  0.38810197  0.49151709  0.98989722  1
  O  O366  1  0.39917751  0.99539346  0.50710534  1
  O  O367  1  0.36953160  1.00066981  0.98213436  1
  O  O368  1  0.85984361  0.49096307  0.49719695  1
  O  O369  1  0.87879718  0.49031009  0.99335036  1
  O  O370  1  0.87703243  1.00198194  0.47327349  1
  O  O371  1  0.87212078  0.98602822  1.00353273  1
  O  O372  1  0.12570598  0.02054980  0.00836461  1
  O  O373  1  0.10452338  -0.01876743  0.50288885  1
  O  O374  1  0.11012312  0.49191080  -0.00647282  1
  O  O375  1  0.12982137  0.49348334  0.51029049  1
  O  O376  1  0.63397625  0.01241026  0.00617093  1
  O  O377  1  0.61873758  -0.00401806  0.51612990  1
  O  O378  1  0.61824919  0.50575803  -0.00251675  1
  O  O379  1  0.57536107  0.49230302  0.50130070  1
  O  O380  1  0.37770712  0.37840930  0.10996195  1
  O  O381  1  0.36474116  0.35337716  0.63948843  1
  O  O382  1  0.36300411  0.88661901  0.10688291  1
  O  O383  1  0.36814316  0.86717007  0.63515093  1
  O  O384  1  0.86299199  0.36464566  0.11594683  1
  O  O385  1  0.85453247  0.38038534  0.62028161  1
  O  O386  1  0.86156956  0.88182902  0.12290723  1
  O  O387  1  0.90321111  0.85720844  0.60748418  1
  O  O388  1  0.12534298  0.12849656  0.37438568  1
  O  O389  1  0.11755379  0.12811009  0.88634204  1
  O  O390  1  0.15144873  0.64554421  0.36077238  1
  O  O391  1  0.13690885  0.61774436  0.87657815  1
  O  O392  1  0.63567859  0.14131847  0.37632851  1
  O  O393  1  0.62622294  0.12156874  0.88681973  1
  O  O394  1  0.61236263  0.63033047  0.37145264  1
  O  O395  1  0.64085837  0.62040695  0.88573815  1
