# generated using pymatgen
data_V35Zn35O128
_symmetry_space_group_name_H-M   'P 1'
_cell_length_a   17.03988192
_cell_length_b   16.93991269
_cell_length_c   16.88324704
_cell_angle_alpha   89.54992771
_cell_angle_beta   90.09602251
_cell_angle_gamma   89.93864525
_symmetry_Int_Tables_number   1
_chemical_formula_structural   V35Zn35O128
_chemical_formula_sum   'V70 Zn70 O256'
_cell_volume   4873.25861908
_cell_formula_units_Z   2
loop_
 _symmetry_equiv_pos_site_id
 _symmetry_equiv_pos_as_xyz
  1  'x, y, z'
loop_
 _atom_site_type_symbol
 _atom_site_label
 _atom_site_symmetry_multiplicity
 _atom_site_fract_x
 _atom_site_fract_y
 _atom_site_fract_z
 _atom_site_occupancy
  V  V0  1  0.50405590  0.89098537  0.36752847  1
  V  V1  1  0.24256470  0.85704867  0.61266537  1
  V  V2  1  0.24052062  0.75827143  -0.01111776  1
  V  V3  1  0.12220853  0.38176330  0.74731564  1
  V  V4  1  0.88162563  0.00878207  0.88529698  1
  V  V5  1  0.60825813  0.87698481  0.74656044  1
  V  V6  1  0.75270077  0.01445361  0.74619525  1
  V  V7  1  0.23856139  0.60593388  0.87323313  1
  V  V8  1  -0.00374204  -0.00255594  0.50125388  1
  V  V9  1  0.14250041  0.00983651  0.13133843  1
  V  V10  1  -0.01508242  0.37437125  0.36860016  1
  V  V11  1  0.63277821  0.01386974  0.12276697  1
  V  V12  1  -0.00333082  0.73907322  0.25366112  1
  V  V13  1  0.29899189  0.42938725  0.07583521  1
  V  V14  1  0.87678080  0.49934235  0.88435451  1
  V  V15  1  0.61659542  0.00670790  0.60888578  1
  V  V16  1  0.86715613  0.00139067  0.36484688  1
  V  V17  1  0.49790189  0.63689828  0.14126973  1
  V  V18  1  0.37607323  0.76049133  0.13288969  1
  V  V19  1  0.74761126  0.25608451  -0.00799664  1
  V  V20  1  0.63449276  0.87352967  0.23702472  1
  V  V21  1  0.76097026  0.63316774  0.37173045  1
  V  V22  1  0.11113273  0.50256879  0.61384574  1
  V  V23  1  0.47863670  0.38796600  0.39448073  1
  V  V24  1  0.37641394  0.87716916  -0.01907820  1
  V  V25  1  0.25092620  0.25326753  0.50057353  1
  V  V26  1  0.74882214  0.49868327  0.73958575  1
  V  V27  1  0.13092468  0.37907703  0.24315202  1
  V  V28  1  0.76231270  0.37204385  0.13010751  1
  V  V29  1  0.11945087  0.25479512  0.37099336  1
  V  V30  1  0.60287862  0.75931707  0.87100832  1
  V  V31  1  0.74359309  0.36488071  0.62259289  1
  V  V32  1  -0.00271634  0.64169544  0.62410061  1
  V  V33  1  0.38822676  0.87287353  0.49455481  1
  V  V34  1  0.75351843  0.63752660  0.87670933  1
  V  V35  1  0.86679640  0.75794336  0.11064622  1
  V  V36  1  0.24981045  0.52237736  0.25905609  1
  V  V37  1  0.00629376  0.00615605  0.01603223  1
  V  V38  1  0.61235045  0.74346572  0.37045314  1
  V  V39  1  0.26092002  0.11967249  0.86859056  1
  V  V40  1  0.47956022  0.13151827  0.13219876  1
  V  V41  1  0.11876469  0.23660285  0.87154916  1
  V  V42  1  0.12748241  0.87249781  0.24364137  1
  V  V43  1  0.24454358  0.37811316  0.61618177  1
  V  V44  1  0.50038439  0.00641485  -0.00610913  1
  V  V45  1  0.12543180  -0.00152870  0.62548175  1
  V  V46  1  -0.01177426  0.24485606  0.74266841  1
  V  V47  1  0.00891978  0.87519526  0.86908003  1
  V  V48  1  0.88010205  0.64176473  0.74605346  1
  V  V49  1  0.61703970  0.38132123  0.26343617  1
  V  V50  1  -0.00748756  0.37700882  0.88123098  1
  V  V51  1  0.38253390  0.62650049  0.76081101  1
  V  V52  1  0.52103231  0.36758505  0.88517092  1
  V  V53  1  0.62121076  0.61527486  0.51324720  1
  V  V54  1  0.75939808  0.50795077  0.24858141  1
  V  V55  1  0.75378686  0.87053100  0.63357611  1
  V  V56  1  0.25603728  0.00645352  0.73462856  1
  V  V57  1  -0.00174320  0.62971110  0.09889892  1
  V  V58  1  0.12157040  0.12748183  0.49167196  1
  V  V59  1  0.39761784  0.74328158  0.62909793  1
  V  V60  1  0.25639715  0.24724133  0.00321873  1
  V  V61  1  0.00507035  0.87263496  0.37739897  1
  V  V62  1  -0.01369163  0.12688517  0.62466122  1
  V  V63  1  0.62075511  0.63544460  -0.00277875  1
  V  V64  1  0.73550273  0.13191468  0.87751484  1
  V  V65  1  0.87201995  0.86893612  0.50365256  1
  V  V66  1  0.61663554  0.50390281  0.12269834  1
  V  V67  1  0.48172985  0.12112560  0.62835390  1
  V  V68  1  0.11605207  0.50891582  0.11340079  1
  V  V69  1  0.87599617  0.36568161  0.51244848  1
  Zn  Zn70  1  0.30024580  1.02769643  0.31484782  1
  Zn  Zn71  1  0.75184143  0.74627929  0.50803513  1
  Zn  Zn72  1  -0.00571204  0.51097247  0.48936991  1
  Zn  Zn73  1  0.87040593  0.50072521  0.37592450  1
  Zn  Zn74  1  0.49928267  0.24521232  0.25737413  1
  Zn  Zn75  1  0.39408063  0.00085465  0.85301051  1
  Zn  Zn76  1  0.19213761  0.19107513  0.19385361  1
  Zn  Zn77  1  0.17721387  0.18583867  0.68052698  1
  Zn  Zn78  1  0.18299176  0.69775102  0.17682161  1
  Zn  Zn79  1  0.18365458  0.67202347  0.69341984  1
  Zn  Zn80  1  0.68069133  0.19328297  0.19472836  1
  Zn  Zn81  1  0.66803463  0.19393246  0.68597056  1
  Zn  Zn82  1  0.68579200  0.69112939  0.18843126  1
  Zn  Zn83  1  0.68907220  0.69047841  0.69628717  1
  Zn  Zn84  1  0.30508323  0.33325489  0.32685822  1
  Zn  Zn85  1  0.29267833  0.27502275  0.77845591  1
  Zn  Zn86  1  0.33369279  0.85758091  0.28449474  1
  Zn  Zn87  1  0.26137767  0.79218578  0.78002200  1
  Zn  Zn88  1  0.75677840  0.12122750  0.35921738  1
  Zn  Zn89  1  0.81202466  0.31462465  0.80790224  1
  Zn  Zn90  1  0.81771940  0.81379429  0.30482897  1
  Zn  Zn91  1  0.81719136  0.82354981  0.92231801  1
  Zn  Zn92  1  0.17972691  0.44449919  0.43349130  1
  Zn  Zn93  1  0.18251418  0.43154445  0.93342042  1
  Zn  Zn94  1  0.19036278  0.93562968  0.43819327  1
  Zn  Zn95  1  0.18739888  0.94113975  0.94166217  1
  Zn  Zn96  1  0.69264715  0.43808610  0.44330719  1
  Zn  Zn97  1  0.70252825  0.45074809  0.94940856  1
  Zn  Zn98  1  0.68803560  0.93032203  0.43511289  1
  Zn  Zn99  1  0.67473748  0.94387127  0.93050811  1
  Zn  Zn100  1  0.31260531  0.06297861  0.05566614  1
  Zn  Zn101  1  0.30675984  0.05545819  0.52429661  1
  Zn  Zn102  1  0.30014107  0.59599920  0.07162648  1
  Zn  Zn103  1  0.32651290  0.53821870  0.61741803  1
  Zn  Zn104  1  0.80744354  -0.06165773  0.05957233  1
  Zn  Zn105  1  0.80907153  0.05596196  0.55871842  1
  Zn  Zn106  1  0.81065501  0.57246257  0.06347398  1
  Zn  Zn107  1  0.81692112  0.56136653  0.55695651  1
  Zn  Zn108  1  0.43487381  0.45336201  0.19906793  1
  Zn  Zn109  1  0.39105233  0.41349469  0.73205147  1
  Zn  Zn110  1  0.44516905  0.94197567  0.18274930  1
  Zn  Zn111  1  0.42887981  0.93940084  0.67093834  1
  Zn  Zn112  1  0.95125149  0.33276646  0.17261348  1
  Zn  Zn113  1  0.93299652  0.44275391  0.69421240  1
  Zn  Zn114  1  0.93817424  0.92919597  0.19050010  1
  Zn  Zn115  1  0.93067136  0.93905231  0.69248777  1
  Zn  Zn116  1  0.06505126  0.05550387  0.31374826  1
  Zn  Zn117  1  0.06219762  0.05973399  0.80595443  1
  Zn  Zn118  1  0.00813095  0.52133245  0.25719684  1
  Zn  Zn119  1  0.05798973  0.56394777  0.81227351  1
  Zn  Zn120  1  0.57920054  0.07036564  0.30092916  1
  Zn  Zn121  1  0.56135207  0.07010759  0.79688304  1
  Zn  Zn122  1  0.56222541  0.55982947  0.31955833  1
  Zn  Zn123  1  0.57034589  0.56985536  0.80582437  1
  Zn  Zn124  1  0.46282513  0.24398660  0.47304298  1
  Zn  Zn125  1  0.43239227  0.18234018  0.94254049  1
  Zn  Zn126  1  0.44162049  0.68797994  0.45167985  1
  Zn  Zn127  1  0.43109004  0.68561808  0.93849600  1
  Zn  Zn128  1  0.93544200  0.18772111  0.43244055  1
  Zn  Zn129  1  0.93623144  0.18425156  1.05096771  1
  Zn  Zn130  1  0.94011425  0.69081992  0.43970922  1
  Zn  Zn131  1  0.94005291  0.69282461  0.92876765  1
  Zn  Zn132  1  0.07576376  0.30725495  0.05705547  1
  Zn  Zn133  1  0.05443478  0.31388617  0.55745291  1
  Zn  Zn134  1  0.05532476  0.82452222  0.05885352  1
  Zn  Zn135  1  0.07268226  0.81661451  0.70036222  1
  Zn  Zn136  1  0.56858940  0.30569409  0.07494568  1
  Zn  Zn137  1  0.54981135  0.32120209  0.59760832  1
  Zn  Zn138  1  0.55822804  0.81674462  0.05429213  1
  Zn  Zn139  1  0.56925472  0.80716924  0.55792001  1
  O  O140  1  0.12730074  0.10816895  0.14863982  1
  O  O141  1  0.10984987  0.11858984  0.61168076  1
  O  O142  1  0.11384568  0.61820038  0.11866370  1
  O  O143  1  0.10892908  0.60999835  0.63382515  1
  O  O144  1  0.61995842  0.11468434  0.12917077  1
  O  O145  1  0.61277334  0.10942922  0.62491736  1
  O  O146  1  0.61539813  0.62985936  0.11872161  1
  O  O147  1  0.63915455  0.63670205  0.61085288  1
  O  O148  1  0.37781499  0.39400294  0.38560172  1
  O  O149  1  0.42152978  0.38787651  0.86147366  1
  O  O150  1  0.39325641  0.86384525  0.38525230  1
  O  O151  1  0.37804919  0.88541431  0.88114324  1
  O  O152  1  0.88476913  0.37097876  0.37620278  1
  O  O153  1  0.88667790  0.38048069  0.87118186  1
  O  O154  1  0.88190178  0.88268522  0.38223018  1
  O  O155  1  0.88640258  0.89887641  0.86880312  1
  O  O156  1  0.25886714  0.02194888  0.41593127  1
  O  O157  1  0.24489591  0.01343711  0.86048568  1
  O  O158  1  0.23049661  0.50889054  0.35811177  1
  O  O159  1  0.25010358  0.50676700  0.88189669  1
  O  O160  1  0.76402874  -0.00176374  0.38159480  1
  O  O161  1  0.74090126  0.01071914  0.85795702  1
  O  O162  1  0.74831539  0.51267894  0.36332861  1
  O  O163  1  0.75809368  0.50997729  0.86721116  1
  O  O164  1  0.23409197  0.50355070  0.13039817  1
  O  O165  1  0.21971663  0.48852213  0.62264604  1
  O  O166  1  0.24057065  1.00301017  0.12218729  1
  O  O167  1  0.23832788  1.00897845  0.62020968  1
  O  O168  1  0.74050224  0.50843742  0.13447179  1
  O  O169  1  0.76158174  0.49791842  0.63653228  1
  O  O170  1  0.73058009  1.00216525  0.11502216  1
  O  O171  1  0.73683020  0.99715449  0.62958868  1
  O  O172  1  0.00558653  0.38319810  0.25829391  1
  O  O173  1  0.00636371  0.36264736  0.75128663  1
  O  O174  1  0.00877821  0.86879149  0.26084722  1
  O  O175  1  0.00317802  0.88505945  0.75786445  1
  O  O176  1  0.50993085  0.39246969  0.26155609  1
  O  O177  1  0.54470585  0.33961094  0.78583004  1
  O  O178  1  0.51087694  0.87300558  0.26311220  1
  O  O179  1  0.51112568  0.88551073  0.73846638  1
  O  O180  1  0.49758320  0.12645158  0.23836900  1
  O  O181  1  0.48501599  0.12470206  0.72942506  1
  O  O182  1  0.50597017  0.62905503  0.24005725  1
  O  O183  1  0.48301534  0.62462380  0.76412999  1
  O  O184  1  0.99101775  0.12252786  0.23412569  1
  O  O185  1  1.00360174  0.13681485  0.73972412  1
  O  O186  1  1.00078052  0.63909886  0.24965800  1
  O  O187  1  0.98759809  0.62114296  0.74123590  1
  O  O188  1  0.35512699  0.24916524  -0.00938063  1
  O  O189  1  0.34751985  0.24801811  0.49125806  1
  O  O190  1  0.37444831  0.76695683  -0.00204878  1
  O  O191  1  0.38068152  0.75734308  0.51746201  1
  O  O192  1  0.83969387  0.23288088  0.02435606  1
  O  O193  1  0.88541027  0.26620661  0.49865925  1
  O  O194  1  0.87499129  0.75461284  0.00519620  1
  O  O195  1  0.87221306  0.76551688  0.49666009  1
  O  O196  1  0.11789214  0.24323666  0.49064283  1
  O  O197  1  0.13800442  0.25763241  0.97440367  1
  O  O198  1  0.17145845  0.68871866  0.47061111  1
  O  O199  1  0.14449416  0.76912695  1.01155788  1
  O  O200  1  0.56476393  0.12748602  0.41918108  1
  O  O201  1  0.65196378  0.24652305  1.02644954  1
  O  O202  1  0.63440149  0.74604598  0.48290573  1
  O  O203  1  0.62183541  0.75305233  0.97893864  1
  O  O204  1  0.49597033  0.23599078  0.12633488  1
  O  O205  1  0.50343821  0.21395522  0.57823385  1
  O  O206  1  0.49260155  0.74389620  0.12067944  1
  O  O207  1  0.49606497  0.75435298  0.63137583  1
  O  O208  1  0.99768773  0.25193642  0.11512437  1
  O  O209  1  1.00347513  0.24293379  0.63505243  1
  O  O210  1  0.99537118  0.74177749  0.12389108  1
  O  O211  1  1.01122940  0.73899662  0.63144935  1
  O  O212  1  0.00667186  0.26454528  0.37477545  1
  O  O213  1  0.01215077  0.25873304  0.86120840  1
  O  O214  1  -0.00658635  0.75732158  0.36249368  1
  O  O215  1  -0.00043708  0.77588991  0.88043798  1
  O  O216  1  0.48653409  0.27955846  0.36412662  1
  O  O217  1  0.50440644  0.26539576  0.89950332  1
  O  O218  1  0.51274061  0.74482665  0.37462098  1
  O  O219  1  0.50635290  0.75167220  0.87025744  1
  O  O220  1  0.22928546  0.14589689  0.50975812  1
  O  O221  1  0.25047168  0.13182156  0.97744012  1
  O  O222  1  0.30352748  0.53921458  0.49988485  1
  O  O223  1  0.25302147  0.64478018  0.97973862  1
  O  O224  1  0.73271757  0.14176322  0.52257899  1
  O  O225  1  0.73245628  0.13121338  0.97672413  1
  O  O226  1  0.74756186  0.62805034  0.48492917  1
  O  O227  1  0.73584622  0.62464299  0.98749572  1
  O  O228  1  0.24983286  0.36482305  0.00430485  1
  O  O229  1  0.22793002  0.36696313  0.50863235  1
  O  O230  1  0.26679444  0.87391346  -0.00340312  1
  O  O231  1  0.26256657  0.87351647  0.50800883  1
  O  O232  1  0.75000761  0.36811231  0.01704913  1
  O  O233  1  0.76807014  0.37655680  0.50820925  1
  O  O234  1  0.74670814  0.88069011  -0.01361634  1
  O  O235  1  0.75675249  0.87506955  0.51186882  1
  O  O236  1  0.12596827  0.49321996  0.23587847  1
  O  O237  1  0.11354317  0.48420448  0.74186018  1
  O  O238  1  0.12395638  0.98620058  0.24531077  1
  O  O239  1  0.13487675  1.00795887  0.73179948  1
  O  O240  1  0.62891111  0.50191776  0.23902238  1
  O  O241  1  0.65052613  0.51442463  0.75048384  1
  O  O242  1  0.61900683  0.98350554  0.23059285  1
  O  O243  1  0.63000958  0.98959010  0.73951024  1
  O  O244  1  0.36123083  -0.03607932  0.25277744  1
  O  O245  1  0.36133778  0.00094144  0.74180753  1
  O  O246  1  0.34916717  0.50852963  0.24719547  1
  O  O247  1  0.36874244  0.52247067  0.72850910  1
  O  O248  1  0.87810975  -0.00824530  0.26589099  1
  O  O249  1  0.85457867  0.00292797  0.75146394  1
  O  O250  1  0.85832076  0.50478591  0.25074728  1
  O  O251  1  0.86615815  0.50660266  0.76296150  1
  O  O252  1  0.11191879  0.37329478  0.36269821  1
  O  O253  1  0.11630913  0.37161685  0.85882864  1
  O  O254  1  0.10934067  0.88256188  0.37428547  1
  O  O255  1  0.10795372  0.89705563  0.87368856  1
  O  O256  1  0.63408406  0.37960072  0.36288017  1
  O  O257  1  0.62468805  0.36636079  0.90306612  1
  O  O258  1  0.61692164  0.86420882  0.37053537  1
  O  O259  1  0.61983414  0.86971070  0.85826243  1
  O  O260  1  0.38091955  0.12095552  0.12715303  1
  O  O261  1  0.38802910  0.10703747  0.59674256  1
  O  O262  1  0.39451304  0.63842854  0.11981426  1
  O  O263  1  0.37791978  0.64063413  0.62812046  1
  O  O264  1  0.86174404  0.10271625  0.13126456  1
  O  O265  1  0.88824423  0.11750280  0.61461007  1
  O  O266  1  0.89214051  0.63728143  0.11529884  1
  O  O267  1  0.88536587  0.62503008  0.63492330  1
  O  O268  1  0.23991633  0.23643483  0.10119317  1
  O  O269  1  0.23645866  0.26516704  0.61420516  1
  O  O270  1  0.27046000  0.73508632  0.10583485  1
  O  O271  1  0.24167093  0.75795636  0.61781512  1
  O  O272  1  0.74952898  0.27401333  0.14751363  1
  O  O273  1  0.74707368  0.26637504  0.63952969  1
  O  O274  1  0.77124356  0.73883344  0.12936991  1
  O  O275  1  0.74694237  0.76824051  0.62823667  1
  O  O276  1  0.22918895  0.26607712  0.39058160  1
  O  O277  1  0.23842771  0.23701433  0.86861111  1
  O  O278  1  0.36212053  0.61359003  0.40559645  1
  O  O279  1  0.25044703  0.76040458  0.88778256  1
  O  O280  1  0.74041976  0.18766222  0.46078495  1
  O  O281  1  0.75490700  0.24639679  0.88162574  1
  O  O282  1  0.74836851  0.73917125  0.36839837  1
  O  O283  1  0.75779231  0.73849633  0.86934692  1
  O  O284  1  -0.00125723  0.10649440  0.00091113  1
  O  O285  1  0.00266928  0.11622898  0.50270840  1
  O  O286  1  0.00461269  0.62786940  0.00038915  1
  O  O287  1  -0.00799110  0.62682982  0.51785577  1
  O  O288  1  0.49126152  0.11431482  0.01331929  1
  O  O289  1  0.49549314  0.12200307  0.44652805  1
  O  O290  1  0.51681951  0.63129815  -0.00156509  1
  O  O291  1  0.52169847  0.62552166  0.50136435  1
  O  O292  1  0.50087032  0.35950587  0.49446686  1
  O  O293  1  0.50719373  0.37663670  0.98825263  1
  O  O294  1  0.49675137  0.86609532  0.48623330  1
  O  O295  1  0.48829628  0.89281695  1.00025962  1
  O  O296  1  0.99107318  0.38150068  0.48611112  1
  O  O297  1  1.00839993  0.36775954  0.97785146  1
  O  O298  1  0.98932348  0.88633993  0.49412856  1
  O  O299  1  1.00070237  0.89694613  0.98584897  1
  O  O300  1  0.50912926  0.48559676  0.38471352  1
  O  O301  1  0.53339540  0.46994216  0.86539049  1
  O  O302  1  0.51423261  0.98837861  0.36887445  1
  O  O303  1  0.50433969  1.01881009  0.88803738  1
  O  O304  1  0.99129063  0.48912879  0.36836925  1
  O  O305  1  0.99290468  0.48436014  0.86713657  1
  O  O306  1  0.98969218  0.99440001  0.38276503  1
  O  O307  1  0.98814246  1.00700999  0.87552706  1
  O  O308  1  -0.00047215  -0.00454904  0.11791765  1
  O  O309  1  0.00450199  0.00408810  0.61827955  1
  O  O310  1  0.00738861  0.52123584  0.13220169  1
  O  O311  1  0.00467983  0.50385807  0.62492329  1
  O  O312  1  0.50580825  0.01284919  0.11684622  1
  O  O313  1  0.50911844  0.00680707  0.61825380  1
  O  O314  1  0.51166882  0.51906452  0.12850664  1
  O  O315  1  0.49763078  0.42538585  0.65974414  1
  O  O316  1  0.23272112  0.38938985  0.25177882  1
  O  O317  1  0.22733178  0.36635197  0.73354324  1
  O  O318  1  0.22165294  0.85539968  0.26992133  1
  O  O319  1  0.25475267  0.89185519  0.71824653  1
  O  O320  1  0.73296804  0.39869380  0.23881184  1
  O  O321  1  0.75562489  0.38839405  0.73810330  1
  O  O322  1  0.73332712  0.87317471  0.25355034  1
  O  O323  1  0.74081912  0.88941287  0.73499451  1
  O  O324  1  0.27074749  0.13432085  0.26505331  1
  O  O325  1  0.24583294  0.12374454  0.75485853  1
  O  O326  1  0.23505722  0.62063161  0.24234372  1
  O  O327  1  0.25971074  0.62612771  0.76658905  1
  O  O328  1  0.82494072  0.13606118  0.18573540  1
  O  O329  1  0.74126432  0.11616813  0.73922984  1
  O  O330  1  0.74278505  0.61824628  0.26098250  1
  O  O331  1  0.76456960  0.62031125  0.75453712  1
  O  O332  1  0.33811525  0.17774738  0.29027407  1
  O  O333  1  0.36354835  0.12222198  0.86865458  1
  O  O334  1  0.36424122  0.54752058  0.44975505  1
  O  O335  1  0.36554379  0.62677894  0.86588737  1
  O  O336  1  0.87039521  0.10974098  0.37878351  1
  O  O337  1  0.85074234  0.10610032  0.86968052  1
  O  O338  1  0.86281365  0.62722863  0.37696240  1
  O  O339  1  0.87349971  0.62112643  0.86528484  1
  O  O340  1  0.11374291  0.38576635  0.13657605  1
  O  O341  1  0.11487752  0.38337798  0.63091012  1
  O  O342  1  0.12117559  0.88616875  0.13946314  1
  O  O343  1  0.13635780  0.88627802  0.61377681  1
  O  O344  1  0.62318072  0.39811495  0.12572333  1
  O  O345  1  0.64889990  0.38295703  0.60179283  1
  O  O346  1  0.62129755  0.86951372  0.13486811  1
  O  O347  1  0.63130015  0.88193737  0.62959011  1
  O  O348  1  0.13139496  0.26723789  0.25620315  1
  O  O349  1  0.11719495  0.25719847  0.75580542  1
  O  O350  1  0.10470855  0.76102738  0.23587780  1
  O  O351  1  0.15241186  0.76073073  0.75205070  1
  O  O352  1  0.61304309  0.28242417  0.23458837  1
  O  O353  1  0.58637200  0.27295773  0.70001831  1
  O  O354  1  0.62693983  0.75883568  0.26226196  1
  O  O355  1  0.62641752  0.76548197  0.75888379  1
  O  O356  1  0.34543306  0.24830636  0.25215443  1
  O  O357  1  0.39075068  0.30235283  0.74402389  1
  O  O358  1  0.36702409  0.76038372  0.23211781  1
  O  O359  1  0.36511872  0.74077388  0.73541306  1
  O  O360  1  0.94502038  0.17587744  0.25742403  1
  O  O361  1  0.89126829  0.25213613  0.75318329  1
  O  O362  1  0.89305356  0.75972949  0.23366627  1
  O  O363  1  0.87655418  0.73699675  0.75032264  1
  O  O364  1  0.52613814  0.49254377  0.64614953  1
  O  O365  1  0.34942770  0.49694222  1.02423764  1
  O  O366  1  0.38566585  0.97085996  0.50915013  1
  O  O367  1  0.38406065  0.99247833  0.99659370  1
  O  O368  1  0.87826698  0.48730057  0.49281481  1
  O  O369  1  0.86781432  0.50890387  0.98403087  1
  O  O370  1  0.88122364  0.99140645  0.49347949  1
  O  O371  1  0.88420142  1.00249859  0.99123347  1
  O  O372  1  0.11812666  -0.00103340  0.02075350  1
  O  O373  1  0.11185098  0.00799504  0.50360150  1
  O  O374  1  0.12317325  0.48887476  0.01613831  1
  O  O375  1  0.11172068  0.49979360  0.50995617  1
  O  O376  1  0.60726765  -0.00592388  0.01145412  1
  O  O377  1  0.62958139  -0.00465632  0.51035614  1
  O  O378  1  0.63248687  0.51612271  0.01695073  1
  O  O379  1  0.63707867  0.51671323  0.50122815  1
  O  O380  1  0.36547068  0.38302386  0.13447046  1
  O  O381  1  0.34162350  0.39841248  0.61817744  1
  O  O382  1  0.38476995  0.86230080  0.11427182  1
  O  O383  1  0.36723537  0.85863123  0.61642892  1
  O  O384  1  0.85981057  0.38634701  0.13696132  1
  O  O385  1  0.87522099  0.37664860  0.61591531  1
  O  O386  1  0.87479200  0.86504106  0.12043388  1
  O  O387  1  0.86001826  0.88573306  0.61875830  1
  O  O388  1  0.11087919  0.13688753  0.38091062  1
  O  O389  1  0.12604674  0.13494237  0.86835747  1
  O  O390  1  0.17959555  0.67595744  0.39968108  1
  O  O391  1  0.13843672  0.61711866  0.86831273  1
  O  O392  1  0.67392313  0.13516329  0.29202863  1
  O  O393  1  0.63802445  0.13479103  0.84974172  1
  O  O394  1  0.63321826  0.63590080  0.37839060  1
  O  O395  1  0.63171494  0.64339760  0.87441382  1
