# generated using pymatgen
data_V35Zn35O128
_symmetry_space_group_name_H-M   'P 1'
_cell_length_a   16.89928471
_cell_length_b   16.86656870
_cell_length_c   16.86976158
_cell_angle_alpha   89.85805718
_cell_angle_beta   89.98092134
_cell_angle_gamma   90.06459712
_symmetry_Int_Tables_number   1
_chemical_formula_structural   V35Zn35O128
_chemical_formula_sum   'V70 Zn70 O256'
_cell_volume   4808.41976557
_cell_formula_units_Z   2
loop_
 _symmetry_equiv_pos_site_id
 _symmetry_equiv_pos_as_xyz
  1  'x, y, z'
loop_
 _atom_site_type_symbol
 _atom_site_label
 _atom_site_symmetry_multiplicity
 _atom_site_fract_x
 _atom_site_fract_y
 _atom_site_fract_z
 _atom_site_occupancy
  V  V0  1  0.13304965  -0.00116256  0.12617723  1
  V  V1  1  -0.00216796  0.12319855  0.11979341  1
  V  V2  1  0.25738574  0.00833492  0.75758033  1
  V  V3  1  0.74360064  0.50902411  0.75059714  1
  V  V4  1  0.25029570  0.76362089  -0.01287817  1
  V  V5  1  0.87239453  0.00003649  0.36891497  1
  V  V6  1  0.10325435  0.38036409  0.74919532  1
  V  V7  1  0.50517616  0.37209635  0.88180336  1
  V  V8  1  0.74194210  0.13161777  0.38019500  1
  V  V9  1  0.50372880  0.61510320  0.11790388  1
  V  V10  1  0.49283208  0.25490865  0.73199707  1
  V  V11  1  0.00050705  0.87288102  0.37214596  1
  V  V12  1  0.01249963  0.25518000  0.25911517  1
  V  V13  1  -0.00106656  0.13068917  0.64025143  1
  V  V14  1  0.12213268  0.87652999  0.76349183  1
  V  V15  1  0.63748709  0.74046831  0.89836321  1
  V  V16  1  0.52784490  0.36876200  0.37078670  1
  V  V17  1  0.09896400  0.25110213  0.88220594  1
  V  V18  1  0.12559986  0.13179604  0.49052133  1
  V  V19  1  0.36934964  0.24107093  0.14553528  1
  V  V20  1  0.76462464  0.08016343  0.85688472  1
  V  V21  1  0.87018241  0.62710658  0.76005090  1
  V  V22  1  0.87504351  0.37127236  0.49947671  1
  V  V23  1  0.25990986  0.25276000  0.50674283  1
  V  V24  1  0.51555546  0.87719131  0.36727031  1
  V  V25  1  0.13257250  0.62660871  -0.01130604  1
  V  V26  1  0.36465772  0.76074493  0.12385730  1
  V  V27  1  0.36884570  0.00345771  0.36047290  1
  V  V28  1  0.25100912  0.12618198  0.35899895  1
  V  V29  1  0.73974906  0.88242745  0.13188739  1
  V  V30  1  0.37298586  0.49738748  0.89923668  1
  V  V31  1  0.00642172  0.75404728  0.76126068  1
  V  V32  1  0.00038691  0.75108108  0.24662277  1
  V  V33  1  0.36957399  0.87325917  0.49765951  1
  V  V34  1  0.50567911  0.01090637  0.50978232  1
  V  V35  1  0.00622320  0.62150052  0.62469725  1
  V  V36  1  0.87527993  0.49383752  0.88558570  1
  V  V37  1  0.12861248  0.00267960  0.62469050  1
  V  V38  1  0.13940841  0.74883482  0.38261046  1
  V  V39  1  0.13931014  0.87827284  0.24456905  1
  V  V40  1  0.25596994  0.14514222  0.88667553  1
  V  V41  1  0.36187900  0.62900923  0.26396447  1
  V  V42  1  0.37988738  0.13510514  0.73942806  1
  V  V43  1  -0.00004394  0.00182972  0.49634667  1
  V  V44  1  0.86989024  0.74721322  0.62153226  1
  V  V45  1  0.63599433  0.36636455  0.73914871  1
  V  V46  1  0.51459112  0.75284463  0.24741991  1
  V  V47  1  0.86712783  0.75157545  0.12148687  1
  V  V48  1  0.37220565  0.61250353  0.75395850  1
  V  V49  1  0.36596541  0.48762930  0.37848054  1
  V  V50  1  0.87555304  0.49785240  0.37623712  1
  V  V51  1  0.26163554  0.39115883  0.14539425  1
  V  V52  1  0.87220472  0.13279386  0.24579622  1
  V  V53  1  -0.00087637  -0.01075207  -0.00722418  1
  V  V54  1  0.87702548  0.25119676  0.63531846  1
  V  V55  1  0.52003817  -0.00354916  -0.01160277  1
  V  V56  1  0.73534104  0.49882481  0.24473527  1
  V  V57  1  0.49507195  0.86410172  0.86235066  1
  V  V58  1  0.74198802  0.24953422  0.50529336  1
  V  V59  1  0.24783271  0.86673571  0.62262548  1
  V  V60  1  0.87456418  0.62602119  0.25461019  1
  V  V61  1  0.87015584  0.87248327  -0.01492728  1
  V  V62  1  0.87145779  0.87081329  0.50036942  1
  V  V63  1  0.73446054  0.62775713  0.37934677  1
  V  V64  1  0.00726351  0.49417089  0.50202317  1
  V  V65  1  0.73590591  0.74797832  0.49466066  1
  V  V66  1  0.62750514  0.52675576  0.62036031  1
  V  V67  1  0.73863965  0.35493451  0.12464484  1
  V  V68  1  0.40257337  0.75144631  0.62983871  1
  V  V69  1  0.73876154  0.22491345  -0.02587098  1
  Zn  Zn70  1  0.73138430  -0.00373120  0.25260887  1
  Zn  Zn71  1  0.50645699  0.50767622  0.49793117  1
  Zn  Zn72  1  0.14418526  0.61983515  0.48956057  1
  Zn  Zn73  1  0.01558291  0.61223166  0.12673989  1
  Zn  Zn74  1  0.01414999  0.48611539  0.00348496  1
  Zn  Zn75  1  0.87604445  0.34719689  0.00221480  1
  Zn  Zn76  1  0.18654838  0.19304437  0.17608774  1
  Zn  Zn77  1  0.20841651  0.23318905  0.71190213  1
  Zn  Zn78  1  0.18718715  0.68569463  0.18251690  1
  Zn  Zn79  1  0.21687620  0.65106507  0.65977374  1
  Zn  Zn80  1  0.67887454  0.16991164  0.18217177  1
  Zn  Zn81  1  0.68705083  0.17654971  0.75362388  1
  Zn  Zn82  1  0.68779558  0.68274762  0.18124178  1
  Zn  Zn83  1  0.65170505  0.73307960  0.67430139  1
  Zn  Zn84  1  0.30891923  0.30845890  0.31362833  1
  Zn  Zn85  1  0.30701832  0.33741861  0.82967839  1
  Zn  Zn86  1  0.31943620  0.81330835  0.31056299  1
  Zn  Zn87  1  0.31325580  0.81378786  0.80693407  1
  Zn  Zn88  1  0.80873048  0.31730153  0.31015229  1
  Zn  Zn89  1  0.81775621  0.31559052  0.81641969  1
  Zn  Zn90  1  0.80576843  0.81246244  0.31109008  1
  Zn  Zn91  1  0.79044480  0.80432316  0.80777007  1
  Zn  Zn92  1  0.19289925  0.43843720  0.43407278  1
  Zn  Zn93  1  0.17981390  0.43773886  0.93123281  1
  Zn  Zn94  1  0.18900859  0.93937687  0.43455280  1
  Zn  Zn95  1  0.19261279  0.94433912  0.94402101  1
  Zn  Zn96  1  0.68873665  0.43643293  0.44228579  1
  Zn  Zn97  1  0.69651197  0.41561467  0.92478808  1
  Zn  Zn98  1  0.68883408  0.94285905  0.44761261  1
  Zn  Zn99  1  0.68219268  0.92405410  0.93991213  1
  Zn  Zn100  1  0.31941979  0.06740235  0.07024060  1
  Zn  Zn101  1  0.31710784  0.06257390  0.55713701  1
  Zn  Zn102  1  0.30997415  0.57474869  0.07227275  1
  Zn  Zn103  1  0.33552437  0.58828240  0.53735132  1
  Zn  Zn104  1  0.80931866  0.05594780  0.05397812  1
  Zn  Zn105  1  0.81502186  0.06767521  0.56633679  1
  Zn  Zn106  1  0.84834188  0.52355874  0.09416990  1
  Zn  Zn107  1  0.81051135  0.56304591  0.56521054  1
  Zn  Zn108  1  0.43803728  0.43575785  0.19644260  1
  Zn  Zn109  1  0.46505065  0.46783853  0.71489361  1
  Zn  Zn110  1  0.44355687  0.93803326  0.18320871  1
  Zn  Zn111  1  0.43930700  0.93417394  0.69202347  1
  Zn  Zn112  1  0.95441304  0.40413467  0.14684440  1
  Zn  Zn113  1  0.93439409  0.43752844  0.68791368  1
  Zn  Zn114  1  0.93692162  0.93717565  0.18326895  1
  Zn  Zn115  1  0.95136987  0.92708974  0.67494306  1
  Zn  Zn116  1  0.06262447  0.06437947  0.30675680  1
  Zn  Zn117  1  0.07391726  0.06925683  0.81835708  1
  Zn  Zn118  1  0.05989698  0.56820341  0.31907267  1
  Zn  Zn119  1  0.06359418  0.56046022  0.82004612  1
  Zn  Zn120  1  0.55410787  0.06943678  0.32359366  1
  Zn  Zn121  1  0.54932766  0.08441815  0.84879363  1
  Zn  Zn122  1  0.54966344  0.56249418  0.31179019  1
  Zn  Zn123  1  0.54802851  0.57697142  0.81993059  1
  Zn  Zn124  1  0.43788328  0.19413768  0.43819063  1
  Zn  Zn125  1  0.43741614  0.18914312  0.93226700  1
  Zn  Zn126  1  0.44912900  0.69301866  0.43879003  1
  Zn  Zn127  1  0.43553964  0.68925183  0.93710880  1
  Zn  Zn128  1  0.93618299  0.19016838  0.43223634  1
  Zn  Zn129  1  0.92079966  0.17503391  0.93777225  1
  Zn  Zn130  1  0.94188005  0.68402037  0.43765163  1
  Zn  Zn131  1  0.94244770  0.68359530  0.94256145  1
  Zn  Zn132  1  0.06578072  0.29865083  0.05578543  1
  Zn  Zn133  1  0.06828124  0.31305094  0.56706575  1
  Zn  Zn134  1  0.06494541  0.80938333  0.05735708  1
  Zn  Zn135  1  0.06346322  0.80892149  0.56735717  1
  Zn  Zn136  1  0.57327455  0.31003068  0.05942671  1
  Zn  Zn137  1  0.55963067  0.32399387  0.55977764  1
  Zn  Zn138  1  0.55706429  0.81083328  0.05734354  1
  Zn  Zn139  1  0.56459818  0.83962100  0.55914686  1
  O  O140  1  0.10913968  0.10855366  0.13501114  1
  O  O141  1  0.10894900  0.11535240  0.60795268  1
  O  O142  1  0.12671864  0.62339455  0.11580072  1
  O  O143  1  0.10316013  0.62740893  0.64139390  1
  O  O144  1  0.61546126  0.07549300  0.16263502  1
  O  O145  1  0.62604777  0.09384309  0.65474080  1
  O  O146  1  0.60465369  0.62835777  0.13210000  1
  O  O147  1  0.63551695  0.62593209  0.63563923  1
  O  O148  1  0.36970051  0.38706080  0.37379670  1
  O  O149  1  0.39349214  0.38274084  0.88475208  1
  O  O150  1  0.37522120  0.88740733  0.38026900  1
  O  O151  1  0.39320194  0.86736618  0.87086295  1
  O  O152  1  0.86874217  0.38812043  0.38301733  1
  O  O153  1  0.87069803  0.38791445  0.88791385  1
  O  O154  1  0.88278496  0.87970849  0.38003784  1
  O  O155  1  0.86488082  0.86011020  0.88725703  1
  O  O156  1  0.26064498  0.00780057  0.37480421  1
  O  O157  1  0.24094792  0.00985751  0.85908284  1
  O  O158  1  0.26580394  0.50856830  0.38472530  1
  O  O159  1  0.27495862  0.47459011  0.87896659  1
  O  O160  1  0.75757897  0.00903031  0.37675289  1
  O  O161  1  0.75431403  -0.01914595  0.87016271  1
  O  O162  1  0.75724184  0.51301548  0.37231624  1
  O  O163  1  0.75760723  0.49270822  0.85639055  1
  O  O164  1  0.26437061  0.49210026  0.13768374  1
  O  O165  1  0.27780875  0.40469678  0.64761814  1
  O  O166  1  0.23126187  1.00734753  0.11981342  1
  O  O167  1  0.24012446  0.99916718  0.63160453  1
  O  O168  1  0.74558941  0.52485072  0.14680465  1
  O  O169  1  0.74837022  0.50245761  0.64175856  1
  O  O170  1  0.75715420  0.98723667  0.13089648  1
  O  O171  1  0.75849362  0.98252664  0.62031934  1
  O  O172  1  -0.01474387  0.35177818  0.23846932  1
  O  O173  1  0.00136253  0.37864370  0.75664740  1
  O  O174  1  0.00186816  0.86969283  0.25994337  1
  O  O175  1  0.00388829  0.86548611  0.74957521  1
  O  O176  1  0.50359416  0.38074955  0.27027430  1
  O  O177  1  0.50644750  0.36369153  0.74704847  1
  O  O178  1  0.50068111  0.87056524  0.25833852  1
  O  O179  1  0.50685508  0.87679911  0.76066264  1
  O  O180  1  0.51945843  0.16706786  0.25750526  1
  O  O181  1  0.48916990  0.14013704  0.75840641  1
  O  O182  1  0.49302823  0.64422857  0.25171181  1
  O  O183  1  0.47572975  0.62784846  0.74681151  1
  O  O184  1  0.98798377  0.12912958  0.24572560  1
  O  O185  1  1.00406380  0.11721027  0.73762437  1
  O  O186  1  0.99257197  0.63382102  0.25033356  1
  O  O187  1  0.98900592  0.63310557  0.74400941  1
  O  O188  1  0.41318614  0.25499074  0.02979552  1
  O  O189  1  0.35979636  0.24725120  0.50341360  1
  O  O190  1  0.36190842  0.74257595  0.01485783  1
  O  O191  1  0.38290220  0.76580322  0.50906020  1
  O  O192  1  0.84525937  0.23536864  0.00296326  1
  O  O193  1  0.87780964  0.25923033  0.50215355  1
  O  O194  1  0.88250647  0.75780714  0.01544529  1
  O  O195  1  0.87842719  0.75653940  0.50281407  1
  O  O196  1  0.11463765  0.23164884  0.49495236  1
  O  O197  1  0.12331562  0.23837016  0.98210980  1
  O  O198  1  0.11973526  0.75335528  0.48523861  1
  O  O199  1  0.14158263  0.74705196  1.00375750  1
  O  O200  1  0.64466512  0.25252665  0.51684547  1
  O  O201  1  0.64426104  0.22858148  1.01670805  1
  O  O202  1  0.63885720  0.75537150  0.49647540  1
  O  O203  1  0.62645560  0.74115128  0.99956885  1
  O  O204  1  0.47449795  0.24955793  0.08939772  1
  O  O205  1  0.50101854  0.25357020  0.63287705  1
  O  O206  1  0.49215996  0.75067097  0.13766509  1
  O  O207  1  0.50093403  0.75664167  0.62044096  1
  O  O208  1  1.00294405  0.22620369  0.12994530  1
  O  O209  1  0.99388708  0.23663747  0.62168090  1
  O  O210  1  0.99106688  0.75683603  0.13962139  1
  O  O211  1  0.99023953  0.74006315  0.63072939  1
  O  O212  1  0.00171153  0.24639802  0.35972535  1
  O  O213  1  -0.00132099  0.23818061  0.88329485  1
  O  O214  1  0.00476920  0.75832108  0.36695792  1
  O  O215  1  -0.00766211  0.74789417  0.85875185  1
  O  O216  1  0.50297990  0.26976173  0.38847478  1
  O  O217  1  0.49598143  0.26680384  0.86193501  1
  O  O218  1  0.49875033  0.76987678  0.36355776  1
  O  O219  1  0.50995681  0.75661049  0.88062468  1
  O  O220  1  0.23550198  0.12608757  0.49462802  1
  O  O221  1  0.26330762  0.11275698  0.98166870  1
  O  O222  1  0.23007593  0.60721879  0.55584177  1
  O  O223  1  0.23999642  0.63731714  1.00353368  1
  O  O224  1  0.75872915  0.13320953  0.48879341  1
  O  O225  1  0.74987424  0.11733703  0.97722792  1
  O  O226  1  0.75618799  0.63558755  0.48840688  1
  O  O227  1  0.67349000  0.57379194  1.00118527  1
  O  O228  1  0.21402272  0.37584915  0.03649528  1
  O  O229  1  0.22844609  0.34854536  0.48782438  1
  O  O230  1  0.24898194  0.86485358  0.00080813  1
  O  O231  1  0.25854846  0.88650442  0.50988952  1
  O  O232  1  0.74112210  0.34779350  0.00558836  1
  O  O233  1  0.76217668  0.35873794  0.49709815  1
  O  O234  1  0.76781162  0.87884671  0.01547201  1
  O  O235  1  0.76215489  0.86015150  0.48637833  1
  O  O236  1  0.11322147  0.46813297  0.27995950  1
  O  O237  1  0.12485475  0.48039886  0.77035958  1
  O  O238  1  0.11882712  0.98622016  0.24228325  1
  O  O239  1  0.13081631  0.99820360  0.74018602  1
  O  O240  1  0.63825659  0.50753600  0.25962555  1
  O  O241  1  0.63688540  0.50247642  0.74320012  1
  O  O242  1  0.61537104  1.02573401  0.22928183  1
  O  O243  1  0.61912577  1.02766689  0.68538026  1
  O  O244  1  0.38014998  -0.00268236  0.26163612  1
  O  O245  1  0.36088648  0.00786144  0.74701272  1
  O  O246  1  0.38178420  0.52056122  0.26988708  1
  O  O247  1  0.36213391  0.51210291  0.73439830  1
  O  O248  1  0.87821558  0.00459889  0.26224872  1
  O  O249  1  0.79580290  -0.04320058  0.69065400  1
  O  O250  1  0.86517189  0.51474540  0.26181651  1
  O  O251  1  0.87110187  0.50999516  0.75786611  1
  O  O252  1  0.11675458  0.41360403  0.33344833  1
  O  O253  1  0.11855595  0.35857766  0.87488073  1
  O  O254  1  0.11803753  0.87156575  0.36619614  1
  O  O255  1  0.12932053  0.88558097  0.86151394  1
  O  O256  1  0.63078792  0.37277941  0.37018510  1
  O  O257  1  0.61369568  0.38630933  0.84933994  1
  O  O258  1  0.61400740  0.88807228  0.37237914  1
  O  O259  1  0.61827997  0.85183671  0.88148306  1
  O  O260  1  0.36658803  0.13944558  0.14144265  1
  O  O261  1  0.37216849  0.12070005  0.64032980  1
  O  O262  1  0.38358616  0.63803360  0.14261381  1
  O  O263  1  0.37613503  0.64867741  0.62749910  1
  O  O264  1  0.88157997  0.11169115  0.14048362  1
  O  O265  1  0.89254204  0.13293594  0.61972839  1
  O  O266  1  0.87010305  0.64315120  0.13986222  1
  O  O267  1  0.88333415  0.63027060  0.63346325  1
  O  O268  1  0.26469984  0.25874246  0.12776717  1
  O  O269  1  0.23736794  0.23660879  0.60420310  1
  O  O270  1  0.26173891  0.75483288  0.12692438  1
  O  O271  1  0.23847724  0.76850195  0.62825432  1
  O  O272  1  0.74258546  0.25572436  0.14703965  1
  O  O273  1  0.77257797  0.23590513  0.60914133  1
  O  O274  1  0.76255911  0.75919123  0.13286742  1
  O  O275  1  0.76463519  0.74052007  0.60479040  1
  O  O276  1  0.25505814  0.22875968  0.38420021  1
  O  O277  1  0.26040200  0.24691492  0.88820840  1
  O  O278  1  0.23733222  0.76136884  0.37604594  1
  O  O279  1  0.25914609  0.75473070  0.88766967  1
  O  O280  1  0.75630618  0.23916746  0.38464892  1
  O  O281  1  0.74225044  0.24724738  0.87310177  1
  O  O282  1  0.75393768  0.73848233  0.38308524  1
  O  O283  1  0.74399851  0.74426549  0.89732436  1
  O  O284  1  -0.01420721  0.10815736  0.01636237  1
  O  O285  1  0.00692246  0.11233646  0.49077389  1
  O  O286  1  0.01888197  0.63698111  0.00912030  1
  O  O287  1  0.00486511  0.61936424  0.51328717  1
  O  O288  1  0.50477808  0.10175620  -0.04084581  1
  O  O289  1  0.49474956  0.10971300  0.49099192  1
  O  O290  1  0.49107740  0.62891335  0.01847937  1
  O  O291  1  0.51723369  0.62033304  0.48567711  1
  O  O292  1  0.51619171  0.39290455  0.48463093  1
  O  O293  1  0.52740914  0.37949941  0.97850748  1
  O  O294  1  0.49177382  0.88408302  0.48302083  1
  O  O295  1  0.50405136  0.88609087  0.98949249  1
  O  O296  1  0.99467660  0.38861713  0.50496804  1
  O  O297  1  0.98527891  0.37426981  1.03305706  1
  O  O298  1  0.99536488  0.88306315  0.49139838  1
  O  O299  1  0.98881749  0.88005455  1.00166744  1
  O  O300  1  0.49376890  0.48873420  0.37617646  1
  O  O301  1  0.48471413  0.48511678  0.85152653  1
  O  O302  1  0.48793907  0.99355656  0.37756628  1
  O  O303  1  0.51362770  0.97766932  0.87840559  1
  O  O304  1  0.98603573  0.51293362  0.39370195  1
  O  O305  1  0.97928536  0.50775162  0.88765455  1
  O  O306  1  0.99457199  0.99186847  0.37874353  1
  O  O307  1  1.01427514  1.00839216  0.89586668  1
  O  O308  1  0.00590751  0.00382203  0.12016086  1
  O  O309  1  0.00253109  0.00930863  0.61571149  1
  O  O310  1  -0.03624396  0.51247325  0.10941785  1
  O  O311  1  -0.01039838  0.51177144  0.61329798  1
  O  O312  1  0.47418873  0.01058399  0.09709348  1
  O  O313  1  0.48768487  -0.00528502  0.60848151  1
  O  O314  1  0.49114010  0.51650613  0.13585428  1
  O  O315  1  0.52382936  0.50670490  0.62412024  1
  O  O316  1  0.24206439  0.37151522  0.24405242  1
  O  O317  1  0.23735466  0.34437672  0.74380611  1
  O  O318  1  0.23716604  0.87576300  0.25236928  1
  O  O319  1  0.24290625  0.89056658  0.74250027  1
  O  O320  1  0.75372036  0.39095440  0.23827472  1
  O  O321  1  0.73991150  0.38088904  0.75049174  1
  O  O322  1  0.74806255  0.87959051  0.24128164  1
  O  O323  1  0.75557881  0.90105761  0.72648789  1
  O  O324  1  0.23949652  0.12696312  0.26133982  1
  O  O325  1  0.25848175  0.12220275  0.75227551  1
  O  O326  1  0.26261360  0.63435757  0.25283189  1
  O  O327  1  0.27462996  0.64917542  0.75407688  1
  O  O328  1  0.76002903  0.12010642  0.26085732  1
  O  O329  1  0.77183786  0.10443379  0.75261178  1
  O  O330  1  0.75539199  0.62637099  0.26526563  1
  O  O331  1  0.76475517  0.61596899  0.74952359  1
  O  O332  1  0.36423066  0.11264094  0.37552691  1
  O  O333  1  0.36235564  0.13222368  0.85683539  1
  O  O334  1  0.37424557  0.64048138  0.36636118  1
  O  O335  1  0.38040315  0.60526923  0.86774810  1
  O  O336  1  0.87009181  0.11662944  0.36547092  1
  O  O337  1  0.86432387  0.10248258  0.87463952  1
  O  O338  1  0.87127820  0.62031096  0.36989602  1
  O  O339  1  0.87721152  0.62452065  0.86228200  1
  O  O340  1  0.15354849  0.37619105  0.09504653  1
  O  O341  1  0.11571572  0.37494559  0.64582941  1
  O  O342  1  0.11974168  0.88127163  0.13882733  1
  O  O343  1  0.12600463  0.88740036  0.62979454  1
  O  O344  1  0.64077618  0.38110183  0.12201302  1
  O  O345  1  0.62430668  0.38897943  0.63933993  1
  O  O346  1  0.64267267  0.86900988  0.11805339  1
  O  O347  1  0.64082944  0.83923411  0.63737632  1
  O  O348  1  0.11139694  0.24764589  0.24356253  1
  O  O349  1  0.11308560  0.25991357  0.76688695  1
  O  O350  1  0.11849935  0.76241196  0.25882721  1
  O  O351  1  0.10828763  0.76117393  0.74772188  1
  O  O352  1  0.57478023  0.21567995  0.23787914  1
  O  O353  1  0.61647227  0.26101307  0.73935982  1
  O  O354  1  0.61316249  0.75065309  0.24728628  1
  O  O355  1  0.68465395  0.76318753  0.77823383  1
  O  O356  1  0.38394862  0.25455795  0.24519578  1
  O  O357  1  0.38349805  0.24515190  0.74179773  1
  O  O358  1  0.38125564  0.74660413  0.24320939  1
  O  O359  1  0.38143419  0.76417039  0.72918148  1
  O  O360  1  0.87536405  0.23426283  0.25365795  1
  O  O361  1  0.87081325  0.25668221  0.73401807  1
  O  O362  1  0.88224646  0.74536808  0.24956237  1
  O  O363  1  0.87671090  0.74231659  0.74187621  1
  O  O364  1  0.38690366  0.50860665  0.48386173  1
  O  O365  1  0.37768005  0.50866898  0.99684390  1
  O  O366  1  0.38187029  0.99125736  0.49035855  1
  O  O367  1  0.40871294  0.99797039  1.04136363  1
  O  O368  1  0.87672708  0.49135884  0.49654967  1
  O  O369  1  0.84855820  0.51983076  0.97854566  1
  O  O370  1  0.88197910  0.99268207  0.49029208  1
  O  O371  1  0.88747444  0.98258325  1.00221416  1
  O  O372  1  0.11134105  -0.01342876  0.01753372  1
  O  O373  1  0.11655115  0.00216392  0.50561237  1
  O  O374  1  0.12499990  0.51714036  -0.00772142  1
  O  O375  1  0.10883261  0.49940898  0.48999469  1
  O  O376  1  0.61922433  -0.00313086  0.00641396  1
  O  O377  1  0.60748202  -0.00566862  0.50403652  1
  O  O378  1  0.63610455  0.51129647  -0.00644003  1
  O  O379  1  0.64700285  0.50737254  0.52088593  1
  O  O380  1  0.36587020  0.36905968  0.13497735  1
  O  O381  1  0.34207847  0.38668583  0.61966078  1
  O  O382  1  0.37906719  0.85970320  0.13067092  1
  O  O383  1  0.36736228  0.86929810  0.61736077  1
  O  O384  1  0.83942830  0.39792121  0.10745268  1
  O  O385  1  0.88288343  0.36037720  0.61481376  1
  O  O386  1  0.86962369  0.86193051  0.12746365  1
  O  O387  1  0.88527375  0.86285141  0.60943399  1
  O  O388  1  0.13594747  0.11020094  0.38369680  1
  O  O389  1  0.14618908  0.14354047  0.86466249  1
  O  O390  1  0.12551017  0.64282194  0.37508910  1
  O  O391  1  0.12054519  0.63365183  0.88746412  1
  O  O392  1  0.64343345  0.12218734  0.37354407  1
  O  O393  1  0.65611324  0.11537848  0.84904933  1
  O  O394  1  0.63707812  0.62332354  0.37440242  1
  O  O395  1  0.62032121  0.64153582  0.86918030  1
