# generated using pymatgen
data_V35Zn35O128
_symmetry_space_group_name_H-M   'P 1'
_cell_length_a   16.84299396
_cell_length_b   16.84763466
_cell_length_c   16.82573166
_cell_angle_alpha   90.10164440
_cell_angle_beta   90.00393383
_cell_angle_gamma   89.96402138
_symmetry_Int_Tables_number   1
_chemical_formula_structural   V35Zn35O128
_chemical_formula_sum   'V70 Zn70 O256'
_cell_volume   4774.53869562
_cell_formula_units_Z   2
loop_
 _symmetry_equiv_pos_site_id
 _symmetry_equiv_pos_as_xyz
  1  'x, y, z'
loop_
 _atom_site_type_symbol
 _atom_site_label
 _atom_site_symmetry_multiplicity
 _atom_site_fract_x
 _atom_site_fract_y
 _atom_site_fract_z
 _atom_site_occupancy
  V  V0  1  0.24946713  0.26607215  -0.00485842  1
  V  V1  1  0.00452451  0.86009172  0.36633922  1
  V  V2  1  0.76621206  0.12455795  0.87330638  1
  V  V3  1  0.23632414  0.75807765  -0.00364127  1
  V  V4  1  0.50502550  0.62774625  0.10399728  1
  V  V5  1  0.38605850  0.48729396  0.88746162  1
  V  V6  1  0.50293271  0.87439879  0.36682842  1
  V  V7  1  0.87279788  0.63713996  0.75653772  1
  V  V8  1  0.36858556  0.25650220  0.12246621  1
  V  V9  1  0.88377435  0.89797674  0.00413332  1
  V  V10  1  0.76049710  -0.00007712  0.76156565  1
  V  V11  1  0.25151933  0.76554787  0.49630165  1
  V  V12  1  0.00664953  0.90022965  0.87561136  1
  V  V13  1  0.62155415  0.00908463  0.63015298  1
  V  V14  1  0.36614559  0.11798915  0.75155575  1
  V  V15  1  -0.00269610  0.63177661  0.62282130  1
  V  V16  1  0.00972615  0.36458056  0.37561144  1
  V  V17  1  0.49920938  0.24049679  0.73714067  1
  V  V18  1  0.75419778  0.49219575  0.74837899  1
  V  V19  1  0.37602858  0.62362634  0.74818100  1
  V  V20  1  -0.01068423  0.12751328  0.62873591  1
  V  V21  1  0.13863262  -0.00611494  0.63276337  1
  V  V22  1  -0.00044554  -0.00081165  0.50253997  1
  V  V23  1  0.76665453  0.25681075  0.00397843  1
  V  V24  1  0.87542737  0.48900918  0.38163987  1
  V  V25  1  0.51009775  0.12945213  0.12875609  1
  V  V26  1  0.88042292  0.48388356  0.88065772  1
  V  V27  1  0.36329931  0.12569599  0.25338834  1
  V  V28  1  0.62613977  0.62893330  0.49534765  1
  V  V29  1  0.14274648  0.86804557  0.23472217  1
  V  V30  1  0.62999834  0.75677386  0.36324336  1
  V  V31  1  0.61759533  0.86557358  0.75492628  1
  V  V32  1  0.37337145  0.75652204  0.11132091  1
  V  V33  1  0.86448364  0.27328280  0.61911966  1
  V  V34  1  -0.00176580  0.63798765  0.12083568  1
  V  V35  1  0.87518963  0.63416225  0.25039123  1
  V  V36  1  -0.00123713  0.25484258  0.76035222  1
  V  V37  1  0.76969147  0.74956172  0.01221326  1
  V  V38  1  0.49626921  0.00139490  0.50955038  1
  V  V39  1  0.12720133  0.11588845  0.02133012  1
  V  V40  1  0.69384697  -0.06039146  0.18120317  1
  V  V41  1  0.48994058  0.49416301  0.48622998  1
  V  V42  1  0.62835339  0.49736582  0.62596705  1
  V  V43  1  0.35523924  0.25790761  0.61266586  1
  V  V44  1  0.38275010  0.63161100  0.25207360  1
  V  V45  1  0.61982466  0.49509429  0.10281315  1
  V  V46  1  0.75094570  0.74826309  0.51005309  1
  V  V47  1  0.61462044  0.24711004  0.88145546  1
  V  V48  1  0.23735541  0.62387406  0.88003215  1
  V  V49  1  0.76327834  0.37685292  0.12219967  1
  V  V50  1  0.87567570  0.86989814  0.51154373  1
  V  V51  1  0.12075458  0.49070568  0.61653574  1
  V  V52  1  0.12643063  0.63022427  0.49396273  1
  V  V53  1  0.61736691  0.37522165  0.75477250  1
  V  V54  1  0.37084215  0.75857788  0.62262284  1
  V  V55  1  0.49057253  0.87713577  0.88309224  1
  V  V56  1  0.24238161  0.11712034  0.87517223  1
  V  V57  1  0.74173984  0.50285183  0.25333296  1
  V  V58  1  0.12428884  0.37017679  0.76764106  1
  V  V59  1  0.86098234  0.00349292  0.37326296  1
  V  V60  1  0.25083353  0.49279159  0.74357689  1
  V  V61  1  0.24827282  0.50017417  0.25280906  1
  V  V62  1  0.02380431  0.75208770  0.76429411  1
  V  V63  1  0.49043525  0.00170349  0.00231558  1
  V  V64  1  0.00430366  0.48517572  0.00284779  1
  V  V65  1  0.12891290  0.49688765  0.12963605  1
  V  V66  1  0.13267123  0.13392186  0.48732518  1
  V  V67  1  0.62556158  0.74820907  0.89143477  1
  V  V68  1  0.49767781  0.62843508  0.62697823  1
  V  V69  1  0.36685671  -0.00305363  0.37390889  1
  Zn  Zn70  1  0.75402861  0.87153015  0.63949173  1
  Zn  Zn71  1  0.74319465  0.62068831  0.88484177  1
  Zn  Zn72  1  -0.02091816  0.12997628  0.13108577  1
  Zn  Zn73  1  0.25431346  0.63140953  0.37081101  1
  Zn  Zn74  1  0.19852141  0.93733627  0.05282300  1
  Zn  Zn75  1  0.63052412  0.11956228  0.00562485  1
  Zn  Zn76  1  0.19926111  0.03984355  0.19778717  1
  Zn  Zn77  1  0.18343619  0.18561778  0.67867494  1
  Zn  Zn78  1  0.18476077  0.68746053  0.18434965  1
  Zn  Zn79  1  0.19165688  0.68428285  0.68302693  1
  Zn  Zn80  1  0.82906058  0.12329961  0.24857513  1
  Zn  Zn81  1  0.69208834  0.18601313  0.68845382  1
  Zn  Zn82  1  0.68878280  0.68438136  0.17897931  1
  Zn  Zn83  1  0.68760973  0.68474035  0.69088790  1
  Zn  Zn84  1  0.31204100  0.31413141  0.29563314  1
  Zn  Zn85  1  0.31305970  0.30830310  0.81063859  1
  Zn  Zn86  1  0.31767290  0.81067822  0.30995012  1
  Zn  Zn87  1  0.30827751  0.80656063  0.81267110  1
  Zn  Zn88  1  0.87859478  0.29813487  0.29470246  1
  Zn  Zn89  1  0.81060510  0.30614471  0.80583113  1
  Zn  Zn90  1  0.81040285  0.82018606  0.31498625  1
  Zn  Zn91  1  0.81066484  0.82210317  0.83310000  1
  Zn  Zn92  1  0.17331238  0.44376877  0.42322788  1
  Zn  Zn93  1  0.19025420  0.44741662  0.93906390  1
  Zn  Zn94  1  0.17851967  0.94134578  0.43376357  1
  Zn  Zn95  1  0.18882197  0.93422647  0.80735636  1
  Zn  Zn96  1  0.67691184  0.44162913  0.43098398  1
  Zn  Zn97  1  0.68893417  0.43468993  0.93292200  1
  Zn  Zn98  1  0.68369099  0.93457227  0.44433219  1
  Zn  Zn99  1  0.69348223  0.94214816  0.97754663  1
  Zn  Zn100  1  0.32050168  0.06985914  0.05731669  1
  Zn  Zn101  1  0.31359874  0.07196586  0.56102904  1
  Zn  Zn102  1  0.31459306  0.56640082  0.06228644  1
  Zn  Zn103  1  0.30974577  0.56052778  0.55855162  1
  Zn  Zn104  1  0.80939979  0.06449423  0.06651516  1
  Zn  Zn105  1  0.80678954  0.06089766  0.56574458  1
  Zn  Zn106  1  0.81582161  0.56352350  0.06318167  1
  Zn  Zn107  1  0.81375500  0.56424126  0.56630745  1
  Zn  Zn108  1  0.43077831  0.45122377  0.17651802  1
  Zn  Zn109  1  0.43847205  0.43533442  0.68345143  1
  Zn  Zn110  1  0.43149783  0.94100381  0.18546896  1
  Zn  Zn111  1  0.43484891  0.93559177  0.69591963  1
  Zn  Zn112  1  0.93770614  0.44486476  0.19278450  1
  Zn  Zn113  1  0.94112953  0.43968590  0.68682749  1
  Zn  Zn114  1  0.94364301  0.95445861  0.19316630  1
  Zn  Zn115  1  0.94687567  0.93403706  0.69224211  1
  Zn  Zn116  1  0.05628128  0.05045174  0.30944904  1
  Zn  Zn117  1  0.06669247  0.07439143  0.81327039  1
  Zn  Zn118  1  0.05198687  0.56077970  0.30910312  1
  Zn  Zn119  1  0.05709653  0.55629421  0.80939926  1
  Zn  Zn120  1  0.55036698  0.06397746  0.31374156  1
  Zn  Zn121  1  0.56469249  0.05921500  0.81825366  1
  Zn  Zn122  1  0.56351759  0.57124331  0.30532298  1
  Zn  Zn123  1  0.56099113  0.56562233  0.81657567  1
  Zn  Zn124  1  0.44180711  0.17515195  0.44500696  1
  Zn  Zn125  1  0.43212181  0.18605661  0.93875105  1
  Zn  Zn126  1  0.44137546  0.69197419  0.43939809  1
  Zn  Zn127  1  0.43395828  0.68641953  0.93037874  1
  Zn  Zn128  1  0.92849784  0.19042859  0.44281169  1
  Zn  Zn129  1  0.94788191  0.18255188  0.94400152  1
  Zn  Zn130  1  0.93033837  0.68036785  0.43315791  1
  Zn  Zn131  1  0.94182145  0.68385571  0.94075569  1
  Zn  Zn132  1  0.07380583  0.30832729  0.07170116  1
  Zn  Zn133  1  0.05213621  0.31006132  0.55327325  1
  Zn  Zn134  1  0.05746684  0.81890598  0.05968410  1
  Zn  Zn135  1  0.06447533  0.81066040  0.56812717  1
  Zn  Zn136  1  0.55860038  0.31361260  0.06231681  1
  Zn  Zn137  1  0.55252968  0.32119442  0.56635286  1
  Zn  Zn138  1  0.56291986  0.81850740  0.06975477  1
  Zn  Zn139  1  0.55803715  0.81914215  0.56193347  1
  O  O140  1  0.14294693  0.11501855  0.12079127  1
  O  O141  1  0.11471830  0.11586292  0.61325183  1
  O  O142  1  0.10503957  0.61689130  0.13036077  1
  O  O143  1  0.11582328  0.61814958  0.61750789  1
  O  O144  1  0.60972921  0.12826305  0.12424345  1
  O  O145  1  0.62302884  0.10855267  0.63896488  1
  O  O146  1  0.61147154  0.61871158  0.12125923  1
  O  O147  1  0.61699117  0.62014840  0.62063405  1
  O  O148  1  0.42071330  0.37277380  0.34063152  1
  O  O149  1  0.37121040  0.39000265  0.86448603  1
  O  O150  1  0.38805120  0.88589770  0.37143897  1
  O  O151  1  0.39383106  0.85765747  0.87210371  1
  O  O152  1  0.85745153  0.38927214  0.37972833  1
  O  O153  1  0.87302174  0.38569647  0.86818797  1
  O  O154  1  0.88075714  0.88198408  0.38831134  1
  O  O155  1  0.89663950  0.87091228  0.88613453  1
  O  O156  1  0.26876358  -0.00741192  0.38525277  1
  O  O157  1  0.24690934  0.01777888  0.87017542  1
  O  O158  1  0.24130349  0.51216941  0.35880520  1
  O  O159  1  0.25914930  0.50795121  0.86376169  1
  O  O160  1  0.76214752  -0.00295905  0.39413969  1
  O  O161  1  0.74546112  0.01433302  0.87112265  1
  O  O162  1  0.74557027  0.49818564  0.35904863  1
  O  O163  1  0.76129261  0.50322894  0.86821779  1
  O  O164  1  0.23449338  0.51450714  0.12955116  1
  O  O165  1  0.23440421  0.50635651  0.63340195  1
  O  O166  1  0.26960676  0.99275334  0.12149539  1
  O  O167  1  0.23726668  1.00354862  0.61666283  1
  O  O168  1  0.73735216  0.49462980  0.11838616  1
  O  O169  1  0.73975512  0.50876679  0.63585112  1
  O  O170  1  0.73503958  0.98013098  0.09252874  1
  O  O171  1  0.73865781  0.99535603  0.64279773  1
  O  O172  1  -0.03327044  0.36459576  0.26558026  1
  O  O173  1  0.01403604  0.36838832  0.74704357  1
  O  O174  1  -0.00023540  0.87682672  0.26463020  1
  O  O175  1  -0.00411437  0.85737673  0.76225908  1
  O  O176  1  0.47257117  0.38851853  0.28849010  1
  O  O177  1  0.51005853  0.36150901  0.74706696  1
  O  O178  1  0.50195158  0.88711648  0.26704919  1
  O  O179  1  0.51129994  0.87532804  0.76309245  1
  O  O180  1  0.49100739  0.11676056  0.23402200  1
  O  O181  1  0.48906312  0.13623119  0.75834840  1
  O  O182  1  0.48713685  0.62334206  0.23699458  1
  O  O183  1  0.49034017  0.61826328  0.73706285  1
  O  O184  1  1.07457116  0.22863555  0.22744349  1
  O  O185  1  1.01162554  0.14349428  0.73646662  1
  O  O186  1  0.98563560  0.62278013  0.23821025  1
  O  O187  1  0.99309451  0.63429328  0.74655222  1
  O  O188  1  0.36530971  0.24678930  0.01092149  1
  O  O189  1  0.38040421  0.23661677  0.51514766  1
  O  O190  1  0.36671340  0.74375969  0.00596590  1
  O  O191  1  0.36400532  0.74461911  0.51072972  1
  O  O192  1  0.86563733  0.25004889  -0.00542167  1
  O  O193  1  0.86436727  0.24235355  0.52204399  1
  O  O194  1  0.87309534  0.75569122  0.00197263  1
  O  O195  1  0.86057470  0.75646669  0.49549317  1
  O  O196  1  0.11886244  0.23358917  0.50197956  1
  O  O197  1  0.14491723  0.24019799  1.01190272  1
  O  O198  1  0.13804830  0.73876452  0.50990926  1
  O  O199  1  0.13691416  0.74924743  1.00592845  1
  O  O200  1  0.66814869  0.28953884  0.51019857  1
  O  O201  1  0.63264973  0.24862688  0.98714431  1
  O  O202  1  0.63313965  0.74646210  0.50104858  1
  O  O203  1  0.63863444  0.76327671  0.99418062  1
  O  O204  1  0.49167598  0.23491702  0.11649528  1
  O  O205  1  0.51077211  0.24094921  0.63528910  1
  O  O206  1  0.49099907  0.73737198  0.11345579  1
  O  O207  1  0.48691747  0.73727749  0.61381405  1
  O  O208  1  1.01935894  0.24229159  0.15591704  1
  O  O209  1  0.98741526  0.24045153  0.62517528  1
  O  O210  1  0.99794340  0.73720715  0.11541139  1
  O  O211  1  1.00577920  0.73777001  0.64286256  1
  O  O212  1  -0.01991105  0.26175917  0.37213613  1
  O  O213  1  -0.00239981  0.24456206  0.85909603  1
  O  O214  1  -0.00979248  0.76142928  0.38024713  1
  O  O215  1  0.00844738  0.73905580  0.86435738  1
  O  O216  1  0.53392206  0.22134870  0.38304601  1
  O  O217  1  0.51165048  0.24621926  0.87007120  1
  O  O218  1  0.51212937  0.76519468  0.38150667  1
  O  O219  1  0.51560368  0.75991533  0.88899297  1
  O  O220  1  0.23304784  0.12028965  0.49322823  1
  O  O221  1  0.24601060  0.13139894  0.98937941  1
  O  O222  1  0.23616942  0.62676864  0.49402320  1
  O  O223  1  0.24834294  0.62191302  0.98302693  1
  O  O224  1  0.73854568  0.13425690  0.51856633  1
  O  O225  1  0.74846053  0.13816964  0.98909489  1
  O  O226  1  0.74133734  0.63946287  0.50672615  1
  O  O227  1  0.76158375  0.64177674  0.99842027  1
  O  O228  1  0.24462781  0.36613888  -0.00206395  1
  O  O229  1  0.26490649  0.36005951  0.45250802  1
  O  O230  1  0.24950132  0.85724051  -0.01204678  1
  O  O231  1  0.24287816  0.86358547  0.49950404  1
  O  O232  1  0.74933516  0.36436533  0.00125978  1
  O  O233  1  0.71802730  0.34449138  0.49403933  1
  O  O234  1  0.77445878  0.86364479  -0.01396775  1
  O  O235  1  0.76042114  0.86648293  0.50884508  1
  O  O236  1  0.13342539  0.50949099  0.24031245  1
  O  O237  1  0.12889726  0.48701176  0.74145991  1
  O  O238  1  0.13759058  0.97597878  0.26955536  1
  O  O239  1  0.12706160  1.00893211  0.73731616  1
  O  O240  1  0.63734548  0.51042066  0.23911587  1
  O  O241  1  0.63122465  0.49640452  0.74781368  1
  O  O242  1  0.64277657  0.99998781  0.26839272  1
  O  O243  1  0.62866037  0.98859789  0.74699527  1
  O  O244  1  0.37731964  0.00757758  0.26412296  1
  O  O245  1  0.37482022  0.01884776  0.74383079  1
  O  O246  1  0.35950896  0.51931863  0.23667689  1
  O  O247  1  0.36578854  0.50498272  0.74463478  1
  O  O248  1  0.86120395  0.00295780  0.26927888  1
  O  O249  1  0.85822596  -0.01067246  0.74853266  1
  O  O250  1  0.85962883  0.50646833  0.25884343  1
  O  O251  1  0.87142016  0.50348733  0.75889977  1
  O  O252  1  0.11036578  0.37290852  0.36141221  1
  O  O253  1  0.12389788  0.37904327  0.86609248  1
  O  O254  1  0.10784164  0.86956529  0.37887267  1
  O  O255  1  0.10759575  0.88509802  0.87212961  1
  O  O256  1  0.62169071  0.35782580  0.35255724  1
  O  O257  1  0.63118276  0.36000910  0.86455829  1
  O  O258  1  0.61837905  0.86707404  0.37597312  1
  O  O259  1  0.61844101  0.86469555  0.86857381  1
  O  O260  1  0.37999988  0.13403017  0.13674020  1
  O  O261  1  0.36446164  0.14135183  0.64226414  1
  O  O262  1  0.38819910  0.63042915  0.12587584  1
  O  O263  1  0.38098870  0.62482493  0.62914246  1
  O  O264  1  0.86482372  0.12493054  0.14056468  1
  O  O265  1  0.88876603  0.11789654  0.63212178  1
  O  O266  1  0.88534251  0.61663735  0.13766413  1
  O  O267  1  0.88959296  0.61773472  0.63908497  1
  O  O268  1  0.26656517  0.25358513  0.11588546  1
  O  O269  1  0.25484056  0.25809929  0.62214491  1
  O  O270  1  0.26110229  0.73782700  0.10638122  1
  O  O271  1  0.26240908  0.74332178  0.61323569  1
  O  O272  1  0.75079498  0.26689904  0.10918320  1
  O  O273  1  0.76762002  0.25754046  0.64971175  1
  O  O274  1  0.74755608  0.75434924  0.11046502  1
  O  O275  1  0.74639518  0.75303835  0.61541496  1
  O  O276  1  0.26751345  0.29778813  0.40791588  1
  O  O277  1  0.25654451  0.24703402  0.89008160  1
  O  O278  1  0.25864966  0.74895328  0.39155037  1
  O  O279  1  0.25460631  0.73241742  0.88337054  1
  O  O280  1  0.66513893  0.30782476  0.31927728  1
  O  O281  1  0.74554245  0.24095326  0.87747074  1
  O  O282  1  0.73487224  0.76155676  0.39112365  1
  O  O283  1  0.73994892  0.74674236  0.88522460  1
  O  O284  1  0.01938718  0.13771250  0.01851706  1
  O  O285  1  -0.00136909  0.11518644  0.51340280  1
  O  O286  1  -0.01150455  0.60992723  0.01549215  1
  O  O287  1  0.00560406  0.63751748  0.51655235  1
  O  O288  1  0.50033083  0.11825921  0.00634734  1
  O  O289  1  0.51268986  0.10068552  0.50117980  1
  O  O290  1  0.49699881  0.62084941  0.00505295  1
  O  O291  1  0.50907592  0.61864524  0.50733367  1
  O  O292  1  0.51235718  0.39357667  0.49306494  1
  O  O293  1  0.49918030  0.36861309  0.98509839  1
  O  O294  1  0.50407512  0.88851356  0.48896839  1
  O  O295  1  0.50307064  0.88744242  0.99297634  1
  O  O296  1  0.99995266  0.37717518  0.47829945  1
  O  O297  1  1.00329682  0.38494542  1.00965389  1
  O  O298  1  0.98851644  0.87487884  0.50078276  1
  O  O299  1  0.99748801  0.88409809  0.98591293  1
  O  O300  1  0.51299348  0.51054965  0.38836694  1
  O  O301  1  0.48553872  0.50244709  0.86990405  1
  O  O302  1  0.49946095  0.99116535  0.38763906  1
  O  O303  1  0.49780821  0.98414320  0.87658548  1
  O  O304  1  0.98300442  0.48472346  0.36628355  1
  O  O305  1  0.99087352  0.49979183  0.88675972  1
  O  O306  1  0.98860484  0.98481654  0.39163121  1
  O  O307  1  0.99427782  0.99906225  0.85912942  1
  O  O308  1  0.00650747  0.05013376  0.20730415  1
  O  O309  1  0.00335729  0.00899175  0.62252762  1
  O  O310  1  0.00618386  0.50252169  0.11714633  1
  O  O311  1  0.01391621  0.51614065  0.63463754  1
  O  O312  1  0.49061271  0.00999134  0.11105651  1
  O  O313  1  0.50819479  -0.00944234  0.62069494  1
  O  O314  1  0.51172959  0.50950639  0.12298399  1
  O  O315  1  0.50914674  0.50831927  0.61497476  1
  O  O316  1  0.25761036  0.39951687  0.24920053  1
  O  O317  1  0.23645438  0.38183673  0.75184607  1
  O  O318  1  0.24383676  0.86673272  0.24378373  1
  O  O319  1  0.25807855  0.87579901  0.74501649  1
  O  O320  1  0.75073905  0.39436165  0.22733446  1
  O  O321  1  0.74014627  0.38714256  0.75341420  1
  O  O322  1  0.75542645  0.87926775  0.23356572  1
  O  O323  1  0.73969446  0.88540114  0.76102271  1
  O  O324  1  0.26408525  0.12023635  0.25485209  1
  O  O325  1  0.25615500  0.13936776  0.76152242  1
  O  O326  1  0.25798659  0.62367499  0.25054207  1
  O  O327  1  0.25626517  0.61404640  0.75487680  1
  O  O328  1  0.70107124  0.04505581  0.22967934  1
  O  O329  1  0.74974163  0.11304552  0.76279247  1
  O  O330  1  0.76063079  0.61094976  0.23437290  1
  O  O331  1  0.76248891  0.61571038  0.75072187  1
  O  O332  1  0.38522891  0.11304395  0.36380741  1
  O  O333  1  0.36362289  0.13401516  0.86073772  1
  O  O334  1  0.38072745  0.63623506  0.35674730  1
  O  O335  1  0.36958310  0.61488066  0.86196088  1
  O  O336  1  0.88221668  0.10275083  0.38648581  1
  O  O337  1  0.86513456  0.12940832  0.87726419  1
  O  O338  1  0.87986903  0.61088437  0.35870446  1
  O  O339  1  0.87776131  0.61517058  0.86201136  1
  O  O340  1  0.12367359  0.39691889  0.12785632  1
  O  O341  1  0.11517453  0.38989911  0.61700765  1
  O  O342  1  0.12325772  0.88411127  0.13011331  1
  O  O343  1  0.11761085  0.89415852  0.62314508  1
  O  O344  1  0.62629949  0.39082132  0.11922428  1
  O  O345  1  0.62081977  0.39031549  0.63673828  1
  O  O346  1  0.61582395  0.88490093  0.14461019  1
  O  O347  1  0.62471840  0.87506328  0.64433794  1
  O  O348  1  0.13594875  0.26920431  0.22695836  1
  O  O349  1  0.11741471  0.26525321  0.74234183  1
  O  O350  1  0.12385700  0.76706138  0.24363683  1
  O  O351  1  0.12295784  0.74696124  0.75184660  1
  O  O352  1  0.63434159  0.13138493  0.36605567  1
  O  O353  1  0.61642793  0.25404858  0.75663421  1
  O  O354  1  0.63431764  0.74310859  0.26505361  1
  O  O355  1  0.63287702  0.76119981  0.76011635  1
  O  O356  1  0.37273653  0.23485079  0.24477947  1
  O  O357  1  0.38915476  0.25009887  0.74011632  1
  O  O358  1  0.36721142  0.73725464  0.23050010  1
  O  O359  1  0.36694754  0.73235769  0.73487751  1
  O  O360  1  0.80426358  0.21945863  0.29693766  1
  O  O361  1  0.89407020  0.26174634  0.73881087  1
  O  O362  1  0.86082273  0.73275041  0.25795181  1
  O  O363  1  0.87037583  0.73699796  0.75747968  1
  O  O364  1  0.38941257  0.50478717  0.49791611  1
  O  O365  1  0.36900794  0.49817815  0.98701997  1
  O  O366  1  0.38733785  1.00764661  0.49225803  1
  O  O367  1  0.39107747  1.00941728  0.98609263  1
  O  O368  1  0.86251419  0.51261727  0.48028165  1
  O  O369  1  0.88063893  0.49796716  0.98634813  1
  O  O370  1  0.87938416  0.98543369  0.50465917  1
  O  O371  1  0.87071698  0.99628652  0.99028621  1
  O  O372  1  0.13083504  0.01721452  -0.00104176  1
  O  O373  1  0.11256609  0.00521031  0.50834917  1
  O  O374  1  0.11168790  0.50219418  0.00765290  1
  O  O375  1  0.12967331  0.51096850  0.51024354  1
  O  O376  1  0.60481194  0.00879424  -0.01496904  1
  O  O377  1  0.62270033  -0.00923809  0.52468336  1
  O  O378  1  0.62680050  0.50270942  0.00281015  1
  O  O379  1  0.62770983  0.51188972  0.50807856  1
  O  O380  1  0.38994292  0.35477225  0.13849217  1
  O  O381  1  0.38359520  0.35666106  0.62301837  1
  O  O382  1  0.38375275  0.85514164  0.12578498  1
  O  O383  1  0.38251039  0.85660450  0.63089336  1
  O  O384  1  0.86155928  0.38928797  0.11716500  1
  O  O385  1  0.87847315  0.37412447  0.61822968  1
  O  O386  1  0.90002050  0.89386086  0.10591924  1
  O  O387  1  0.87749085  0.87224811  0.61539065  1
  O  O388  1  0.10592353  0.11551723  0.38934786  1
  O  O389  1  0.13796431  0.13345864  0.88080570  1
  O  O390  1  0.10863217  0.61989966  0.39459682  1
  O  O391  1  0.13891051  0.61423308  0.86591818  1
  O  O392  1  0.60536094  0.19075745  0.40856528  1
  O  O393  1  0.63249456  0.13980874  0.87157749  1
  O  O394  1  0.61738532  0.64326606  0.38726067  1
  O  O395  1  0.62430205  0.64297381  0.87134034  1
