# generated using pymatgen
data_V35Zn35O128
_symmetry_space_group_name_H-M   'P 1'
_cell_length_a   16.89688502
_cell_length_b   16.78851817
_cell_length_c   16.91996269
_cell_angle_alpha   89.70518303
_cell_angle_beta   89.64483800
_cell_angle_gamma   90.31626815
_symmetry_Int_Tables_number   1
_chemical_formula_structural   V35Zn35O128
_chemical_formula_sum   'V70 Zn70 O256'
_cell_volume   4799.51804098
_cell_formula_units_Z   2
loop_
 _symmetry_equiv_pos_site_id
 _symmetry_equiv_pos_as_xyz
  1  'x, y, z'
loop_
 _atom_site_type_symbol
 _atom_site_label
 _atom_site_symmetry_multiplicity
 _atom_site_fract_x
 _atom_site_fract_y
 _atom_site_fract_z
 _atom_site_occupancy
  V  V0  1  0.25324406  0.12904893  0.37228372  1
  V  V1  1  0.00232686  0.73868895  0.72150967  1
  V  V2  1  0.36681339  0.63255363  0.24694536  1
  V  V3  1  0.50080179  0.11283026  0.12211575  1
  V  V4  1  0.87161337  0.63309796  0.73761598  1
  V  V5  1  0.48826269  0.15644230  0.62439603  1
  V  V6  1  0.35916769  0.12980745  0.74055498  1
  V  V7  1  0.75255855  0.37360546  0.64264111  1
  V  V8  1  0.25981442  0.73158754  0.49861812  1
  V  V9  1  0.89011407  0.37294986  0.49044915  1
  V  V10  1  0.29223055  0.82236343  0.05615470  1
  V  V11  1  0.88260531  0.50056876  0.37825717  1
  V  V12  1  0.60837508  0.73448520  0.40385979  1
  V  V13  1  0.57424215  0.30705982  0.84061736  1
  V  V14  1  0.10735435  0.62049293  0.49990627  1
  V  V15  1  0.12419397  0.11347859  0.50277799  1
  V  V16  1  0.13045431  0.50881270  0.13010111  1
  V  V17  1  0.87267595  0.50953811  0.86539058  1
  V  V18  1  0.61786199  -0.01503252  0.13740437  1
  V  V19  1  -0.02891998  -0.00608381  0.50502827  1
  V  V20  1  0.59774351  0.85558930  0.26582219  1
  V  V21  1  0.50096294  0.76590697  0.74681013  1
  V  V22  1  0.37588727  0.48847786  0.88686749  1
  V  V23  1  0.25056774  0.63542455  0.87161202  1
  V  V24  1  0.87695406  0.78739671  0.12776382  1
  V  V25  1  0.61638670  0.74767517  0.88915527  1
  V  V26  1  0.12142188  0.35574938  0.25103832  1
  V  V27  1  0.37872622  0.75223793  0.62272646  1
  V  V28  1  0.88301070  0.11505743  0.23647540  1
  V  V29  1  0.64553338  0.39590724  0.24181870  1
  V  V30  1  0.77334568  0.22416288  0.01663110  1
  V  V31  1  0.74628209  0.62382878  0.39659187  1
  V  V32  1  -0.00806069  0.51031367  -0.00014113  1
  V  V33  1  0.61581794  0.13162858  0.49884472  1
  V  V34  1  0.37859172  0.12427397  0.25061666  1
  V  V35  1  0.38075749  -0.01574732  0.38043999  1
  V  V36  1  0.34810035  0.49279798  0.36536421  1
  V  V37  1  0.25826095  0.26122253  0.50288952  1
  V  V38  1  0.01311677  -0.00343218  0.02060081  1
  V  V39  1  0.50085247  0.90136839  0.88304270  1
  V  V40  1  0.75228427  0.25280094  0.49682007  1
  V  V41  1  0.00117816  0.12033467  0.63993778  1
  V  V42  1  0.11826199  0.75242603  0.86650309  1
  V  V43  1  0.61852865  0.00848726  0.65180428  1
  V  V44  1  0.13161684  0.88571407  0.73916333  1
  V  V45  1  0.49589208  -0.01003250  0.50464022  1
  V  V46  1  0.00538537  0.76053266  0.25057533  1
  V  V47  1  0.10271401  0.50361712  0.62236677  1
  V  V48  1  0.10728558  0.25053593  0.37652267  1
  V  V49  1  0.75062352  -0.02077381  0.25826687  1
  V  V50  1  0.25454843  0.88671384  0.61664185  1
  V  V51  1  0.38515461  0.62779267  0.74789782  1
  V  V52  1  0.50317739  0.63826651  0.12496460  1
  V  V53  1  0.64609212  0.10105576  -0.00891542  1
  V  V54  1  0.75648279  0.11370191  0.37728467  1
  V  V55  1  0.87150976  0.62730165  0.23911217  1
  V  V56  1  0.12809493  0.75582942  0.37724740  1
  V  V57  1  -0.00492116  0.36977063  0.87305429  1
  V  V58  1  0.11507238  0.63653555  0.00141353  1
  V  V59  1  0.11758039  0.37000495  0.74969401  1
  V  V60  1  0.36663682  0.00659009  0.88467216  1
  V  V61  1  0.88184511  0.24294696  0.64166829  1
  V  V62  1  -0.02664777  0.87092451  0.86693995  1
  V  V63  1  0.62592414  0.25355227  0.36485635  1
  V  V64  1  0.23440945  0.13266346  0.89337010  1
  V  V65  1  0.23845314  -0.01352478  0.24870543  1
  V  V66  1  0.49763222  0.38704345  0.37549913  1
  V  V67  1  0.36856977  0.26494849  0.11304562  1
  V  V68  1  0.63695821  0.51040922  0.10398195  1
  V  V69  1  0.24919104  0.50656583  0.73685856  1
  Zn  Zn70  1  0.28177320  0.38761438  0.60685597  1
  Zn  Zn71  1  0.59480657  0.58572959  0.53691841  1
  Zn  Zn72  1  0.74914263  0.78110838  0.01122136  1
  Zn  Zn73  1  -0.00655350  0.88009744  0.38721209  1
  Zn  Zn74  1  0.50380071  0.25847687  0.24038764  1
  Zn  Zn75  1  0.29302800  0.44343024  0.18214055  1
  Zn  Zn76  1  0.16770999  0.20119097  0.06296437  1
  Zn  Zn77  1  0.18298704  0.19353928  0.67967971  1
  Zn  Zn78  1  0.19685201  0.70814628  0.18164940  1
  Zn  Zn79  1  0.18916949  0.68597683  0.67930165  1
  Zn  Zn80  1  0.69174888  0.17759733  0.18830298  1
  Zn  Zn81  1  0.66070342  0.22719099  0.67746705  1
  Zn  Zn82  1  0.69330448  0.69126779  0.18382116  1
  Zn  Zn83  1  0.69864203  0.71080647  0.70570950  1
  Zn  Zn84  1  0.30830176  0.30758579  0.30367120  1
  Zn  Zn85  1  0.29268530  0.31576590  0.80929604  1
  Zn  Zn86  1  0.31892638  0.80634998  0.31660179  1
  Zn  Zn87  1  0.31136643  0.82193185  0.81159696  1
  Zn  Zn88  1  0.82379595  0.30240107  0.30520000  1
  Zn  Zn89  1  0.77978189  0.33554987  0.85534053  1
  Zn  Zn90  1  0.80114574  0.79265581  0.31640874  1
  Zn  Zn91  1  0.74052449  0.62486469  0.88017333  1
  Zn  Zn92  1  0.17799326  0.44074422  0.43430114  1
  Zn  Zn93  1  0.17927045  0.45526680  0.92791128  1
  Zn  Zn94  1  0.19786773  0.93264741  0.43811075  1
  Zn  Zn95  1  0.17684234  0.94893334  0.92773488  1
  Zn  Zn96  1  0.69329784  0.44291930  0.43245119  1
  Zn  Zn97  1  0.65840958  0.38767608  0.96869373  1
  Zn  Zn98  1  0.67811644  0.92984267  0.44304572  1
  Zn  Zn99  1  0.71476850  0.89953834  0.89162013  1
  Zn  Zn100  1  0.30099135  0.05722828  0.06648652  1
  Zn  Zn101  1  0.31427016  0.07212222  0.55592897  1
  Zn  Zn102  1  0.30951882  0.59685358  0.05907927  1
  Zn  Zn103  1  0.43134397  0.48468722  0.55564546  1
  Zn  Zn104  1  0.80417319  -0.01169276  0.04245024  1
  Zn  Zn105  1  0.80402694  0.06384461  0.57518352  1
  Zn  Zn106  1  0.80955186  0.59166070  0.04918501  1
  Zn  Zn107  1  0.80961499  0.55221713  0.56516310  1
  Zn  Zn108  1  0.46161048  0.44941449  0.18826412  1
  Zn  Zn109  1  0.43659846  0.32678831  0.69678047  1
  Zn  Zn110  1  0.42403053  0.92488957  0.18864705  1
  Zn  Zn111  1  0.43581549  0.94679770  0.68895448  1
  Zn  Zn112  1  0.95571718  0.46129836  0.19973987  1
  Zn  Zn113  1  0.92779919  0.43258690  0.68955047  1
  Zn  Zn114  1  0.97216373  0.95423731  0.19477367  1
  Zn  Zn115  1  0.94335599  0.94470750  0.70949912  1
  Zn  Zn116  1  0.05922323  0.05866911  0.32304572  1
  Zn  Zn117  1  0.05682315  0.05528735  0.82963492  1
  Zn  Zn118  1  0.05960701  0.57835831  0.31498825  1
  Zn  Zn119  1  0.05634113  0.56470343  0.80825507  1
  Zn  Zn120  1  0.56225003  0.05811672  0.31429160  1
  Zn  Zn121  1  0.55941433  0.12377946  0.81785640  1
  Zn  Zn122  1  0.56398358  0.57116604  0.30424413  1
  Zn  Zn123  1  0.54976692  0.56156606  0.94546361  1
  Zn  Zn124  1  0.43979474  0.19932911  0.43250167  1
  Zn  Zn125  1  0.39483201  0.22850863  0.89857446  1
  Zn  Zn126  1  0.43516845  0.64928274  0.44806183  1
  Zn  Zn127  1  0.43085857  0.70816286  0.94812086  1
  Zn  Zn128  1  0.93549304  0.17593689  0.44670815  1
  Zn  Zn129  1  0.96329358  0.17377012  1.06835665  1
  Zn  Zn130  1  0.93702754  0.68969538  0.43769926  1
  Zn  Zn131  1  0.90474535  0.70574073  0.93491058  1
  Zn  Zn132  1  0.05944923  0.33973613  0.06243828  1
  Zn  Zn133  1  0.06742804  0.30892414  0.56583861  1
  Zn  Zn134  1  0.08477528  0.82815455  0.06877917  1
  Zn  Zn135  1  0.07096715  0.81839127  0.55696855  1
  Zn  Zn136  1  0.52604689  0.24751270  0.00578024  1
  Zn  Zn137  1  0.58406173  0.37477419  0.55124454  1
  Zn  Zn138  1  0.54833201  0.82427726  0.06051659  1
  Zn  Zn139  1  0.59002037  0.82367622  0.57013977  1
  O  O140  1  0.06212016  0.23219268  0.08785541  1
  O  O141  1  0.10949864  0.13297798  0.61472471  1
  O  O142  1  0.12494164  0.63262470  0.10375408  1
  O  O143  1  0.12556705  0.61364543  0.61275104  1
  O  O144  1  0.60953259  0.10349876  0.15207550  1
  O  O145  1  0.60507274  0.13764231  0.61456690  1
  O  O146  1  0.61861988  0.62344096  0.12568081  1
  O  O147  1  0.64570344  0.62174374  0.64153453  1
  O  O148  1  0.39037913  0.38101441  0.35040750  1
  O  O149  1  0.35865301  0.38811275  0.87537227  1
  O  O150  1  0.37623503  0.88565575  0.38328637  1
  O  O151  1  0.37088505  0.90121592  0.86732680  1
  O  O152  1  0.87302946  0.38536442  0.38001692  1
  O  O153  1  0.88623785  0.39545386  0.86734414  1
  O  O154  1  0.87161654  0.83606457  0.40730517  1
  O  O155  1  0.88090389  0.83761256  0.87450779  1
  O  O156  1  0.26771452  0.00894255  0.38231630  1
  O  O157  1  0.25448654  0.02124427  0.87428389  1
  O  O158  1  0.24793844  0.49017295  0.35693120  1
  O  O159  1  0.24625114  0.51898725  0.85800059  1
  O  O160  1  0.73183036  0.00698665  0.37402379  1
  O  O161  1  0.74844329  -0.04120620  0.78997434  1
  O  O162  1  0.76340921  0.51422171  0.37456666  1
  O  O163  1  0.77367194  0.50907726  0.88493859  1
  O  O164  1  0.23437901  0.51596044  0.11437310  1
  O  O165  1  0.24375600  0.49930202  0.63451841  1
  O  O166  1  0.24511190  1.00386021  0.14942249  1
  O  O167  1  0.26021202  0.98620349  0.61213096  1
  O  O168  1  0.73771304  0.52899074  0.11167354  1
  O  O169  1  0.75545805  0.47302612  0.62822814  1
  O  O170  1  0.73132720  0.99374080  0.15236297  1
  O  O171  1  0.71813255  1.02378432  0.63265832  1
  O  O172  1  0.02365617  0.38563151  0.24893039  1
  O  O173  1  0.00722684  0.38179299  0.75763997  1
  O  O174  1  -0.00565226  0.86532678  0.27086352  1
  O  O175  1  0.01634589  0.85559650  0.74458177  1
  O  O176  1  0.52723316  0.37528505  0.25234999  1
  O  O177  1  0.51379898  0.35597318  0.77774423  1
  O  O178  1  0.49896582  0.86583121  0.25921319  1
  O  O179  1  0.48319492  0.86942500  0.76420597  1
  O  O180  1  0.48742376  0.12431080  0.25299988  1
  O  O181  1  0.48333670  0.14011935  0.72669451  1
  O  O182  1  0.49339483  0.62119153  0.23320163  1
  O  O183  1  0.48345111  0.64708378  0.76367098  1
  O  O184  1  0.98017844  0.06961390  0.24249132  1
  O  O185  1  1.00885441  0.11746633  0.73834666  1
  O  O186  1  0.98066802  0.64915559  0.26609684  1
  O  O187  1  0.99646827  0.63241583  0.73779810  1
  O  O188  1  0.39939895  0.25282964  0.01468120  1
  O  O189  1  0.35724471  0.25397204  0.49027868  1
  O  O190  1  0.34958200  0.77785037  -0.01782225  1
  O  O191  1  0.36767152  0.73339012  0.50639112  1
  O  O192  1  0.87370562  0.21327690  0.00912868  1
  O  O193  1  0.86855956  0.25850085  0.49181611  1
  O  O194  1  0.90606349  0.76515817  0.03356684  1
  O  O195  1  0.87125741  0.78512418  0.46903588  1
  O  O196  1  0.12915088  0.24302110  0.48851432  1
  O  O197  1  0.16878255  0.31324328  0.99437522  1
  O  O198  1  0.13275077  0.73809706  0.49657069  1
  O  O199  1  0.11382743  0.74586683  0.97757931  1
  O  O200  1  0.63510325  0.24714646  0.48586302  1
  O  O201  1  0.64294404  0.20431328  1.00617121  1
  O  O202  1  0.60556923  0.72147090  0.50532389  1
  O  O203  1  0.62520537  0.76996423  0.99003599  1
  O  O204  1  0.49494243  0.22617934  0.12749934  1
  O  O205  1  0.49511478  0.25655808  0.61570600  1
  O  O206  1  0.50401518  0.73987355  0.12400819  1
  O  O207  1  0.49391814  0.76688851  0.64013209  1
  O  O208  1  0.91038687  0.33244451  0.10469982  1
  O  O209  1  0.98989975  0.23587955  0.61671778  1
  O  O210  1  1.00478437  0.76725753  0.14867522  1
  O  O211  1  1.00655908  0.74819892  0.62299041  1
  O  O212  1  0.00919327  0.23846448  0.38173230  1
  O  O213  1  -0.00491643  0.27445398  0.88624979  1
  O  O214  1  0.01510611  0.75519637  0.37879838  1
  O  O215  1  0.01165372  0.75465316  0.85701464  1
  O  O216  1  0.51104359  0.26168857  0.36488851  1
  O  O217  1  0.50887066  0.21585545  0.88268030  1
  O  O218  1  0.51207084  0.71570683  0.38318119  1
  O  O219  1  0.50507924  0.76766902  0.87194804  1
  O  O220  1  0.24223701  0.13784927  0.49282249  1
  O  O221  1  0.22566428  0.12252405  1.00004368  1
  O  O222  1  0.23974048  0.63461778  0.50121536  1
  O  O223  1  0.22938846  0.62738891  0.97502307  1
  O  O224  1  0.73784597  0.13004277  0.49215294  1
  O  O225  1  0.75039038  0.10029897  1.01048220  1
  O  O226  1  0.74360966  0.61730052  0.49739111  1
  O  O227  1  0.78818878  0.67519036  0.97273282  1
  O  O228  1  0.22645377  0.36650208  -0.00712542  1
  O  O229  1  0.24022925  0.36547159  0.49570026  1
  O  O230  1  0.23599545  0.89092753  0.00242423  1
  O  O231  1  0.24806808  0.85984302  0.51336719  1
  O  O232  1  0.75563556  0.32367078  -0.02111974  1
  O  O233  1  0.75896343  0.36097793  0.50183380  1
  O  O234  1  0.75874821  0.89522463  -0.00778945  1
  O  O235  1  0.69134455  0.85766216  0.52460944  1
  O  O236  1  0.11491441  0.52847242  0.22801994  1
  O  O237  1  0.12704665  0.50462337  0.73400337  1
  O  O238  1  0.14115945  0.99464034  0.27547216  1
  O  O239  1  0.12135517  0.98299063  0.75141557  1
  O  O240  1  0.64108781  0.49728761  0.25282608  1
  O  O241  1  0.63199674  0.55802526  0.70356465  1
  O  O242  1  0.62475655  0.97629533  0.25976671  1
  O  O243  1  0.60246690  1.03548537  0.74563327  1
  O  O244  1  0.37266118  0.00319446  0.26889420  1
  O  O245  1  0.37417260  0.02419357  0.74776107  1
  O  O246  1  0.37208431  0.50014656  0.24701880  1
  O  O247  1  0.36550793  0.52138959  0.76460071  1
  O  O248  1  0.85094797  -0.00369417  0.25868501  1
  O  O249  1  0.81745542  -0.01296789  0.78554069  1
  O  O250  1  0.87936148  0.51861355  0.26240331  1
  O  O251  1  0.88079077  0.51479588  0.75730441  1
  O  O252  1  0.12387798  0.35957169  0.36583468  1
  O  O253  1  0.11131242  0.38976459  0.85719748  1
  O  O254  1  0.12426580  0.85904507  0.38818098  1
  O  O255  1  0.13483966  0.86038592  0.85256908  1
  O  O256  1  0.62202934  0.37016041  0.36692380  1
  O  O257  1  0.66406376  0.36460579  0.84921247  1
  O  O258  1  0.61341653  0.84612365  0.37570499  1
  O  O259  1  0.60124493  0.89729617  0.86910074  1
  O  O260  1  0.38712469  0.11176263  0.13465758  1
  O  O261  1  0.37931668  0.13576435  0.62567158  1
  O  O262  1  0.39079083  0.61667094  0.13651518  1
  O  O263  1  0.37674960  0.64050157  0.64436054  1
  O  O264  1  0.87622621  0.11477386  0.13831716  1
  O  O265  1  0.88529744  0.13303282  0.62456206  1
  O  O266  1  0.87819059  0.62774739  0.13966514  1
  O  O267  1  0.86233985  0.62007247  0.63859409  1
  O  O268  1  0.27135631  0.24070525  0.11105251  1
  O  O269  1  0.24592685  0.26101191  0.60672705  1
  O  O270  1  0.27921331  0.71605954  0.09746467  1
  O  O271  1  0.25959647  0.75203008  0.61274266  1
  O  O272  1  0.75631689  0.23534410  0.11548722  1
  O  O273  1  0.76778606  0.24503428  0.61471444  1
  O  O274  1  0.77288145  0.76120033  0.12676410  1
  O  O275  1  0.76631755  0.78963002  0.64227279  1
  O  O276  1  0.24190393  0.24239889  0.37970418  1
  O  O277  1  0.26925832  0.23360783  0.88829132  1
  O  O278  1  0.24138516  0.75291941  0.39018202  1
  O  O279  1  0.23455497  0.74194592  0.85737565  1
  O  O280  1  0.74655648  0.23549355  0.37908002  1
  O  O281  1  0.76775595  0.21521332  0.88177018  1
  O  O282  1  0.73223108  0.73195055  0.38619255  1
  O  O283  1  0.70845775  0.78050909  0.85793146  1
  O  O284  1  0.03188576  0.08209139  0.07043803  1
  O  O285  1  0.00488402  0.10780321  0.50908196  1
  O  O286  1  0.01023527  0.62271868  -0.01263659  1
  O  O287  1  0.00830724  0.62966494  0.50436884  1
  O  O288  1  0.52090727  0.11035478  0.02354936  1
  O  O289  1  0.50189837  0.13394632  0.50608760  1
  O  O290  1  0.48905074  0.63320556  0.01189630  1
  O  O291  1  0.48189254  0.58266438  0.52755631  1
  O  O292  1  0.49698783  0.37435357  0.47762971  1
  O  O293  1  0.55391126  0.34206819  0.94718959  1
  O  O294  1  0.50395196  0.89208243  0.51190856  1
  O  O295  1  0.49085223  0.88422022  0.98228914  1
  O  O296  1  0.98820865  0.36731799  0.49893657  1
  O  O297  1  1.00508494  0.39967704  0.98439051  1
  O  O298  1  0.99924174  0.89244019  0.51110406  1
  O  O299  1  1.01089983  0.87707501  0.96034593  1
  O  O300  1  0.50517920  0.48782382  0.36524984  1
  O  O301  1  0.47554315  0.50504877  0.88141032  1
  O  O302  1  0.48926552  1.00457099  0.38980654  1
  O  O303  1  0.47998015  1.00562655  0.86945840  1
  O  O304  1  0.98245743  0.51095457  0.37613046  1
  O  O305  1  0.99457423  0.50123809  0.88266941  1
  O  O306  1  0.99280572  0.99905618  0.40041766  1
  O  O307  1  0.96635806  0.97090352  0.82413359  1
  O  O308  1  0.04174484  -0.06882018  0.10162431  1
  O  O309  1  -0.01261000  0.01150152  0.62154770  1
  O  O310  1  0.00959667  0.50487414  0.10621055  1
  O  O311  1  0.00436263  0.50041119  0.62603148  1
  O  O312  1  0.50523154  0.00075164  0.14428656  1
  O  O313  1  0.49881641  0.01854340  0.61277144  1
  O  O314  1  0.52502526  0.51358718  0.11797212  1
  O  O315  1  0.57745875  0.50981672  0.68870497  1
  O  O316  1  0.22965948  0.37046764  0.24566723  1
  O  O317  1  0.23115724  0.39014640  0.74877755  1
  O  O318  1  0.25866971  0.88708175  0.26340487  1
  O  O319  1  0.24006256  0.86989043  0.73245375  1
  O  O320  1  0.74178717  0.36795116  0.25867860  1
  O  O321  1  0.77422889  0.36029673  0.73821556  1
  O  O322  1  0.73939995  0.87750675  0.27095123  1
  O  O323  1  0.79496540  0.84971785  0.68538011  1
  O  O324  1  0.26131588  0.11053395  0.26529403  1
  O  O325  1  0.25767063  0.13179770  0.73638072  1
  O  O326  1  0.26547179  0.63239048  0.23959407  1
  O  O327  1  0.25446721  0.62441983  0.75307087  1
  O  O328  1  0.75673639  0.11271184  0.26620926  1
  O  O329  1  0.76736441  0.13681767  0.77288875  1
  O  O330  1  0.77017859  0.64256308  0.26148546  1
  O  O331  1  0.76961793  0.64525070  0.76749271  1
  O  O332  1  0.36856081  0.12949853  0.36820399  1
  O  O333  1  0.35930527  0.12036306  0.85750289  1
  O  O334  1  0.37796828  0.60009328  0.35714220  1
  O  O335  1  0.35709090  0.63857614  0.86847280  1
  O  O336  1  0.85669445  0.11430537  0.38562289  1
  O  O337  1  0.79921825  0.14925465  0.83899097  1
  O  O338  1  0.86337180  0.61894761  0.38412381  1
  O  O339  1  0.89165881  0.61877163  0.85830037  1
  O  O340  1  0.12668376  0.40010576  0.13757554  1
  O  O341  1  0.11777976  0.39026198  0.63316699  1
  O  O342  1  0.18816128  0.80592590  0.11784439  1
  O  O343  1  0.13996804  0.87382909  0.63061325  1
  O  O344  1  0.63948696  0.40171082  0.13533025  1
  O  O345  1  0.64978920  0.34101196  0.63598642  1
  O  O346  1  0.61006442  0.87858081  0.14621556  1
  O  O347  1  0.60535795  0.90695249  0.65127282  1
  O  O348  1  0.11762116  0.25181060  0.26305667  1
  O  O349  1  0.12573972  0.27075134  0.74366750  1
  O  O350  1  0.11685932  0.74079446  0.26781556  1
  O  O351  1  0.11708365  0.74680141  0.74858273  1
  O  O352  1  0.63095950  0.25025132  0.25840939  1
  O  O353  1  0.62061416  0.22623511  0.78249508  1
  O  O354  1  0.62462038  0.75741996  0.25139181  1
  O  O355  1  0.60264549  0.75309533  0.75575892  1
  O  O356  1  0.37599598  0.23838572  0.23399905  1
  O  O357  1  0.37122894  0.24585854  0.75601655  1
  O  O358  1  0.38299931  0.73217865  0.26317233  1
  O  O359  1  0.37793854  0.74812882  0.74540295  1
  O  O360  1  0.88525368  0.21486030  0.26218775  1
  O  O361  1  0.88399921  0.25042181  0.73635026  1
  O  O362  1  0.88433726  0.75210426  0.24251981  1
  O  O363  1  0.89740614  0.73964148  0.74165018  1
  O  O364  1  0.35861511  0.48587929  0.46433400  1
  O  O365  1  0.34916592  0.51406119  0.98103105  1
  O  O366  1  0.38614135  1.00731418  0.49122229  1
  O  O367  1  0.36932843  1.01774559  0.98348664  1
  O  O368  1  0.87255321  0.48287609  0.49171283  1
  O  O369  1  0.88890469  0.51935290  0.99225492  1
  O  O370  1  0.87127347  0.99689598  0.50909594  1
  O  O371  1  0.91255128  1.00253507  1.00562537  1
  O  O372  1  0.08166710  0.01282702  -0.06261046  1
  O  O373  1  0.13371997  0.01312441  0.49572370  1
  O  O374  1  0.11604014  0.51857526  0.00320526  1
  O  O375  1  0.12183246  0.50864018  0.50916354  1
  O  O376  1  0.62793831  -0.00322776  0.03620102  1
  O  O377  1  0.60668290  0.01754512  0.49947818  1
  O  O378  1  0.63265698  0.49887026  -0.00085006  1
  O  O379  1  0.62793221  0.47752880  0.51683641  1
  O  O380  1  0.37660896  0.36682785  0.13536104  1
  O  O381  1  0.39268248  0.40572293  0.62728946  1
  O  O382  1  0.35725679  0.87172617  0.11671602  1
  O  O383  1  0.36409693  0.86485026  0.63114894  1
  O  O384  1  0.87341521  0.38049415  0.14860434  1
  O  O385  1  0.87275388  0.36068387  0.61120354  1
  O  O386  1  0.88105820  0.88736285  0.13811743  1
  O  O387  1  0.85359287  0.88963441  0.64789455  1
  O  O388  1  0.13071749  0.13393635  0.38176330  1
  O  O389  1  0.14302383  0.13762559  0.85612415  1
  O  O390  1  0.12372390  0.63324349  0.39269126  1
  O  O391  1  0.12742630  0.63709020  0.87076962  1
  O  O392  1  0.62717842  0.13363429  0.38080668  1
  O  O393  1  0.63758832  0.08150786  0.89520354  1
  O  O394  1  0.63611480  0.62314757  0.37801827  1
  O  O395  1  0.62270627  0.64276223  0.88763102  1
