# generated using pymatgen
data_V35Zn35O128
_symmetry_space_group_name_H-M   'P 1'
_cell_length_a   16.80919291
_cell_length_b   16.91250116
_cell_length_c   16.90391476
_cell_angle_alpha   90.10979846
_cell_angle_beta   90.04116594
_cell_angle_gamma   90.14321994
_symmetry_Int_Tables_number   1
_chemical_formula_structural   V35Zn35O128
_chemical_formula_sum   'V70 Zn70 O256'
_cell_volume   4805.51267423
_cell_formula_units_Z   2
loop_
 _symmetry_equiv_pos_site_id
 _symmetry_equiv_pos_as_xyz
  1  'x, y, z'
loop_
 _atom_site_type_symbol
 _atom_site_label
 _atom_site_symmetry_multiplicity
 _atom_site_fract_x
 _atom_site_fract_y
 _atom_site_fract_z
 _atom_site_occupancy
  V  V0  1  0.78102947  0.61524132  0.87234196  1
  V  V1  1  0.12289572  0.24464241  0.87753200  1
  V  V2  1  0.73896395  0.38106500  0.15749851  1
  V  V3  1  0.26351857  0.49462745  0.74758620  1
  V  V4  1  0.87082931  0.48635296  0.35930324  1
  V  V5  1  0.89576525  0.37500289  0.50377055  1
  V  V6  1  0.37482515  0.73837083  0.62151867  1
  V  V7  1  0.11438611  0.49619342  0.12019557  1
  V  V8  1  0.25986062  0.49698283  0.25655024  1
  V  V9  1  0.11817284  0.62838012  -0.00167582  1
  V  V10  1  0.26262305  0.62809367  0.88152220  1
  V  V11  1  0.73802112  0.00063217  0.24930655  1
  V  V12  1  0.50769769  0.74119903  0.73816338  1
  V  V13  1  0.10684334  0.74497325  0.36291236  1
  V  V14  1  0.50026315  0.24974987  0.24601194  1
  V  V15  1  0.26205580  0.24143573  0.00415783  1
  V  V16  1  0.38216396  0.38541244  0.49388446  1
  V  V17  1  0.62647203  0.25690042  0.87687680  1
  V  V18  1  0.25715774  0.25593840  0.50018644  1
  V  V19  1  0.62678937  0.52021741  0.61490385  1
  V  V20  1  0.61876999  0.78955933  0.37088674  1
  V  V21  1  -0.00510523  0.38854972  0.88980706  1
  V  V22  1  0.10957041  0.37847470  0.25983316  1
  V  V23  1  0.39397026  0.88215458  0.49817089  1
  V  V24  1  0.62359147  0.51277368  0.10211335  1
  V  V25  1  0.38487150  -0.00231487  0.37557006  1
  V  V26  1  0.89776733  0.24115861  0.64048795  1
  V  V27  1  0.73489133  0.88531147  0.11913025  1
  V  V28  1  0.62738441  0.74302421  0.87917735  1
  V  V29  1  0.75529723  0.88785670  0.61035112  1
  V  V30  1  0.85280637  0.36961589  0.00639317  1
  V  V31  1  0.86757313  0.74506683  0.62437386  1
  V  V32  1  0.38282661  0.25018089  0.63413728  1
  V  V33  1  0.11933050  0.11829677  0.50501536  1
  V  V34  1  0.25648956  0.62988584  0.37883492  1
  V  V35  1  0.11854326  0.01335749  0.64628561  1
  V  V36  1  0.37723158  0.63998303  0.23865480  1
  V  V37  1  0.12808041  0.63855374  0.50352029  1
  V  V38  1  0.75575140  0.11410079  0.87498772  1
  V  V39  1  0.12372939  0.37488808  0.75575470  1
  V  V40  1  0.88176569  0.09992709  0.75372649  1
  V  V41  1  0.24979356  0.85573638  0.11346488  1
  V  V42  1  -0.00583982  0.87477710  0.86857682  1
  V  V43  1  0.26195900  0.37396685  0.12110228  1
  V  V44  1  0.50946493  0.37696812  0.37517217  1
  V  V45  1  0.25263502  0.89170722  0.62450265  1
  V  V46  1  0.48663010  0.88697056  0.87209548  1
  V  V47  1  0.88545913  0.88300241  0.00007511  1
  V  V48  1  0.63995188  0.88812305  0.74579439  1
  V  V49  1  0.87500876  0.11953397  0.23362241  1
  V  V50  1  0.12563196  0.00490436  0.12280282  1
  V  V51  1  -0.00432277  0.23740648  0.24508646  1
  V  V52  1  0.49696388  0.78476532  0.23948362  1
  V  V53  1  0.87435343  0.75127857  0.13421581  1
  V  V54  1  0.12129230  0.49183558  0.62218780  1
  V  V55  1  0.88715041  0.00069184  0.37647210  1
  V  V56  1  0.38299287  0.48323195  0.89318660  1
  V  V57  1  0.24850463  0.11266262  0.37882874  1
  V  V58  1  0.62334725  0.11660317  0.50670552  1
  V  V59  1  -0.01129296  0.62719234  0.13262696  1
  V  V60  1  0.12280551  0.88822720  0.25604474  1
  V  V61  1  0.50263786  0.11923265  0.63506506  1
  V  V62  1  0.62969469  0.36536745  0.73399816  1
  V  V63  1  0.00934523  0.64424062  0.63828857  1
  V  V64  1  0.63633854  0.24398944  0.37344326  1
  V  V65  1  0.12982761  0.85677012  0.74970547  1
  V  V66  1  0.75704533  0.24962836  0.51770056  1
  V  V67  1  0.36831179  0.12822610  0.24605879  1
  V  V68  1  0.62126901  0.11533020  0.00117785  1
  V  V69  1  0.11282277  0.12620060  0.00897112  1
  Zn  Zn70  1  0.11856592  0.25765137  0.38397390  1
  Zn  Zn71  1  -0.00983511  -0.00242173  0.51055196  1
  Zn  Zn72  1  0.75843842  0.49627057  0.75020908  1
  Zn  Zn73  1  0.74879963  0.74252828  0.00126101  1
  Zn  Zn74  1  0.50447670  0.10989393  0.11640137  1
  Zn  Zn75  1  0.13280475  0.75293950  0.88620370  1
  Zn  Zn76  1  0.18916153  0.19330336  0.19035801  1
  Zn  Zn77  1  0.19108472  0.19753231  0.68489306  1
  Zn  Zn78  1  0.18556036  0.68167668  0.18904661  1
  Zn  Zn79  1  0.20401594  0.68055301  0.69053622  1
  Zn  Zn80  1  0.68864763  0.18395837  0.18349692  1
  Zn  Zn81  1  0.69334568  0.18016714  0.69481300  1
  Zn  Zn82  1  0.66675206  0.70691201  0.17925797  1
  Zn  Zn83  1  0.69189909  0.68035490  0.69010855  1
  Zn  Zn84  1  0.31359667  0.31189173  0.31667426  1
  Zn  Zn85  1  0.31167726  0.31212824  0.82064668  1
  Zn  Zn86  1  0.30362080  0.81621401  0.31181910  1
  Zn  Zn87  1  0.31453989  0.80651545  0.80420951  1
  Zn  Zn88  1  0.82171691  0.30844686  0.31837746  1
  Zn  Zn89  1  0.80761620  0.31024534  0.81715586  1
  Zn  Zn90  1  0.80609812  0.82241224  0.31166360  1
  Zn  Zn91  1  0.81452703  0.80323695  0.80579076  1
  Zn  Zn92  1  0.19152365  0.43947076  0.43799412  1
  Zn  Zn93  1  0.19181055  0.43741857  0.93814382  1
  Zn  Zn94  1  0.12690396  0.88456707  0.48230965  1
  Zn  Zn95  1  0.18821344  0.93815592  0.94093711  1
  Zn  Zn96  1  0.69823002  0.43459031  0.44750560  1
  Zn  Zn97  1  0.68436813  0.44578435  0.92913079  1
  Zn  Zn98  1  0.69697113  0.94473737  0.43436082  1
  Zn  Zn99  1  0.68670821  0.93579842  0.93351182  1
  Zn  Zn100  1  0.31867305  0.04965067  0.06886406  1
  Zn  Zn101  1  0.31665879  0.06587007  0.56226953  1
  Zn  Zn102  1  0.30812973  0.56072705  0.06317721  1
  Zn  Zn103  1  0.30971583  0.55763614  0.56354435  1
  Zn  Zn104  1  0.81124358  0.06423434  0.05603908  1
  Zn  Zn105  1  0.81330341  0.07160271  0.56252549  1
  Zn  Zn106  1  0.81040173  0.55241887  0.05204426  1
  Zn  Zn107  1  0.84542841  0.53301995  0.61128395  1
  Zn  Zn108  1  0.45492907  0.42555358  0.06457149  1
  Zn  Zn109  1  0.44913431  0.42086971  0.67739324  1
  Zn  Zn110  1  0.41893304  0.94700621  0.17604239  1
  Zn  Zn111  1  0.46085257  0.92440339  0.67369011  1
  Zn  Zn112  1  0.92770002  0.43278206  0.17402263  1
  Zn  Zn113  1  0.93818220  0.41757451  0.69819667  1
  Zn  Zn114  1  0.94447628  0.93573939  0.18754079  1
  Zn  Zn115  1  0.94196749  0.92198695  0.67987070  1
  Zn  Zn116  1  0.06360776  0.06460102  0.31364446  1
  Zn  Zn117  1  0.05394290  0.06374684  0.82780003  1
  Zn  Zn118  1  0.04866338  0.56267726  0.31887511  1
  Zn  Zn119  1  0.06185217  0.56027128  0.81271978  1
  Zn  Zn120  1  0.55969723  0.06886403  0.31622811  1
  Zn  Zn121  1  0.56368876  0.06729885  0.81548469  1
  Zn  Zn122  1  0.48838473  0.49761957  0.24055076  1
  Zn  Zn123  1  0.53359919  0.52338431  0.76343280  1
  Zn  Zn124  1  0.44358440  0.18687581  0.43877502  1
  Zn  Zn125  1  0.47409775  0.24821417  0.96814294  1
  Zn  Zn126  1  0.43508952  0.71177322  0.42308792  1
  Zn  Zn127  1  0.48432040  0.64005006  0.88224828  1
  Zn  Zn128  1  0.93497992  0.18442751  0.42576246  1
  Zn  Zn129  1  0.93061386  0.19567319  0.93766499  1
  Zn  Zn130  1  0.93944398  0.65486201  0.45007576  1
  Zn  Zn131  1  0.94301655  0.69885012  0.94324048  1
  Zn  Zn132  1  0.06213823  0.30954505  0.06429603  1
  Zn  Zn133  1  0.06638141  0.30567658  0.56848590  1
  Zn  Zn134  1  0.06374673  0.81244376  0.06887150  1
  Zn  Zn135  1  -0.06183840  0.82944716  0.45272865  1
  Zn  Zn136  1  0.60320339  0.30763871  0.07396554  1
  Zn  Zn137  1  0.56276377  0.30807320  0.55782668  1
  Zn  Zn138  1  0.54961223  0.82003192  0.05394991  1
  Zn  Zn139  1  0.57558034  0.80846612  0.56063460  1
  O  O140  1  0.13132212  0.11730223  0.12130390  1
  O  O141  1  0.13606136  0.12067067  0.61816903  1
  O  O142  1  0.11702779  0.61258590  0.12035650  1
  O  O143  1  0.13357858  0.61988241  0.61772015  1
  O  O144  1  0.62654679  0.12225951  0.10845562  1
  O  O145  1  0.61699741  0.13276167  0.61732644  1
  O  O146  1  0.63467893  0.61039593  0.13188996  1
  O  O147  1  0.62414494  0.62229889  0.61685277  1
  O  O148  1  0.38904750  0.36997054  0.38541439  1
  O  O149  1  0.38228969  0.38453943  0.87936759  1
  O  O150  1  0.36675714  0.88524908  0.38760967  1
  O  O151  1  0.38695760  0.87178583  0.85837624  1
  O  O152  1  0.88554970  0.38221315  0.38488830  1
  O  O153  1  0.88992220  0.36637909  0.88602093  1
  O  O154  1  0.87745192  0.88971734  0.37225299  1
  O  O155  1  0.88604831  0.86551198  0.88289651  1
  O  O156  1  0.25343122  0.01416542  0.37801273  1
  O  O157  1  0.25147456  0.00223763  0.86577444  1
  O  O158  1  0.24346338  0.51032028  0.36211616  1
  O  O159  1  0.26830777  0.50173841  0.87320648  1
  O  O160  1  0.76385383  -0.00491655  0.35291168  1
  O  O161  1  0.75104627  0.01271776  0.87426410  1
  O  O162  1  0.77591851  0.50294938  0.39123735  1
  O  O163  1  0.76252140  0.51166848  0.87482917  1
  O  O164  1  0.23812481  0.49302657  0.13880602  1
  O  O165  1  0.24297542  0.50503878  0.64294607  1
  O  O166  1  0.23455902  0.98438921  0.12055404  1
  O  O167  1  0.24548530  0.99712002  0.62802264  1
  O  O168  1  0.73738334  0.49192561  0.12154323  1
  O  O169  1  0.73487067  0.50953741  0.62598106  1
  O  O170  1  0.75368344  0.99126561  0.13028751  1
  O  O171  1  0.76239891  0.98633010  0.62094943  1
  O  O172  1  0.00747076  0.37575640  0.24894715  1
  O  O173  1  0.01744095  0.37166430  0.76638707  1
  O  O174  1  0.02212406  0.87198798  0.24699942  1
  O  O175  1  0.01538196  0.87436906  0.75888308  1
  O  O176  1  0.49543102  0.35351272  0.26289880  1
  O  O177  1  0.52671403  0.38606571  0.75618004  1
  O  O178  1  0.48649370  0.88417537  0.24281493  1
  O  O179  1  0.51849336  0.86597153  0.74860147  1
  O  O180  1  0.48383529  0.12717479  0.24621263  1
  O  O181  1  0.50959861  0.12837045  0.73413000  1
  O  O182  1  0.47394507  0.61692682  0.25186703  1
  O  O183  1  0.50159262  0.64154958  0.75363332  1
  O  O184  1  0.99814999  0.13136164  0.24324956  1
  O  O185  1  0.98072710  0.12482548  0.76610996  1
  O  O186  1  0.99941051  0.62045113  0.23071746  1
  O  O187  1  1.02172601  0.63167001  0.73775579  1
  O  O188  1  0.36094029  0.24484223  -0.00439314  1
  O  O189  1  0.36704704  0.25330050  0.50114276  1
  O  O190  1  0.40390603  0.72214478  0.01351579  1
  O  O191  1  0.38251336  0.77045385  0.50961804  1
  O  O192  1  0.88936086  0.27165047  0.00910758  1
  O  O193  1  0.87037762  0.24053148  0.50696177  1
  O  O194  1  0.86996557  0.76199102  0.01145797  1
  O  O195  1  0.89070680  0.74106571  0.50729492  1
  O  O196  1  0.13977050  0.24107373  0.50490529  1
  O  O197  1  0.13231135  0.24122833  0.99821335  1
  O  O198  1  0.13192509  0.73727429  0.48998305  1
  O  O199  1  0.12535443  0.73064593  1.00752137  1
  O  O200  1  0.64158562  0.24722973  0.49429470  1
  O  O201  1  0.63558704  0.23629261  0.98313968  1
  O  O202  1  0.60694497  0.75595160  0.46847121  1
  O  O203  1  0.62701127  0.76359167  0.98179177  1
  O  O204  1  0.51238529  0.24246342  0.14640118  1
  O  O205  1  0.48866675  0.24410506  0.62206121  1
  O  O206  1  0.50435389  0.76118548  0.13961960  1
  O  O207  1  0.49530118  0.75716550  0.63015861  1
  O  O208  1  1.00451485  0.25868128  0.14618639  1
  O  O209  1  0.99826524  0.23741375  0.63112542  1
  O  O210  1  0.98844307  0.73755011  0.12306378  1
  O  O211  1  1.00708026  0.74173198  0.62645511  1
  O  O212  1  0.00612350  0.24478059  0.35591636  1
  O  O213  1  0.02050713  0.26049512  0.88193847  1
  O  O214  1  0.00700315  0.74019847  0.38451789  1
  O  O215  1  0.01633050  0.76862105  0.88341395  1
  O  O216  1  0.51206726  0.25327469  0.37170175  1
  O  O217  1  0.52535560  0.23786241  0.86537463  1
  O  O218  1  0.50576911  0.76031254  0.35192615  1
  O  O219  1  0.51008153  0.76211417  0.85529526  1
  O  O220  1  0.24620282  0.13333397  0.49236384  1
  O  O221  1  0.24327768  0.13976399  1.01173753  1
  O  O222  1  0.24179736  0.61416383  0.48569973  1
  O  O223  1  0.23953978  0.61597789  0.98806025  1
  O  O224  1  0.73918914  0.13950580  0.50505848  1
  O  O225  1  0.74448909  0.12348131  0.98689640  1
  O  O226  1  0.71022334  0.64090205  0.47908598  1
  O  O227  1  0.75920184  0.62737685  0.97975132  1
  O  O228  1  0.24448916  0.37110619  0.01731490  1
  O  O229  1  0.26330561  0.36337819  0.49132868  1
  O  O230  1  0.22977390  0.86330650  0.01182708  1
  O  O231  1  0.23319322  0.87234805  0.52648144  1
  O  O232  1  0.75323200  0.37120053  -0.00928089  1
  O  O233  1  0.77087516  0.35305109  0.49310991  1
  O  O234  1  0.76126413  0.87714874  0.00938516  1
  O  O235  1  0.74585846  0.87499591  0.51095225  1
  O  O236  1  0.12476127  0.49281159  0.24654737  1
  O  O237  1  0.13417343  0.48717495  0.74738474  1
  O  O238  1  0.12920177  0.99426276  0.24580524  1
  O  O239  1  0.12602740  1.01845362  0.74601043  1
  O  O240  1  0.67886697  0.57977688  0.30073382  1
  O  O241  1  0.63891957  0.48834510  0.73419425  1
  O  O242  1  0.63919247  1.01432917  0.25312872  1
  O  O243  1  0.62892587  0.98603762  0.74754095  1
  O  O244  1  0.36894345  0.01620296  0.26786621  1
  O  O245  1  0.32575722  0.09778276  0.75312048  1
  O  O246  1  0.36054310  0.50641496  0.25061794  1
  O  O247  1  0.36505513  0.48583545  0.74879591  1
  O  O248  1  0.87789335  0.00758107  0.25144592  1
  O  O249  1  0.88345128  0.00081651  0.74616276  1
  O  O250  1  0.87331354  0.48867720  0.25934982  1
  O  O251  1  0.86952707  0.49948952  0.71954069  1
  O  O252  1  0.12617277  0.38012540  0.36291459  1
  O  O253  1  0.12090267  0.37225554  0.87131089  1
  O  O254  1  0.12991250  0.85348108  0.36540853  1
  O  O255  1  0.13181425  0.87342406  0.85772675  1
  O  O256  1  0.61861093  0.35762558  0.38452461  1
  O  O257  1  0.63068089  0.36041190  0.87351634  1
  O  O258  1  0.61618526  0.88952718  0.37398802  1
  O  O259  1  0.62791066  0.86698868  0.85730056  1
  O  O260  1  0.34577724  0.13688753  0.15079809  1
  O  O261  1  0.38658121  0.13958245  0.61798338  1
  O  O262  1  0.35798175  0.62722423  0.14106249  1
  O  O263  1  0.37428732  0.63988182  0.61084602  1
  O  O264  1  0.88109939  0.11629831  0.13399902  1
  O  O265  1  0.87409236  0.13156526  0.64310780  1
  O  O266  1  0.88127018  0.63434452  0.11713416  1
  O  O267  1  0.90055670  0.63435041  0.61774734  1
  O  O268  1  0.24559800  0.26600777  0.11907583  1
  O  O269  1  0.26397969  0.24464666  0.60936812  1
  O  O270  1  0.23858163  0.75436457  0.12485067  1
  O  O271  1  0.27085237  0.75829673  0.63254650  1
  O  O272  1  0.71091511  0.28175596  0.12941839  1
  O  O273  1  0.76167082  0.24797427  0.61865933  1
  O  O274  1  0.75541760  0.76370738  0.12357330  1
  O  O275  1  0.76484017  0.74112463  0.61884514  1
  O  O276  1  0.24656074  0.24487796  0.38922346  1
  O  O277  1  0.23806504  0.26150143  0.89622680  1
  O  O278  1  0.23510462  0.73126424  0.36783417  1
  O  O279  1  0.24864192  0.73096353  0.86549815  1
  O  O280  1  0.73942085  0.24686299  0.37407254  1
  O  O281  1  0.74125739  0.23195113  0.86779622  1
  O  O282  1  0.71979095  0.76492582  0.35595545  1
  O  O283  1  0.73958507  0.73912997  0.87139217  1
  O  O284  1  0.01405373  0.13408185  0.00198980  1
  O  O285  1  0.01777044  0.12600029  0.49493993  1
  O  O286  1  0.01212614  0.62230711  0.01062346  1
  O  O287  1  0.02686178  0.61746796  0.51926389  1
  O  O288  1  0.51723074  0.13914851  -0.00181704  1
  O  O289  1  0.51613967  0.13251846  0.51022377  1
  O  O290  1  0.45912424  0.67346819  0.00669007  1
  O  O291  1  0.49938575  0.61601589  0.48006912  1
  O  O292  1  0.49295561  0.37169248  0.48691110  1
  O  O293  1  0.51208852  0.34442127  1.01636414  1
  O  O294  1  0.49148376  0.88689288  0.50864138  1
  O  O295  1  0.50082283  0.87738418  0.97211317  1
  O  O296  1  0.99596359  0.35858766  0.49513379  1
  O  O297  1  1.01389973  0.37967209  0.98969470  1
  O  O298  1  1.01787806  0.88775419  0.50612613  1
  O  O299  1  0.99157257  0.86994654  0.99575671  1
  O  O300  1  0.51376541  0.47408861  0.35052765  1
  O  O301  1  0.47816594  0.52007547  0.86609991  1
  O  O302  1  0.48384845  1.00536701  0.37730603  1
  O  O303  1  0.49577939  0.98633892  0.85332679  1
  O  O304  1  0.94723816  0.55967319  0.38361096  1
  O  O305  1  1.00142978  0.48729443  0.87391647  1
  O  O306  1  0.99169498  1.00039889  0.37511476  1
  O  O307  1  1.01344054  0.97367513  0.88345113  1
  O  O308  1  0.02414327  -0.00581345  0.12620132  1
  O  O309  1  0.01604698  0.00266587  0.63008472  1
  O  O310  1  0.00832047  0.50588471  0.12677398  1
  O  O311  1  0.02207846  0.50692451  0.63457737  1
  O  O312  1  0.43207559  0.02487566  0.09903116  1
  O  O313  1  0.48786093  0.01930946  0.62379882  1
  O  O314  1  0.51610398  0.49850621  0.13182486  1
  O  O315  1  0.51996389  0.50464870  0.64285046  1
  O  O316  1  0.24459784  0.38425134  0.24644376  1
  O  O317  1  0.23916857  0.38740975  0.76227125  1
  O  O318  1  0.22878571  0.86262057  0.23994578  1
  O  O319  1  0.24103723  0.87156663  0.73826402  1
  O  O320  1  0.75014333  0.37683335  0.25668771  1
  O  O321  1  0.73796698  0.37960706  0.75873879  1
  O  O322  1  0.75135169  0.89074498  0.23053994  1
  O  O323  1  0.74508435  0.87025338  0.73994218  1
  O  O324  1  0.25549246  0.14031109  0.27292058  1
  O  O325  1  0.26315286  0.13395047  0.76945326  1
  O  O326  1  0.25260633  0.61423132  0.25957655  1
  O  O327  1  0.24268462  0.60374094  0.77014752  1
  O  O328  1  0.76426808  0.11331346  0.23755686  1
  O  O329  1  0.76635935  0.12051341  0.75994250  1
  O  O330  1  0.73337520  0.61872549  0.27088637  1
  O  O331  1  0.74875351  0.62291015  0.77080838  1
  O  O332  1  0.36617273  0.11535570  0.38104488  1
  O  O333  1  0.31495641  0.03900907  0.89710700  1
  O  O334  1  0.35979562  0.63469316  0.37046838  1
  O  O335  1  0.36379690  0.62101147  0.88262635  1
  O  O336  1  0.87856699  0.10967193  0.35527351  1
  O  O337  1  0.86737249  0.12727497  0.86903125  1
  O  O338  1  0.77022437  0.66208818  0.44477309  1
  O  O339  1  0.88055443  0.63353573  0.87119057  1
  O  O340  1  0.12778198  0.38731776  0.13692511  1
  O  O341  1  0.12160287  0.38061604  0.64147720  1
  O  O342  1  0.12852068  0.88235166  0.13571249  1
  O  O343  1  0.13379025  0.89748073  0.64480588  1
  O  O344  1  0.63075774  0.40486352  0.14203136  1
  O  O345  1  0.62887206  0.36415929  0.63194916  1
  O  O346  1  0.63665149  0.87870315  0.11176537  1
  O  O347  1  0.64316975  0.86744522  0.63323161  1
  O  O348  1  0.11940536  0.26606775  0.25213550  1
  O  O349  1  0.14158017  0.26075826  0.76713542  1
  O  O350  1  0.11349611  0.73647556  0.26247703  1
  O  O351  1  0.13183509  0.75739651  0.74416636  1
  O  O352  1  0.61389800  0.23048933  0.26716907  1
  O  O353  1  0.63370618  0.25885810  0.75500249  1
  O  O354  1  0.60585160  0.76592438  0.25384253  1
  O  O355  1  0.61944552  0.75356155  0.75091633  1
  O  O356  1  0.38768004  0.23666877  0.26622112  1
  O  O357  1  0.36593755  0.26221961  0.73219303  1
  O  O358  1  0.38360226  0.74683773  0.25477783  1
  O  O359  1  0.39217922  0.75594918  0.73061289  1
  O  O360  1  0.88436597  0.23334724  0.25389741  1
  O  O361  1  0.87979639  0.25713931  0.73849094  1
  O  O362  1  0.86751582  0.75657138  0.23306788  1
  O  O363  1  0.88052986  0.75292657  0.72551209  1
  O  O364  1  0.37084990  0.48392991  0.50220244  1
  O  O365  1  0.38212676  0.49589728  0.99768157  1
  O  O366  1  0.36747909  0.98985797  0.48955211  1
  O  O367  1  0.34680261  1.00451664  0.95938241  1
  O  O368  1  0.88458447  0.47450019  0.51564188  1
  O  O369  1  0.88197552  0.47017822  1.01474310  1
  O  O370  1  0.87603149  1.01617934  0.48168993  1
  O  O371  1  0.87752930  0.98202659  1.00614265  1
  O  O372  1  0.12997458  0.01820428  0.00740232  1
  O  O373  1  0.12848402  0.01519846  0.51327829  1
  O  O374  1  0.13156036  0.50474794  0.01716537  1
  O  O375  1  0.13676220  0.49600299  0.51998034  1
  O  O376  1  0.62248404  0.01471201  -0.01118165  1
  O  O377  1  0.63477771  0.01867514  0.49832922  1
  O  O378  1  0.61818532  0.50645188  0.00213371  1
  O  O379  1  0.62601257  0.48789096  0.51627219  1
  O  O380  1  0.36035434  0.38482527  0.12830969  1
  O  O381  1  0.38460003  0.36070810  0.60428828  1
  O  O382  1  0.34933946  0.87052183  0.12729420  1
  O  O383  1  0.36612414  0.88464596  0.61283882  1
  O  O384  1  0.84529136  0.37089888  0.12387101  1
  O  O385  1  0.88978108  0.35092183  0.61228877  1
  O  O386  1  0.87927949  0.86508779  0.11678600  1
  O  O387  1  0.86635145  0.86115382  0.61725688  1
  O  O388  1  0.13530491  0.12435403  0.38803472  1
  O  O389  1  0.12463266  0.13812461  0.88875977  1
  O  O390  1  0.12486928  0.62594905  0.38632879  1
  O  O391  1  0.12761376  0.61934518  0.89113993  1
  O  O392  1  0.61895448  0.13686697  0.39244060  1
  O  O393  1  0.63800947  0.12781439  0.87780442  1
  O  O394  1  0.55606899  0.59679333  0.43722253  1
  O  O395  1  0.60670546  0.64463036  0.87978185  1
