# generated using pymatgen
data_V35Zn35O128
_symmetry_space_group_name_H-M   'P 1'
_cell_length_a   16.81633755
_cell_length_b   16.81336341
_cell_length_c   16.81772396
_cell_angle_alpha   89.91949212
_cell_angle_beta   89.99190697
_cell_angle_gamma   89.98993410
_symmetry_Int_Tables_number   1
_chemical_formula_structural   V35Zn35O128
_chemical_formula_sum   'V70 Zn70 O256'
_cell_volume   4755.02491004
_cell_formula_units_Z   2
loop_
 _symmetry_equiv_pos_site_id
 _symmetry_equiv_pos_as_xyz
  1  'x, y, z'
loop_
 _atom_site_type_symbol
 _atom_site_label
 _atom_site_symmetry_multiplicity
 _atom_site_fract_x
 _atom_site_fract_y
 _atom_site_fract_z
 _atom_site_occupancy
  V  V0  1  0.49686382  0.62756665  0.11642310  1
  V  V1  1  0.75633955  0.38173314  0.13419340  1
  V  V2  1  0.13004760  0.23982775  0.37256108  1
  V  V3  1  -0.00880244  0.63705187  0.12014336  1
  V  V4  1  0.50142185  0.75198494  0.25938843  1
  V  V5  1  0.51026201  0.60693754  0.61979398  1
  V  V6  1  0.40158752  -0.00829399  0.88128345  1
  V  V7  1  0.11970942  0.37849140  0.25611431  1
  V  V8  1  0.74089475  0.75123738  0.49362640  1
  V  V9  1  0.87707267  0.61337953  0.74272620  1
  V  V10  1  0.64776838  -0.00548875  0.12239101  1
  V  V11  1  0.13504174  0.61930880  0.00594843  1
  V  V12  1  -0.00053078  0.75016844  0.74639367  1
  V  V13  1  0.87172748  0.61682339  0.25342959  1
  V  V14  1  0.50936878  0.11726225  0.62276141  1
  V  V15  1  0.49752068  0.11409338  0.12665738  1
  V  V16  1  0.14247431  -0.00370863  0.12447689  1
  V  V17  1  0.13988771  -0.00345540  0.62601918  1
  V  V18  1  0.24896313  -0.00839387  0.77117335  1
  V  V19  1  0.51059953  0.38222708  0.87664971  1
  V  V20  1  0.00130398  0.75931699  0.26435607  1
  V  V21  1  -0.00505528  0.22917850  0.74278320  1
  V  V22  1  0.76083486  0.75569859  0.00820875  1
  V  V23  1  0.62690713  0.12418762  -0.00861835  1
  V  V24  1  0.87367524  0.76163853  0.62594559  1
  V  V25  1  0.37004870  0.62532553  0.75556513  1
  V  V26  1  0.39128662  0.37703754  0.49953907  1
  V  V27  1  0.00730128  0.12173353  0.12072662  1
  V  V28  1  -0.01143602  0.24697939  0.25982758  1
  V  V29  1  0.63701964  0.39119632  0.73866972  1
  V  V30  1  0.24234461  0.37283614  0.11927197  1
  V  V31  1  0.86278305  0.02552764  0.87550059  1
  V  V32  1  0.13397607  0.74927846  0.87760377  1
  V  V33  1  0.36345844  0.50518680  0.88027336  1
  V  V34  1  0.49326369  0.90124629  0.37762686  1
  V  V35  1  0.36612129  0.13028687  0.76129659  1
  V  V36  1  -0.00035531  0.49137001  0.00464240  1
  V  V37  1  0.23866484  0.26609125  0.52201639  1
  V  V38  1  0.63466725  0.87540745  0.24766012  1
  V  V39  1  0.51974676  0.26578671  0.24613962  1
  V  V40  1  0.37603982  0.24925633  0.13357218  1
  V  V41  1  0.39270627  0.87201979  0.00798411  1
  V  V42  1  0.87084052  0.24234129  0.12177464  1
  V  V43  1  0.13769708  0.87681087  0.25886435  1
  V  V44  1  0.62334745  0.49355061  0.13742153  1
  V  V45  1  0.37883823  0.75593723  0.61487628  1
  V  V46  1  -0.00918127  0.00696446  0.50975847  1
  V  V47  1  0.74935998  0.61568003  0.86767432  1
  V  V48  1  0.74126124  0.62119970  0.37353232  1
  V  V49  1  0.62523942  0.76195025  0.87221082  1
  V  V50  1  0.25423253  0.76145280  0.01542967  1
  V  V51  1  0.24937289  0.49578230  0.24899435  1
  V  V52  1  0.62467769  0.61221089  -0.00606502  1
  V  V53  1  0.24008914  0.62763966  0.37904138  1
  V  V54  1  -0.00326862  0.49830492  0.50093032  1
  V  V55  1  0.23548507  0.75150721  0.49833751  1
  V  V56  1  0.74806108  0.25065102  -0.01226249  1
  V  V57  1  0.37518517  0.62684480  0.24964089  1
  V  V58  1  0.63075054  0.25505074  0.39504610  1
  V  V59  1  0.37698273  0.37107595  -0.00266816  1
  V  V60  1  0.50897413  0.75968573  0.75053712  1
  V  V61  1  0.12055531  0.12824382  0.50864865  1
  V  V62  1  0.12854230  0.23885372  0.88527543  1
  V  V63  1  0.51958411  0.24622977  0.75897319  1
  V  V64  1  0.88350643  0.48945386  0.87741374  1
  V  V65  1  0.73706101  0.11615392  0.36907522  1
  V  V66  1  0.87933582  0.01184758  0.35928111  1
  V  V67  1  0.88339721  0.87189704  0.48164338  1
  V  V68  1  -0.01127950  0.87362832  0.88599772  1
  V  V69  1  0.74545667  -0.00589786  0.74037063  1
  Zn  Zn70  1  0.12473641  0.87346024  0.74953609  1
  Zn  Zn71  1  0.38045652  0.49001817  0.37978878  1
  Zn  Zn72  1  0.36728464  0.25076376  0.63514516  1
  Zn  Zn73  1  0.37140027  0.89096625  0.49650656  1
  Zn  Zn74  1  0.31197254  0.07565038  0.31788175  1
  Zn  Zn75  1  -0.00501924  -0.00404543  0.00425876  1
  Zn  Zn76  1  0.19189913  0.18378455  0.18745720  1
  Zn  Zn77  1  0.17649699  0.17923745  0.69769871  1
  Zn  Zn78  1  0.18293378  0.68969559  0.18919182  1
  Zn  Zn79  1  0.20170096  0.70712879  0.69504752  1
  Zn  Zn80  1  0.69272099  0.17836812  0.18707265  1
  Zn  Zn81  1  0.69876477  0.17652746  0.68766216  1
  Zn  Zn82  1  0.68560591  0.68565854  0.18706051  1
  Zn  Zn83  1  0.69055696  0.68290278  0.68212470  1
  Zn  Zn84  1  0.34198370  0.26785860  0.34795658  1
  Zn  Zn85  1  0.29791715  0.32784329  0.80718166  1
  Zn  Zn86  1  0.31582972  0.81273202  0.31171411  1
  Zn  Zn87  1  0.31919899  0.81329062  0.81663174  1
  Zn  Zn88  1  0.80183602  0.31464531  0.31893321  1
  Zn  Zn89  1  0.81505036  0.30932785  0.80338900  1
  Zn  Zn90  1  0.81783526  0.80325091  0.30456788  1
  Zn  Zn91  1  0.80723448  0.81121121  0.81444302  1
  Zn  Zn92  1  0.18754413  0.43715816  0.43169808  1
  Zn  Zn93  1  0.18086978  0.42991855  0.92956111  1
  Zn  Zn94  1  0.18906489  0.93888081  0.44138550  1
  Zn  Zn95  1  0.17742536  0.93308915  0.94600242  1
  Zn  Zn96  1  0.66522179  0.45179613  0.42561227  1
  Zn  Zn97  1  0.69539422  0.43235447  0.93872088  1
  Zn  Zn98  1  0.69682684  0.92180551  0.42214021  1
  Zn  Zn99  1  0.69257112  0.93998289  0.93709620  1
  Zn  Zn100  1  0.31384504  0.06579306  0.04882073  1
  Zn  Zn101  1  0.31301480  0.07987834  0.56461822  1
  Zn  Zn102  1  0.31340040  0.55657710  0.06214517  1
  Zn  Zn103  1  0.31579854  0.56423611  0.56648521  1
  Zn  Zn104  1  0.81745500  0.06296983  0.05708551  1
  Zn  Zn105  1  0.77203652  0.04265934  0.54618609  1
  Zn  Zn106  1  0.81220700  0.56607990  0.05911225  1
  Zn  Zn107  1  0.81502459  0.56790388  0.55424386  1
  Zn  Zn108  1  0.43701700  0.43879572  0.18654962  1
  Zn  Zn109  1  0.42247683  0.43000575  0.69241535  1
  Zn  Zn110  1  0.42452096  0.93745421  0.19344049  1
  Zn  Zn111  1  0.43486662  0.93851168  0.68958700  1
  Zn  Zn112  1  0.93848673  0.43703160  0.18071536  1
  Zn  Zn113  1  0.96806041  0.42896912  0.69088722  1
  Zn  Zn114  1  0.93414939  0.92909505  0.18244890  1
  Zn  Zn115  1  0.92860563  0.94245509  0.69338629  1
  Zn  Zn116  1  0.06433644  0.05962988  0.31028497  1
  Zn  Zn117  1  0.06150610  0.06259387  0.82000569  1
  Zn  Zn118  1  0.05822737  0.56426198  0.30855466  1
  Zn  Zn119  1  0.06408236  0.56920997  0.81796613  1
  Zn  Zn120  1  0.56499663  0.06560694  0.29953840  1
  Zn  Zn121  1  0.57189671  0.05791985  0.80172495  1
  Zn  Zn122  1  0.56828285  0.56897659  0.30655695  1
  Zn  Zn123  1  0.55789262  0.56305811  0.80255829  1
  Zn  Zn124  1  0.46456189  0.15859934  0.42101219  1
  Zn  Zn125  1  0.43798118  0.18766662  0.94030303  1
  Zn  Zn126  1  0.43965357  0.67640080  0.43634119  1
  Zn  Zn127  1  0.43910675  0.69284351  0.93700122  1
  Zn  Zn128  1  0.92590784  0.18778933  0.44180599  1
  Zn  Zn129  1  0.94313519  0.19768846  0.93637382  1
  Zn  Zn130  1  0.93521605  0.68730956  0.43149781  1
  Zn  Zn131  1  0.93932010  0.68432631  0.93169201  1
  Zn  Zn132  1  0.06055824  0.30652504  0.06336485  1
  Zn  Zn133  1  0.05393910  0.31276822  0.57212573  1
  Zn  Zn134  1  0.06765403  0.81458885  0.06892296  1
  Zn  Zn135  1  0.05790587  0.81721145  0.56357377  1
  Zn  Zn136  1  0.56584083  0.31216108  0.05894826  1
  Zn  Zn137  1  0.55685201  0.30607554  0.57140046  1
  Zn  Zn138  1  0.57271861  0.80596196  0.06363655  1
  Zn  Zn139  1  0.55380880  0.81403756  0.55472212  1
  O  O140  1  0.11468643  0.11602996  0.12911687  1
  O  O141  1  0.12002732  0.10593609  0.62210656  1
  O  O142  1  0.11455015  0.62721195  0.11259397  1
  O  O143  1  0.16818800  0.55320434  0.67906574  1
  O  O144  1  0.61915321  0.10765768  0.12201044  1
  O  O145  1  0.61001989  0.13128559  0.62959941  1
  O  O146  1  0.61843713  0.61387125  0.11681106  1
  O  O147  1  0.61171380  0.62050349  0.63063103  1
  O  O148  1  0.36046915  0.37114846  0.39318518  1
  O  O149  1  0.38015734  0.38614351  0.88212759  1
  O  O150  1  0.39160567  0.87110675  0.37395457  1
  O  O151  1  0.37724250  0.88666540  0.88303739  1
  O  O152  1  0.87240456  0.35567172  0.39096198  1
  O  O153  1  0.87398820  0.39166807  0.87003551  1
  O  O154  1  0.87692630  0.88017079  0.37952676  1
  O  O155  1  0.88892281  0.86277208  0.87789333  1
  O  O156  1  0.28016096  0.01020666  0.41922715  1
  O  O157  1  0.24377380  -0.00339694  0.87105921  1
  O  O158  1  0.24991621  0.50941747  0.36536509  1
  O  O159  1  0.26368897  0.49801332  0.87773676  1
  O  O160  1  0.76575102  0.00211222  0.37657601  1
  O  O161  1  0.75871041  0.00590945  0.87250171  1
  O  O162  1  0.74595994  0.51968849  0.38473959  1
  O  O163  1  0.76726622  0.50729747  0.88242618  1
  O  O164  1  0.25498828  0.48594949  0.13619984  1
  O  O165  1  0.22514765  0.51283028  0.64091124  1
  O  O166  1  0.24191446  1.00802882  0.12019310  1
  O  O167  1  0.24168592  0.99884018  0.62560168  1
  O  O168  1  0.74331647  0.48947029  0.11673116  1
  O  O169  1  0.73991908  0.48116824  0.58663106  1
  O  O170  1  0.74657381  0.99913729  0.12654470  1
  O  O171  1  0.77911329  0.99327091  0.64056978  1
  O  O172  1  0.01306012  0.36438889  0.23669417  1
  O  O173  1  0.00947350  0.35601343  0.76478578  1
  O  O174  1  0.00261449  0.86260272  0.25038551  1
  O  O175  1  -0.00099623  0.86302104  0.75801470  1
  O  O176  1  0.50187762  0.36566962  0.24822724  1
  O  O177  1  0.50798524  0.36270684  0.75933208  1
  O  O178  1  0.49874866  0.86355507  0.25663898  1
  O  O179  1  0.50079922  0.85921254  0.74375748  1
  O  O180  1  0.50686546  0.14001186  0.22980928  1
  O  O181  1  0.49365540  0.13416502  0.75311669  1
  O  O182  1  0.49572197  0.63225211  0.24127992  1
  O  O183  1  0.49247690  0.63813643  0.74076475  1
  O  O184  1  1.00404195  0.14219770  0.24106836  1
  O  O185  1  0.99694345  0.12726311  0.75367776  1
  O  O186  1  0.99661801  0.63170933  0.23814711  1
  O  O187  1  0.98730869  0.63874128  0.75776697  1
  O  O188  1  0.37984161  0.26361230  0.01001491  1
  O  O189  1  0.34309548  0.26352499  0.50364066  1
  O  O190  1  0.36243298  0.75979766  -0.00977221  1
  O  O191  1  0.37803605  0.74757970  0.51078205  1
  O  O192  1  0.86368206  0.24584577  0.01296895  1
  O  O193  1  0.86096667  0.25035165  0.52034756  1
  O  O194  1  0.85942760  0.73752620  -0.00734245  1
  O  O195  1  0.88350823  0.75883225  0.50725644  1
  O  O196  1  0.11559123  0.24787667  0.49478009  1
  O  O197  1  0.11864217  0.25192956  0.98682218  1
  O  O198  1  0.13635004  0.74988256  0.51090304  1
  O  O199  1  0.13838999  0.74472036  0.99840756  1
  O  O200  1  0.62163245  0.24772120  0.49393479  1
  O  O201  1  0.63663157  0.23730332  1.00561087  1
  O  O202  1  0.64205930  0.76069884  0.50497752  1
  O  O203  1  0.62861594  0.73615556  0.98457985  1
  O  O204  1  0.49268407  0.25281435  0.13001247  1
  O  O205  1  0.49215898  0.24209050  0.65011173  1
  O  O206  1  0.50589677  0.73207543  0.13188693  1
  O  O207  1  0.49483904  0.74580283  0.63144749  1
  O  O208  1  0.98870241  0.24390622  0.13139118  1
  O  O209  1  1.00788909  0.23761462  0.63932037  1
  O  O210  1  1.00140665  0.73951632  0.12788246  1
  O  O211  1  0.98842976  0.75108930  0.63265327  1
  O  O212  1  0.00036471  0.24565729  0.36447833  1
  O  O213  1  0.01302367  0.24877153  0.86523277  1
  O  O214  1  0.00653640  0.74469848  0.36422160  1
  O  O215  1  0.00874178  0.75632824  0.86891995  1
  O  O216  1  0.52507665  0.23965175  0.35551583  1
  O  O217  1  0.49393142  0.26085756  0.86467377  1
  O  O218  1  0.50340083  0.74182668  0.36027442  1
  O  O219  1  0.51347411  0.74356116  0.86176790  1
  O  O220  1  0.22729409  0.14318770  0.51110230  1
  O  O221  1  0.26441756  0.14388638  0.98809555  1
  O  O222  1  0.25349967  0.62950308  0.48689399  1
  O  O223  1  0.23969324  0.62962025  1.00718761  1
  O  O224  1  0.75024459  0.12128041  0.47704853  1
  O  O225  1  0.73827517  0.13649179  1.00789587  1
  O  O226  1  0.75803654  0.63932582  0.48667818  1
  O  O227  1  0.74144999  0.62983961  0.98789705  1
  O  O228  1  0.25454596  0.38220175  0.01473354  1
  O  O229  1  0.22207837  0.36700703  0.51378253  1
  O  O230  1  0.25392483  0.86429559  0.00310165  1
  O  O231  1  0.25554282  0.85453959  0.49033250  1
  O  O232  1  0.74262495  0.35662486  0.01253408  1
  O  O233  1  0.72878339  0.42708186  0.53427148  1
  O  O234  1  0.74516191  0.85463187  -0.00861328  1
  O  O235  1  0.76950234  0.86113086  0.49400347  1
  O  O236  1  0.12814585  0.48631827  0.25498907  1
  O  O237  1  0.13564904  0.51239940  0.74163096  1
  O  O238  1  0.12027713  0.98952848  0.23771533  1
  O  O239  1  0.13790014  1.00247832  0.74269906  1
  O  O240  1  0.63291133  0.50310985  0.23637393  1
  O  O241  1  0.62979220  0.49188416  0.74855807  1
  O  O242  1  0.62106088  0.98679759  0.23346687  1
  O  O243  1  0.64130585  0.99612376  0.74218620  1
  O  O244  1  0.35788215  -0.00651470  0.25925260  1
  O  O245  1  0.36607478  0.00050967  0.76660199  1
  O  O246  1  0.36794732  0.50537550  0.25452110  1
  O  O247  1  0.37994279  0.52000229  0.76385361  1
  O  O248  1  0.88421131  -0.00361312  0.26149582  1
  O  O249  1  0.87305648  -0.00217542  0.77281674  1
  O  O250  1  0.88358233  0.51642839  0.24472568  1
  O  O251  1  0.89652833  0.50889891  0.75751727  1
  O  O252  1  0.12227555  0.36410811  0.36152719  1
  O  O253  1  0.12763477  0.35933630  0.86221107  1
  O  O254  1  0.12682774  0.89119938  0.35961713  1
  O  O255  1  0.11389366  0.86533418  0.87194396  1
  O  O256  1  0.64295131  0.35404992  0.37689332  1
  O  O257  1  0.61478898  0.38192063  0.86834566  1
  O  O258  1  0.60840372  0.88460902  0.35710553  1
  O  O259  1  0.62555255  0.85994295  0.87836090  1
  O  O260  1  0.38682577  0.14025069  0.11568535  1
  O  O261  1  0.38009700  0.12772016  0.64666992  1
  O  O262  1  0.38962582  0.61378118  0.13166991  1
  O  O263  1  0.38146475  0.63401756  0.63818338  1
  O  O264  1  0.87942108  0.13785131  0.12961017  1
  O  O265  1  0.83298565  0.21318768  0.58604680  1
  O  O266  1  0.88489227  0.62601247  0.13061186  1
  O  O267  1  0.87157765  0.62391872  0.63816072  1
  O  O268  1  0.26396758  0.26127056  0.13311632  1
  O  O269  1  0.23971714  0.24915552  0.62567788  1
  O  O270  1  0.25256455  0.74691135  0.11438812  1
  O  O271  1  0.26487119  0.74059695  0.60909271  1
  O  O272  1  0.76112387  0.25533576  0.12616313  1
  O  O273  1  0.77056852  0.25044705  0.61732794  1
  O  O274  1  0.74234883  0.74243001  0.10733979  1
  O  O275  1  0.76685858  0.74057174  0.60999905  1
  O  O276  1  0.22849055  0.25415886  0.39276499  1
  O  O277  1  0.23155663  0.26784844  0.87032461  1
  O  O278  1  0.25701270  0.73664684  0.38496721  1
  O  O279  1  0.23897017  0.75629095  0.88097509  1
  O  O280  1  0.73598940  0.23204579  0.36775970  1
  O  O281  1  0.75559796  0.25419907  0.88944837  1
  O  O282  1  0.75770113  0.74552034  0.38726861  1
  O  O283  1  0.73716039  0.73679902  0.87450904  1
  O  O284  1  -0.00368818  0.12999936  0.01881584  1
  O  O285  1  -0.00066847  0.11444847  0.50438343  1
  O  O286  1  0.00715215  0.62561647  0.00957330  1
  O  O287  1  -0.00686683  0.60524199  0.49418487  1
  O  O288  1  0.51554078  0.13595421  0.01554070  1
  O  O289  1  0.48754967  0.13449140  0.52476309  1
  O  O290  1  0.50615463  0.62934300  0.00997894  1
  O  O291  1  0.49355834  0.62323865  0.51950867  1
  O  O292  1  0.48992313  0.35926161  0.49140410  1
  O  O293  1  0.49584404  0.37001794  0.98411437  1
  O  O294  1  0.49675992  0.88275466  0.48230035  1
  O  O295  1  0.49160466  0.85733714  0.99802213  1
  O  O296  1  1.00221817  0.39357268  0.49960548  1
  O  O297  1  1.00440076  0.39239849  1.00965958  1
  O  O298  1  0.99000538  0.88466881  0.49722760  1
  O  O299  1  1.00392343  0.86907388  0.98893249  1
  O  O300  1  0.51172816  0.49888034  0.38088013  1
  O  O301  1  0.49126872  0.48577530  0.86702252  1
  O  O302  1  0.49328394  1.00172698  0.36798799  1
  O  O303  1  0.49949582  0.99175132  0.86931616  1
  O  O304  1  1.00058680  0.50263393  0.39385532  1
  O  O305  1  0.99312813  0.50701369  0.88744948  1
  O  O306  1  0.98660640  1.00866457  0.38758418  1
  O  O307  1  0.99453854  0.98427193  0.87636973  1
  O  O308  1  -0.00484839  0.01688601  0.12908223  1
  O  O309  1  -0.00434824  -0.00473458  0.61258014  1
  O  O310  1  -0.00325077  0.51357544  0.11054672  1
  O  O311  1  0.00432739  0.51441708  0.60402940  1
  O  O312  1  0.49181896  0.01368530  0.12890163  1
  O  O313  1  0.49394262  0.01629576  0.63509082  1
  O  O314  1  0.51343753  0.50983936  0.12971560  1
  O  O315  1  0.49009427  0.50906836  0.63805724  1
  O  O316  1  0.23732660  0.38227435  0.24239731  1
  O  O317  1  0.31302129  0.39664184  0.72413056  1
  O  O318  1  0.23749027  0.86451337  0.24883516  1
  O  O319  1  0.25030500  0.88764622  0.75290912  1
  O  O320  1  0.74915585  0.37273167  0.23356370  1
  O  O321  1  0.73556136  0.37018496  0.75183986  1
  O  O322  1  0.73341152  0.86532842  0.25576916  1
  O  O323  1  0.75485789  0.88943031  0.75738921  1
  O  O324  1  0.22025173  0.12704567  0.27780969  1
  O  O325  1  0.26151719  0.10886153  0.75064308  1
  O  O326  1  0.25603327  0.61911188  0.25290322  1
  O  O327  1  0.27030669  0.64067996  0.75644774  1
  O  O328  1  0.74543023  0.11531629  0.26445849  1
  O  O329  1  0.75407214  0.10494937  0.75176835  1
  O  O330  1  0.76276429  0.63427395  0.25685822  1
  O  O331  1  0.76421578  0.62445526  0.75538138  1
  O  O332  1  0.37017148  0.15971664  0.36655779  1
  O  O333  1  0.38484536  0.10751535  0.86948978  1
  O  O334  1  0.36941332  0.61655252  0.36311483  1
  O  O335  1  0.38336145  0.61585236  0.87112538  1
  O  O336  1  0.86719474  0.11664546  0.37068834  1
  O  O337  1  0.87392718  0.12479139  0.87889886  1
  O  O338  1  0.86883101  0.62656585  0.35989697  1
  O  O339  1  0.86766907  0.61903304  0.86229717  1
  O  O340  1  0.13820886  0.36276151  0.13383255  1
  O  O341  1  0.07409112  0.39314635  0.64946852  1
  O  O342  1  0.12406904  0.88887486  0.13542524  1
  O  O343  1  0.11914384  0.89167266  0.62911503  1
  O  O344  1  0.63130276  0.38891898  0.11912222  1
  O  O345  1  0.61855384  0.37028130  0.64076572  1
  O  O346  1  0.62179689  0.88616459  0.13089111  1
  O  O347  1  0.62557435  0.91612580  0.58769032  1
  O  O348  1  0.11621353  0.25657348  0.26116948  1
  O  O349  1  0.11114777  0.24194494  0.76287736  1
  O  O350  1  0.11382985  0.76329946  0.24393571  1
  O  O351  1  0.11787637  0.74778823  0.75570037  1
  O  O352  1  0.61944483  0.25731011  0.23093997  1
  O  O353  1  0.62027652  0.24859856  0.75525098  1
  O  O354  1  0.61135802  0.76316955  0.23893495  1
  O  O355  1  0.61962825  0.74599775  0.75744699  1
  O  O356  1  0.38792481  0.25659717  0.23551171  1
  O  O357  1  0.36820687  0.23308541  0.76377129  1
  O  O358  1  0.38682824  0.73799131  0.24893317  1
  O  O359  1  0.38739326  0.74710118  0.74532305  1
  O  O360  1  0.88511237  0.25891035  0.24183651  1
  O  O361  1  0.89461427  0.25541616  0.75072491  1
  O  O362  1  0.89333587  0.73951025  0.24829688  1
  O  O363  1  0.87742515  0.74387294  0.73770163  1
  O  O364  1  0.36721850  0.48295403  0.50221031  1
  O  O365  1  0.37704064  0.49166179  0.98980063  1
  O  O366  1  0.34295058  1.00641230  0.47853847  1
  O  O367  1  0.38089203  0.98839536  0.98923539  1
  O  O368  1  0.89188358  0.49493887  0.49874235  1
  O  O369  1  0.88786173  0.50684300  0.98909049  1
  O  O370  1  0.88046454  0.98732827  0.49487101  1
  O  O371  1  0.87894868  1.00247000  0.98301334  1
  O  O372  1  0.11484566  -0.00524654  0.01984659  1
  O  O373  1  0.11403075  0.00479296  0.50968039  1
  O  O374  1  0.11652390  0.51313428  -0.00850681  1
  O  O375  1  0.10358311  0.49746309  0.49714576  1
  O  O376  1  0.63231028  0.00886454  0.01252502  1
  O  O377  1  0.64075857  -0.03465171  0.53112096  1
  O  O378  1  0.62893020  0.50889825  0.00289300  1
  O  O379  1  0.55705800  0.49522455  0.44853731  1
  O  O380  1  0.36921153  0.36901390  0.11802619  1
  O  O381  1  0.38428630  0.36152900  0.60598784  1
  O  O382  1  0.38036689  0.87684190  0.10745686  1
  O  O383  1  0.38004715  0.86111133  0.61910232  1
  O  O384  1  0.86348899  0.36761500  0.12354458  1
  O  O385  1  0.89779374  0.39816792  0.60951545  1
  O  O386  1  0.88089708  0.87638486  0.10182084  1
  O  O387  1  0.87637403  0.86287997  0.61825062  1
  O  O388  1  0.11174842  0.13508671  0.39095173  1
  O  O389  1  0.12935131  0.13524517  0.87483744  1
  O  O390  1  0.14098891  0.62551767  0.36406684  1
  O  O391  1  0.11836119  0.63837833  0.89386377  1
  O  O392  1  0.62988023  0.12269176  0.37554687  1
  O  O393  1  0.61728395  0.11687081  0.89315330  1
  O  O394  1  0.64165234  0.63633998  0.36215382  1
  O  O395  1  0.63187443  0.62123701  0.87669394  1
