# generated using pymatgen
data_V35Zn35O128
_symmetry_space_group_name_H-M   'P 1'
_cell_length_a   16.94847431
_cell_length_b   16.93500371
_cell_length_c   16.91489852
_cell_angle_alpha   89.78281256
_cell_angle_beta   90.30176554
_cell_angle_gamma   89.82886269
_symmetry_Int_Tables_number   1
_chemical_formula_structural   V35Zn35O128
_chemical_formula_sum   'V70 Zn70 O256'
_cell_volume   4854.83187847
_cell_formula_units_Z   2
loop_
 _symmetry_equiv_pos_site_id
 _symmetry_equiv_pos_as_xyz
  1  'x, y, z'
loop_
 _atom_site_type_symbol
 _atom_site_label
 _atom_site_symmetry_multiplicity
 _atom_site_fract_x
 _atom_site_fract_y
 _atom_site_fract_z
 _atom_site_occupancy
  V  V0  1  0.13700266  0.49448426  0.10092329  1
  V  V1  1  0.23581487  0.61735288  0.87204477  1
  V  V2  1  0.74837908  0.87758787  0.14045414  1
  V  V3  1  0.00462127  0.74760590  0.22931310  1
  V  V4  1  0.00485539  0.39289541  0.37784760  1
  V  V5  1  0.38137476  0.75609370  0.62558975  1
  V  V6  1  0.37364774  0.12457169  0.74611144  1
  V  V7  1  0.87297805  0.00640040  0.87638383  1
  V  V8  1  0.51140328  0.01321979  0.00486398  1
  V  V9  1  0.12593531  0.74425109  0.87389320  1
  V  V10  1  0.25316310  0.11775544  0.87153261  1
  V  V11  1  0.74585119  0.37044822  0.62086108  1
  V  V12  1  0.49663117  0.50804301  0.00815056  1
  V  V13  1  0.73990719  0.00742599  0.75491673  1
  V  V14  1  0.13323857  0.75490709  0.35546473  1
  V  V15  1  0.50975601  0.26039922  0.75517645  1
  V  V16  1  0.12016255  0.11273523  0.49605742  1
  V  V17  1  0.00574013  0.87931685  0.86075334  1
  V  V18  1  0.77114377  0.23886884  0.48322420  1
  V  V19  1  0.25073226  0.26095045  0.51364528  1
  V  V20  1  0.39373472  0.87960888  -0.03806261  1
  V  V21  1  0.62457672  0.38783593  0.25720134  1
  V  V22  1  0.26628860  0.35991580  0.12416210  1
  V  V23  1  0.24871717  0.00511946  0.24007667  1
  V  V24  1  0.49483161  0.25259336  0.23821512  1
  V  V25  1  0.26885248  0.83091137  0.08307883  1
  V  V26  1  0.00405047  0.62505011  0.11292021  1
  V  V27  1  0.25327188  0.49666517  0.24981686  1
  V  V28  1  0.38701961  0.49147384  0.38096784  1
  V  V29  1  0.72605630  0.52430238  0.78961807  1
  V  V30  1  0.12363877  0.25057662  0.87627049  1
  V  V31  1  0.88306813  0.86261269  0.00926213  1
  V  V32  1  0.36516782  0.61842448  0.74978172  1
  V  V33  1  0.25643820  0.62446898  0.37154289  1
  V  V34  1  0.86357385  0.74216070  0.64734996  1
  V  V35  1  0.62401346  0.24207656  0.89777576  1
  V  V36  1  0.60545573  0.25454015  0.38716646  1
  V  V37  1  0.24476033  0.75230528  0.49588073  1
  V  V38  1  0.75728728  0.35277266  0.13890939  1
  V  V39  1  0.38359036  0.37532212  0.51310746  1
  V  V40  1  0.12238373  0.37117470  0.24838257  1
  V  V41  1  0.49427445  -0.00063044  0.49206624  1
  V  V42  1  0.00391703  0.87988098  0.37240714  1
  V  V43  1  0.74140864  0.87960170  0.63831179  1
  V  V44  1  0.01449254  -0.00446256  0.01276350  1
  V  V45  1  0.23927480  0.48991905  0.72597873  1
  V  V46  1  0.38103771  0.12493206  0.23182969  1
  V  V47  1  0.88339065  0.12561004  0.74427810  1
  V  V48  1  0.48986114  0.76318134  0.25581276  1
  V  V49  1  0.74833597  0.75210356  0.50381710  1
  V  V50  1  0.23800768  -0.00252903  0.74445891  1
  V  V51  1  0.61405792  0.77449091  0.37791464  1
  V  V52  1  0.00625392  0.75023363  0.73804589  1
  V  V53  1  0.37992317  0.87858058  0.48800552  1
  V  V54  1  0.49844891  0.11850581  0.63224422  1
  V  V55  1  0.62941791  0.12218296  0.50455492  1
  V  V56  1  0.61828279  0.62197944  0.49659124  1
  V  V57  1  0.12265150  0.36525497  0.73510611  1
  V  V58  1  0.23391196  0.88269234  0.61952670  1
  V  V59  1  0.11283734  0.62025547  0.50446993  1
  V  V60  1  -0.00964561  0.36879934  0.87795966  1
  V  V61  1  0.60771664  0.86411605  0.76739804  1
  V  V62  1  0.12720998  0.12003458  0.01260584  1
  V  V63  1  0.26526269  0.12469515  0.37962619  1
  V  V64  1  0.26939022  0.24442816  -0.00032821  1
  V  V65  1  -0.01632944  0.49850275  -0.01231475  1
  V  V66  1  0.72916693  0.74217568  0.00701893  1
  V  V67  1  0.49689786  0.61283082  0.62319438  1
  V  V68  1  0.12729746  0.25326096  0.37125776  1
  V  V69  1  0.88460959  0.40406524  0.49842467  1
  Zn  Zn70  1  0.88753831  0.58995700  0.75971620  1
  Zn  Zn71  1  0.12290461  0.90690795  0.20722244  1
  Zn  Zn72  1  -0.02772150  0.18762773  0.18866358  1
  Zn  Zn73  1  0.61993827  0.48368359  0.62890850  1
  Zn  Zn74  1  0.87829034  0.24785987  0.63233207  1
  Zn  Zn75  1  0.38764163  0.62205899  0.23633364  1
  Zn  Zn76  1  0.19259944  0.18537671  0.18990031  1
  Zn  Zn77  1  0.17835663  0.18287865  0.68336692  1
  Zn  Zn78  1  0.19480439  0.67687687  0.17551045  1
  Zn  Zn79  1  0.18395613  0.69295264  0.68106041  1
  Zn  Zn80  1  0.68819390  0.18987665  0.20933844  1
  Zn  Zn81  1  0.68991901  0.19166276  0.68211499  1
  Zn  Zn82  1  0.63910622  0.74561927  0.15500206  1
  Zn  Zn83  1  0.67536629  0.69277175  0.69719413  1
  Zn  Zn84  1  0.31690030  0.30970580  0.31724300  1
  Zn  Zn85  1  0.31956521  0.30984233  0.80799988  1
  Zn  Zn86  1  0.31558097  0.82174896  0.29662911  1
  Zn  Zn87  1  0.30499160  0.80803134  0.80305940  1
  Zn  Zn88  1  0.80481608  0.43488400  0.32533866  1
  Zn  Zn89  1  0.80447225  0.30320400  0.81420770  1
  Zn  Zn90  1  0.82193235  0.78213121  0.31576252  1
  Zn  Zn91  1  0.80568180  0.81350481  0.82675490  1
  Zn  Zn92  1  0.18951361  0.44155620  0.44104432  1
  Zn  Zn93  1  0.22101833  0.42138095  0.91669891  1
  Zn  Zn94  1  0.19663803  0.93810909  0.42285820  1
  Zn  Zn95  1  0.18844406  0.93351285  0.92973272  1
  Zn  Zn96  1  0.67701282  0.43845670  0.44405369  1
  Zn  Zn97  1  0.70274290  0.39648255  0.93911822  1
  Zn  Zn98  1  0.68089975  0.93557609  0.45702874  1
  Zn  Zn99  1  0.68992379  0.93081694  0.94359679  1
  Zn  Zn100  1  0.32206015  0.05198656  0.05540344  1
  Zn  Zn101  1  0.31544742  0.06581560  0.56337454  1
  Zn  Zn102  1  0.30634452  0.56638724  0.05753956  1
  Zn  Zn103  1  0.30989681  0.56304298  0.55689371  1
  Zn  Zn104  1  0.83010362  0.04739217  0.07271911  1
  Zn  Zn105  1  0.99543988  0.11148502  0.61510936  1
  Zn  Zn106  1  0.80332371  0.57370099  -0.05429575  1
  Zn  Zn107  1  0.80258468  0.56699650  0.56783639  1
  Zn  Zn108  1  0.43829984  0.42998436  0.19911220  1
  Zn  Zn109  1  0.42960273  0.43524895  0.69104223  1
  Zn  Zn110  1  0.42518797  0.93614139  0.18413668  1
  Zn  Zn111  1  0.43346902  0.94435013  0.69077795  1
  Zn  Zn112  1  0.95065804  0.42702357  0.16997408  1
  Zn  Zn113  1  0.92660355  0.42524500  0.69381651  1
  Zn  Zn114  1  0.90578451  0.90859970  0.22387382  1
  Zn  Zn115  1  0.92271077  0.93875726  0.67852183  1
  Zn  Zn116  1  0.06415275  0.07090140  0.30745796  1
  Zn  Zn117  1  0.06486683  0.06533119  0.81191017  1
  Zn  Zn118  1  0.07251750  0.56765774  0.30525423  1
  Zn  Zn119  1  0.05208619  0.54942439  0.79047335  1
  Zn  Zn120  1  0.55685590  0.07183590  0.31880872  1
  Zn  Zn121  1  0.57129692  0.06702319  0.82584280  1
  Zn  Zn122  1  0.56083000  0.57503138  0.31433651  1
  Zn  Zn123  1  0.54963185  0.55276475  0.80494975  1
  Zn  Zn124  1  0.43584733  0.19234326  0.44852205  1
  Zn  Zn125  1  0.45449056  0.15707258  0.93306957  1
  Zn  Zn126  1  0.43636855  0.68855042  0.43711382  1
  Zn  Zn127  1  0.43319284  0.71001462  1.07781831  1
  Zn  Zn128  1  0.95250258  0.18117002  0.39621406  1
  Zn  Zn129  1  0.95313514  0.20492574  0.98961589  1
  Zn  Zn130  1  0.93243330  0.68783874  0.43476148  1
  Zn  Zn131  1  0.94480907  0.68328802  0.92695517  1
  Zn  Zn132  1  0.06783638  0.31169442  0.06120321  1
  Zn  Zn133  1  0.05095093  0.29569470  0.55307445  1
  Zn  Zn134  1  0.07970842  0.81485283  0.05329851  1
  Zn  Zn135  1  0.05235511  0.93836422  0.54814665  1
  Zn  Zn136  1  0.57070010  0.31632608  0.06785867  1
  Zn  Zn137  1  0.55288601  0.30333328  0.57431173  1
  Zn  Zn138  1  0.55366988  0.85772254  0.07247474  1
  Zn  Zn139  1  0.56349890  0.81656530  0.57253659  1
  O  O140  1  0.13038737  0.12648379  0.11167286  1
  O  O141  1  0.12247697  0.12627609  0.59963442  1
  O  O142  1  0.13423955  0.59667441  0.11650066  1
  O  O143  1  0.12578334  0.63582235  0.60317708  1
  O  O144  1  0.64912167  0.11089357  0.12112538  1
  O  O145  1  0.61055908  0.13238734  0.61445534  1
  O  O146  1  0.67896526  0.62938727  0.18605410  1
  O  O147  1  0.60130697  0.63061579  0.62770169  1
  O  O148  1  0.37173717  0.38724195  0.38195117  1
  O  O149  1  0.32618579  0.38929252  0.88279126  1
  O  O150  1  0.37081527  0.87134732  0.39003120  1
  O  O151  1  0.37542484  0.86892350  0.86280126  1
  O  O152  1  0.89040111  0.38573430  0.38864626  1
  O  O153  1  0.89207432  0.36405151  0.86792149  1
  O  O154  1  0.90539283  0.86863458  0.34115346  1
  O  O155  1  0.89135367  0.88217776  0.88617137  1
  O  O156  1  0.25351578  0.02220434  0.36853605  1
  O  O157  1  0.24172557  0.00443118  0.85411934  1
  O  O158  1  0.25579395  0.50613333  0.36521578  1
  O  O159  1  0.23284955  0.51618113  0.84777804  1
  O  O160  1  0.78032929  -0.01918553  0.39791307  1
  O  O161  1  0.76695548  -0.00869058  0.87048218  1
  O  O162  1  0.75729356  0.49941447  0.40052734  1
  O  O163  1  0.72605933  0.50124231  0.89315041  1
  O  O164  1  0.24948847  0.48339380  0.12701639  1
  O  O165  1  0.24383611  0.50055113  0.62714162  1
  O  O166  1  0.25718618  1.00877817  0.14022577  1
  O  O167  1  0.25317673  0.98912049  0.62558791  1
  O  O168  1  0.82866248  0.54750733  0.20163176  1
  O  O169  1  0.74588440  0.47541154  0.60928232  1
  O  O170  1  0.76143913  0.97857590  0.12459153  1
  O  O171  1  0.75238981  0.98410545  0.64727953  1
  O  O172  1  0.01614516  0.37951859  0.25462368  1
  O  O173  1  0.01594677  0.36975067  0.77005413  1
  O  O174  1  0.02291265  0.85809932  0.23467598  1
  O  O175  1  -0.00988750  0.87081078  0.75825216  1
  O  O176  1  0.50888081  0.36025867  0.25447616  1
  O  O177  1  0.49049781  0.35945131  0.74920733  1
  O  O178  1  0.48154000  0.86391638  0.25769199  1
  O  O179  1  0.51109432  0.89062609  0.74986247  1
  O  O180  1  0.48708215  0.13533101  0.25161476  1
  O  O181  1  0.49460620  0.11868032  0.74140571  1
  O  O182  1  0.49983675  0.64539728  0.25364256  1
  O  O183  1  0.47569199  0.61590053  0.73903506  1
  O  O184  1  0.98639157  0.15094501  0.29095996  1
  O  O185  1  0.98670022  0.11817863  0.74811402  1
  O  O186  1  1.02166476  0.63418769  0.22719137  1
  O  O187  1  0.99702537  0.65377782  0.76054442  1
  O  O188  1  0.36552563  0.23190157  -0.00716312  1
  O  O189  1  0.36060015  0.26473552  0.49628534  1
  O  O190  1  0.37586397  0.79085304  0.01956490  1
  O  O191  1  0.36623190  0.75654845  0.50766806  1
  O  O192  1  0.83363855  0.20474396  -0.00607687  1
  O  O193  1  0.86626705  0.21633420  0.46257120  1
  O  O194  1  0.89618289  0.76405382  -0.00312205  1
  O  O195  1  0.85041518  0.74065600  0.51793366  1
  O  O196  1  0.13941470  0.24347420  0.49031715  1
  O  O197  1  0.13444513  0.23308351  0.99491448  1
  O  O198  1  0.14123192  0.74389870  0.47918529  1
  O  O199  1  0.12147660  0.74364633  0.97238242  1
  O  O200  1  0.61381497  0.24132311  0.49577518  1
  O  O201  1  0.60897259  0.23895588  0.99742289  1
  O  O202  1  0.62140766  0.74704530  0.49788699  1
  O  O203  1  0.62912173  0.75910097  1.02918212  1
  O  O204  1  0.50354403  0.25304313  0.14021236  1
  O  O205  1  0.49755202  0.23443181  0.64462714  1
  O  O206  1  0.51506723  0.75991376  0.14517064  1
  O  O207  1  0.48300668  0.74567073  0.62403660  1
  O  O208  1  0.98241833  0.24432208  0.09590637  1
  O  O209  1  0.98350936  0.22427982  0.60390711  1
  O  O210  1  1.03165216  0.73343655  0.12050684  1
  O  O211  1  0.97203732  0.75592139  0.63764571  1
  O  O212  1  0.02343483  0.27514619  0.38555072  1
  O  O213  1  0.01056275  0.26055662  0.89875288  1
  O  O214  1  0.02329986  0.75152672  0.34826835  1
  O  O215  1  0.00813035  0.76283566  0.86233859  1
  O  O216  1  0.50326193  0.25088813  0.37551240  1
  O  O217  1  0.50983295  0.23517117  0.86323922  1
  O  O218  1  0.50676649  0.75520846  0.37577418  1
  O  O219  1  0.54968787  0.70222099  0.89539711  1
  O  O220  1  0.24954844  0.13318002  0.49061335  1
  O  O221  1  0.24424393  0.12440726  0.99377771  1
  O  O222  1  0.24774164  0.63557830  0.48851752  1
  O  O223  1  0.24935652  0.61212789  0.97006039  1
  O  O224  1  0.73038636  0.13396131  0.50601313  1
  O  O225  1  0.79095743  0.14300366  1.00994411  1
  O  O226  1  0.72550361  0.64280742  0.52026822  1
  O  O227  1  0.74695202  0.64269726  1.01485137  1
  O  O228  1  0.25185738  0.35322183  0.01409101  1
  O  O229  1  0.24914381  0.36376554  0.50070744  1
  O  O230  1  0.26840485  0.88240513  -0.01087521  1
  O  O231  1  0.25907973  0.87390058  0.50516901  1
  O  O232  1  0.73754006  0.38876085  0.04569076  1
  O  O233  1  0.77900280  0.35539901  0.49983345  1
  O  O234  1  0.77366267  0.87504121  0.00982173  1
  O  O235  1  0.73636619  0.86256438  0.52600443  1
  O  O236  1  0.14106532  0.48863109  0.24171229  1
  O  O237  1  0.13118689  0.47897379  0.74128365  1
  O  O238  1  0.14244835  1.01796724  0.24330985  1
  O  O239  1  0.13909618  1.01206995  0.73787743  1
  O  O240  1  0.61053765  0.48566027  0.26401019  1
  O  O241  1  0.63119267  0.49572055  0.74763250  1
  O  O242  1  0.62590222  1.05357939  0.16692959  1
  O  O243  1  0.63904572  0.99814020  0.76247288  1
  O  O244  1  0.36982996  0.01941324  0.24970462  1
  O  O245  1  0.35783908  0.01520862  0.74140693  1
  O  O246  1  0.36858247  0.49829473  0.26139571  1
  O  O247  1  0.35516678  0.50893727  0.74138074  1
  O  O248  1  0.89986399  0.02994550  0.22759671  1
  O  O249  1  0.86652649  0.00327305  0.76262303  1
  O  O250  1  0.87615788  0.51261659  0.24851672  1
  O  O251  1  0.81379960  0.49115563  0.75361327  1
  O  O252  1  0.12933060  0.37335016  0.36523131  1
  O  O253  1  0.12889154  0.35931524  0.87236432  1
  O  O254  1  0.12861048  0.85952147  0.37013043  1
  O  O255  1  0.11336181  0.86565224  0.87008381  1
  O  O256  1  0.62290124  0.36182107  0.37422839  1
  O  O257  1  0.60463131  0.36058822  0.89128293  1
  O  O258  1  0.61832171  0.87404266  0.38466450  1
  O  O259  1  0.62648974  0.87677636  0.86587551  1
  O  O260  1  0.37001842  0.12876564  0.13413116  1
  O  O261  1  0.38725672  0.12702472  0.63042311  1
  O  O262  1  0.36739613  0.63044740  0.12437495  1
  O  O263  1  0.38040861  0.63358346  0.62060525  1
  O  O264  1  0.89847827  0.08048475  0.16556591  1
  O  O265  1  0.86988942  0.11700836  0.64492994  1
  O  O266  1  0.90891955  0.62772860  0.11461374  1
  O  O267  1  0.85277215  0.63820773  0.64595056  1
  O  O268  1  0.25284610  0.25200128  0.11580654  1
  O  O269  1  0.24695461  0.24377570  0.61128506  1
  O  O270  1  0.24897098  0.73225490  0.09471132  1
  O  O271  1  0.25302192  0.76451539  0.61271653  1
  O  O272  1  0.75240710  0.25146469  0.13937047  1
  O  O273  1  0.75932083  0.25037326  0.60253024  1
  O  O274  1  0.76116850  0.76952635  0.11106997  1
  O  O275  1  0.74813609  0.75666211  0.63121814  1
  O  O276  1  0.24474191  0.24423952  0.38076277  1
  O  O277  1  0.24380449  0.23902758  0.88819730  1
  O  O278  1  0.25076604  0.74509910  0.37447124  1
  O  O279  1  0.23058707  0.73852168  0.85460148  1
  O  O280  1  0.72719244  0.24761343  0.39275142  1
  O  O281  1  0.72436750  0.28862675  0.88939817  1
  O  O282  1  0.73159063  0.76415031  0.39976839  1
  O  O283  1  0.74751676  0.76182206  0.90740975  1
  O  O284  1  0.01825120  0.10796827  -0.00531811  1
  O  O285  1  0.02133542  0.12125533  0.47461208  1
  O  O286  1  0.01040416  0.60584567  -0.00060889  1
  O  O287  1  0.01475585  0.63777905  0.48658789  1
  O  O288  1  0.49416461  0.10872675  0.03421544  1
  O  O289  1  0.49853761  0.11760939  0.51229521  1
  O  O290  1  0.48479860  0.61189940  0.01822412  1
  O  O291  1  0.50408218  0.62997633  0.51434357  1
  O  O292  1  0.48308161  0.36789844  0.50797638  1
  O  O293  1  0.50791426  0.40324066  1.00505238  1
  O  O294  1  0.49519798  0.89213790  0.51155572  1
  O  O295  1  0.49615564  0.87812346  0.96985208  1
  O  O296  1  0.98944597  0.38030055  0.49619916  1
  O  O297  1  1.00624408  0.38780282  0.99088232  1
  O  O298  1  1.00335840  0.86791723  0.47237768  1
  O  O299  1  1.00548078  0.88394293  0.98877559  1
  O  O300  1  0.48410950  0.50558135  0.37504612  1
  O  O301  1  0.50280091  0.51523715  0.90473318  1
  O  O302  1  0.50000917  1.00635418  0.39260277  1
  O  O303  1  0.49245995  1.04073015  0.89901615  1
  O  O304  1  1.01486150  0.49219027  0.36721110  1
  O  O305  1  1.00812770  0.48493890  0.88379951  1
  O  O306  1  1.02009326  0.97745969  0.35617164  1
  O  O307  1  0.99812198  0.98806672  0.87141552  1
  O  O308  1  0.01892932  -0.01079093  0.10838397  1
  O  O309  1  -0.01111048  -0.00098088  0.61409408  1
  O  O310  1  0.01740566  0.49986384  0.10673353  1
  O  O311  1  -0.03118760  0.52148172  0.71468467  1
  O  O312  1  0.49909405  -0.04099666  0.10356681  1
  O  O313  1  0.49915243  0.01433360  0.61878864  1
  O  O314  1  0.48636896  0.49557718  0.11305571  1
  O  O315  1  0.49892133  0.50943054  0.62827002  1
  O  O316  1  0.24706750  0.37625341  0.23956113  1
  O  O317  1  0.23817030  0.38085363  0.74151747  1
  O  O318  1  0.24416817  0.90507717  0.26823827  1
  O  O319  1  0.24878133  0.88681921  0.73156975  1
  O  O320  1  0.73471243  0.38231819  0.25164009  1
  O  O321  1  0.75388864  0.35261322  0.71892347  1
  O  O322  1  0.78828171  0.86329266  0.23677135  1
  O  O323  1  0.73845806  0.87933582  0.75281524  1
  O  O324  1  0.26446088  0.12696390  0.26003943  1
  O  O325  1  0.25277270  0.11870379  0.75047782  1
  O  O326  1  0.25493912  0.61123457  0.25498856  1
  O  O327  1  0.24959479  0.61385227  0.73813059  1
  O  O328  1  0.64959493  0.06897404  0.24696145  1
  O  O329  1  0.75328017  0.10996860  0.74705759  1
  O  O330  1  0.72448492  0.62806179  0.24452938  1
  O  O331  1  0.72568054  0.62467742  0.77528011  1
  O  O332  1  0.36603817  0.13443539  0.37551400  1
  O  O333  1  0.35603737  0.12405808  0.86735702  1
  O  O334  1  0.36559690  0.61255426  0.38084700  1
  O  O335  1  0.35150706  0.63286624  0.84873497  1
  O  O336  1  0.80881579  0.10507441  0.31155224  1
  O  O337  1  0.88271805  0.10563801  0.87052455  1
  O  O338  1  0.86141586  0.68417757  0.35365965  1
  O  O339  1  0.87496160  0.61825589  0.87033161  1
  O  O340  1  0.13375585  0.37907055  0.13067185  1
  O  O341  1  0.10785785  0.35484917  0.63836764  1
  O  O342  1  0.16645505  0.86504214  0.11006987  1
  O  O343  1  0.13684131  0.87828212  0.60899164  1
  O  O344  1  0.63168857  0.36521989  0.15358834  1
  O  O345  1  0.64084978  0.36907348  0.60182575  1
  O  O346  1  0.64713265  0.87084397  0.14887745  1
  O  O347  1  0.63399643  0.87252079  0.64451624  1
  O  O348  1  0.13442120  0.25983449  0.25654393  1
  O  O349  1  0.13433775  0.25587591  0.76173535  1
  O  O350  1  0.14485219  0.74787473  0.25333624  1
  O  O351  1  0.11054608  0.75796443  0.74393896  1
  O  O352  1  0.60917411  0.24635163  0.27072126  1
  O  O353  1  0.61281421  0.25001338  0.75014013  1
  O  O354  1  0.61545035  0.75752535  0.27466073  1
  O  O355  1  0.60987639  0.76362488  0.75489372  1
  O  O356  1  0.38679767  0.24298262  0.25330094  1
  O  O357  1  0.38539537  0.23253119  0.75872827  1
  O  O358  1  0.38573100  0.74234083  0.26029491  1
  O  O359  1  0.35842741  0.73563570  0.72775883  1
  O  O360  1  0.80173646  0.16176884  0.26430211  1
  O  O361  1  0.86561849  0.22862727  0.75465553  1
  O  O362  1  0.90861166  0.75059412  0.22221444  1
  O  O363  1  0.87318314  0.75385239  0.75106316  1
  O  O364  1  0.36644381  0.48778646  0.48950726  1
  O  O365  1  0.39053612  0.50078132  1.00237232  1
  O  O366  1  0.38634227  0.99401915  0.50484365  1
  O  O367  1  0.38699529  0.98293887  0.99603861  1
  O  O368  1  0.88164036  0.50126618  0.51180600  1
  O  O369  1  0.88626441  0.49881127  0.99626280  1
  O  O370  1  0.83787898  1.00374586  0.43870780  1
  O  O371  1  0.89725205  0.99470600  0.99057441  1
  O  O372  1  0.12377308  0.00932711  -0.00939414  1
  O  O373  1  0.13287907  0.00880645  0.49041319  1
  O  O374  1  0.14741029  0.48099775  0.00383309  1
  O  O375  1  0.12908705  0.52084418  0.49144883  1
  O  O376  1  0.61268754  -0.00681466  -0.00224408  1
  O  O377  1  0.61296432  0.01509582  0.50200154  1
  O  O378  1  0.59815297  0.52389756  0.02185025  1
  O  O379  1  0.62185209  0.51929751  0.50978301  1
  O  O380  1  0.36395510  0.36866274  0.13349862  1
  O  O381  1  0.36746219  0.38263344  0.61111796  1
  O  O382  1  0.33439550  0.86463201  0.15256789  1
  O  O383  1  0.37160173  0.86383012  0.61948248  1
  O  O384  1  0.85613137  0.37539777  0.15290539  1
  O  O385  1  0.87415422  0.36900276  0.61071668  1
  O  O386  1  0.89486364  0.88008459  0.10852027  1
  O  O387  1  0.85048535  0.85938341  0.63655777  1
  O  O388  1  0.14168990  0.13645648  0.37933438  1
  O  O389  1  0.13509192  0.13215056  0.87776439  1
  O  O390  1  0.14033084  0.63629494  0.37440996  1
  O  O391  1  0.12552078  0.63494962  0.85564030  1
  O  O392  1  0.61521053  0.13799947  0.39541392  1
  O  O393  1  0.64183820  0.14616140  0.87146882  1
  O  O394  1  0.61833928  0.63467758  0.39540248  1
  O  O395  1  0.59740585  0.64978405  0.87561327  1
