# generated using pymatgen
data_V35Zn35O128
_symmetry_space_group_name_H-M   'P 1'
_cell_length_a   16.94545142
_cell_length_b   16.90023685
_cell_length_c   16.90895835
_cell_angle_alpha   89.75292273
_cell_angle_beta   89.85325344
_cell_angle_gamma   89.83582365
_symmetry_Int_Tables_number   1
_chemical_formula_structural   V35Zn35O128
_chemical_formula_sum   'V70 Zn70 O256'
_cell_volume   4842.34308485
_cell_formula_units_Z   2
loop_
 _symmetry_equiv_pos_site_id
 _symmetry_equiv_pos_as_xyz
  1  'x, y, z'
loop_
 _atom_site_type_symbol
 _atom_site_label
 _atom_site_symmetry_multiplicity
 _atom_site_fract_x
 _atom_site_fract_y
 _atom_site_fract_z
 _atom_site_occupancy
  V  V0  1  0.23003291  0.76472376  0.48511638  1
  V  V1  1  0.86517911  0.37753790  0.00815655  1
  V  V2  1  0.26698737  0.87525714  0.61756081  1
  V  V3  1  0.28856355  0.37027892  0.63135625  1
  V  V4  1  0.62352658  0.87165446  0.75258334  1
  V  V5  1  0.25987174  0.01521675  0.74512692  1
  V  V6  1  0.86863983  0.74376865  0.12309790  1
  V  V7  1  0.02476357  0.61196662  0.63151511  1
  V  V8  1  0.01059024  0.86589704  0.36317330  1
  V  V9  1  0.86986027  0.24716818  0.12745897  1
  V  V10  1  0.74758178  0.49975414  0.25219094  1
  V  V11  1  0.00371675  0.10855675  0.12536962  1
  V  V12  1  0.88647481  0.48679180  0.38348983  1
  V  V13  1  0.24830149  0.13088451  0.36444183  1
  V  V14  1  0.47431924  0.36808904  0.86221096  1
  V  V15  1  0.38006930  0.40188184  0.47773583  1
  V  V16  1  0.86373117  -0.00421426  0.37505010  1
  V  V17  1  0.64589829  0.63631452  0.50616832  1
  V  V18  1  0.47224917  -0.00275161  -0.00159056  1
  V  V19  1  -0.00591803  -0.00855269  0.49768624  1
  V  V20  1  0.86345156  0.50268789  0.86926171  1
  V  V21  1  0.49655510  0.49532502  0.00269541  1
  V  V22  1  0.11108320  0.13224949  0.50343609  1
  V  V23  1  0.48095780  0.75214902  0.74201683  1
  V  V24  1  0.24854099  0.77292819  -0.01686289  1
  V  V25  1  0.11687086  0.11416856  -0.01542672  1
  V  V26  1  0.37858153  -0.00246785  0.38168076  1
  V  V27  1  0.01952842  0.49712563  0.49807976  1
  V  V28  1  0.01700060  0.49548443  0.00573047  1
  V  V29  1  0.25847797  0.50811214  0.23946756  1
  V  V30  1  0.74713370  0.87935025  0.13950242  1
  V  V31  1  0.24205724  -0.01187997  0.24555702  1
  V  V32  1  0.48409972  0.62580192  0.62286904  1
  V  V33  1  0.63176619  0.36479943  0.24465906  1
  V  V34  1  0.86191993  0.00872869  0.88413588  1
  V  V35  1  0.87560336  0.72757854  0.62591180  1
  V  V36  1  0.10808642  0.36089350  0.74604389  1
  V  V37  1  0.50263042  0.13444983  0.12870912  1
  V  V38  1  0.76046885  0.63884163  0.37802428  1
  V  V39  1  0.48082443  0.23691796  0.74940051  1
  V  V40  1  0.37015223  0.36942259  0.03518996  1
  V  V41  1  0.64031669  0.14116953  0.49192307  1
  V  V42  1  0.50433912  0.62622404  0.11409478  1
  V  V43  1  0.62182609  0.00501940  0.62041510  1
  V  V44  1  0.52146474  0.51179784  0.48380507  1
  V  V45  1  0.37788074  0.63650707  0.25182784  1
  V  V46  1  0.85938064  0.11199219  0.25430461  1
  V  V47  1  0.74166521  0.24915496  0.00398190  1
  V  V48  1  0.73616046  0.38938119  0.62980883  1
  V  V49  1  0.01448129  0.62353403  0.12765753  1
  V  V50  1  0.01015200  0.77420248  0.75630616  1
  V  V51  1  0.73899975  0.00933002  0.76731705  1
  V  V52  1  0.62973665  0.10568642  -0.00192917  1
  V  V53  1  0.51456708  0.35529490  0.37058734  1
  V  V54  1  0.24441560  0.25522180  0.00116526  1
  V  V55  1  0.49712737  0.87803865  0.41027972  1
  V  V56  1  0.47939626  0.88136741  0.87219388  1
  V  V57  1  0.76615498  0.88109877  0.61977000  1
  V  V58  1  0.00657106  0.35577852  0.88475064  1
  V  V59  1  0.86757303  0.86055768  -0.00903295  1
  V  V60  1  0.85601346  0.24240914  0.65396045  1
  V  V61  1  0.88904490  0.62431245  0.25426037  1
  V  V62  1  0.03863153  -0.06132559  -0.05986348  1
  V  V63  1  0.12998183  0.37599660  0.23895773  1
  V  V64  1  -0.00436533  0.24841052  0.26067442  1
  V  V65  1  0.12130183  -0.00777236  0.62516499  1
  V  V66  1  0.49064213  0.12806011  0.61858353  1
  V  V67  1  0.62724400  0.25798774  0.86839725  1
  V  V68  1  0.26837169  0.25421913  0.48998254  1
  V  V69  1  0.37460236  0.76660598  0.11387300  1
  Zn  Zn70  1  0.10559618  0.26190866  0.38206752  1
  Zn  Zn71  1  0.68703433  0.46381693  0.06707826  1
  Zn  Zn72  1  0.38439988  0.13692466  0.24919907  1
  Zn  Zn73  1  0.62542086  0.76781102  0.36446701  1
  Zn  Zn74  1  0.13890111  0.63373814  -0.02435373  1
  Zn  Zn75  1  0.19508219  0.52955177  0.67096817  1
  Zn  Zn76  1  0.17446808  0.20403603  0.17508385  1
  Zn  Zn77  1  0.18862810  0.19750576  0.67927015  1
  Zn  Zn78  1  0.22146578  0.66635050  0.13762943  1
  Zn  Zn79  1  0.19388059  0.70150226  0.69117192  1
  Zn  Zn80  1  0.68306282  0.17862241  0.18172483  1
  Zn  Zn81  1  0.68429734  0.18708773  0.69069783  1
  Zn  Zn82  1  0.66368464  0.72241432  0.17458512  1
  Zn  Zn83  1  0.67810692  0.70776592  0.67266200  1
  Zn  Zn84  1  0.31559375  0.32003719  0.30110784  1
  Zn  Zn85  1  0.29000482  0.28408519  0.81114288  1
  Zn  Zn86  1  0.32207624  0.81152549  0.30929425  1
  Zn  Zn87  1  0.29674031  0.82283691  0.80349480  1
  Zn  Zn88  1  0.80909617  0.31087047  0.31832298  1
  Zn  Zn89  1  0.81097945  0.32136512  0.81310738  1
  Zn  Zn90  1  0.83555840  0.81426686  0.30974252  1
  Zn  Zn91  1  0.81778316  0.80879193  0.79640902  1
  Zn  Zn92  1  0.18841798  0.44395216  0.41367597  1
  Zn  Zn93  1  0.19187637  0.43228414  0.93600587  1
  Zn  Zn94  1  0.18478581  0.94369608  0.43400131  1
  Zn  Zn95  1  0.26455425  0.98142019  0.95226636  1
  Zn  Zn96  1  0.69760515  0.43329177  0.43666391  1
  Zn  Zn97  1  0.67066508  0.44888951  0.80854594  1
  Zn  Zn98  1  0.68418719  0.93681700  0.44260986  1
  Zn  Zn99  1  0.68104029  0.90953717  0.94416915  1
  Zn  Zn100  1  0.29515822  0.09679444  0.08085187  1
  Zn  Zn101  1  0.30577085  0.06717014  0.56056510  1
  Zn  Zn102  1  0.32038221  0.56408583  0.05434754  1
  Zn  Zn103  1  0.32007478  0.57634087  0.80039770  1
  Zn  Zn104  1  0.80980655  0.05329656  0.06802469  1
  Zn  Zn105  1  0.81284094  0.06378128  0.56767604  1
  Zn  Zn106  1  0.82132783  0.56854418  0.06458509  1
  Zn  Zn107  1  0.81505673  0.54778300  0.56512318  1
  Zn  Zn108  1  0.44415085  0.44592644  0.20000996  1
  Zn  Zn109  1  0.45588843  0.44091991  0.67582399  1
  Zn  Zn110  1  0.39610136  0.97412895  0.16069865  1
  Zn  Zn111  1  0.43753146  0.93823196  0.67516074  1
  Zn  Zn112  1  0.94001362  0.43704132  0.18999960  1
  Zn  Zn113  1  0.92953981  0.43498458  0.68235128  1
  Zn  Zn114  1  1.06680437  0.93337392  0.18756907  1
  Zn  Zn115  1  0.94023572  0.96578338  0.70197421  1
  Zn  Zn116  1  0.06001685  0.06683868  0.31574249  1
  Zn  Zn117  1  0.05255382  0.06305416  0.80047930  1
  Zn  Zn118  1  0.07766297  0.54526524  0.30736170  1
  Zn  Zn119  1  0.06369894  0.53607975  0.81080090  1
  Zn  Zn120  1  0.56069673  0.06694970  0.32202454  1
  Zn  Zn121  1  0.42856548  0.06669670  0.81255015  1
  Zn  Zn122  1  0.57682465  0.59865846  0.29763348  1
  Zn  Zn123  1  0.49002689  0.55594434  0.81002396  1
  Zn  Zn124  1  0.44381565  0.17978633  0.43626147  1
  Zn  Zn125  1  0.43351889  0.19121366  0.94867593  1
  Zn  Zn126  1  0.43779893  0.68719021  0.43998699  1
  Zn  Zn127  1  0.42819799  0.69546003  0.93061317  1
  Zn  Zn128  1  0.89142887  0.20362156  0.43326088  1
  Zn  Zn129  1  0.92949413  0.18107079  0.94362171  1
  Zn  Zn130  1  0.94660764  0.68603832  0.44935583  1
  Zn  Zn131  1  0.94221230  0.68217049  0.93165890  1
  Zn  Zn132  1  0.05970961  0.29727861  0.06607924  1
  Zn  Zn133  1  0.04827136  0.31079967  0.55263799  1
  Zn  Zn134  1  0.06529237  0.80233860  0.06135157  1
  Zn  Zn135  1  0.05685237  0.80521157  0.56440888  1
  Zn  Zn136  1  0.56047391  0.32205520  0.07102109  1
  Zn  Zn137  1  0.57399592  0.31189160  0.57115624  1
  Zn  Zn138  1  0.56413786  0.81035303  0.04852343  1
  Zn  Zn139  1  0.56853985  0.81077871  0.56424393  1
  O  O140  1  0.10584426  0.12206097  0.12406572  1
  O  O141  1  0.12912137  0.12703374  0.60695907  1
  O  O142  1  0.11299489  0.62728561  0.13572994  1
  O  O143  1  0.12479705  0.61465106  0.62130702  1
  O  O144  1  0.61525982  0.12103747  0.10921513  1
  O  O145  1  0.62267380  0.11656935  0.62090193  1
  O  O146  1  0.60354778  0.63152273  0.12248148  1
  O  O147  1  0.63843628  0.62705049  0.60869004  1
  O  O148  1  0.40167207  0.37698328  0.37386187  1
  O  O149  1  0.37617481  0.35484811  0.87352338  1
  O  O150  1  0.38722028  0.88924668  0.37160178  1
  O  O151  1  0.38110659  0.88284749  0.86034210  1
  O  O152  1  0.88627950  0.38981698  0.36581963  1
  O  O153  1  0.88530854  0.37588947  0.89426845  1
  O  O154  1  0.88918222  0.89227934  0.37331218  1
  O  O155  1  0.86098265  0.86660210  0.88994035  1
  O  O156  1  0.25410844  0.01483151  0.36745692  1
  O  O157  1  0.24523330  0.00026773  0.84250832  1
  O  O158  1  0.19236502  0.52616487  0.32808139  1
  O  O159  1  0.22550428  0.52788029  0.87901398  1
  O  O160  1  0.76552728  -0.00925699  0.38510780  1
  O  O161  1  0.74664766  -0.01210974  0.87482613  1
  O  O162  1  0.77087581  0.50396246  0.37184513  1
  O  O163  1  0.76432750  0.48576545  0.87165935  1
  O  O164  1  0.24401630  0.50870718  0.14065394  1
  O  O165  1  0.23424879  0.44955212  0.60328629  1
  O  O166  1  0.26817408  1.00358986  0.14676703  1
  O  O167  1  0.23859217  0.99373413  0.61768704  1
  O  O168  1  0.76780583  0.49559150  0.15148524  1
  O  O169  1  0.75533020  0.49053006  0.64058022  1
  O  O170  1  0.74347134  0.97929071  0.12791851  1
  O  O171  1  0.74143624  0.99480084  0.63988197  1
  O  O172  1  0.00449676  0.35178631  0.23865402  1
  O  O173  1  0.00286698  0.36763903  0.77386469  1
  O  O174  1  0.00260330  0.87558663  0.26299675  1
  O  O175  1  0.00010186  0.87404034  0.74394855  1
  O  O176  1  0.51945401  0.38415232  0.26309053  1
  O  O177  1  0.48795102  0.35716857  0.75606260  1
  O  O178  1  0.57370176  0.92368268  0.23153495  1
  O  O179  1  0.50363660  0.87074110  0.74527642  1
  O  O180  1  0.51307370  0.11441301  0.23167042  1
  O  O181  1  0.49759364  0.13119907  0.74015614  1
  O  O182  1  0.48383583  0.60989953  0.22573252  1
  O  O183  1  0.50426247  0.64582607  0.73231473  1
  O  O184  1  0.98738511  0.12968623  0.24275765  1
  O  O185  1  0.97232636  0.07454078  0.72705632  1
  O  O186  1  0.99913393  0.60841447  0.23829063  1
  O  O187  1  1.01330417  0.60521391  0.73407499  1
  O  O188  1  0.36442205  0.26392124  0.00954127  1
  O  O189  1  0.36826793  0.25482774  0.49119316  1
  O  O190  1  0.36620544  0.75591596  0.00449518  1
  O  O191  1  0.34255122  0.71889959  0.50602770  1
  O  O192  1  0.86274492  0.25535683  0.00688844  1
  O  O193  1  0.89958631  0.25485941  0.53834533  1
  O  O194  1  0.88142708  0.75149236  0.00853860  1
  O  O195  1  0.88776788  0.75210320  0.52864450  1
  O  O196  1  0.12390388  0.24433200  0.49414313  1
  O  O197  1  0.13474374  0.22749362  1.00403126  1
  O  O198  1  0.13145446  0.74728478  0.49777926  1
  O  O199  1  0.14267019  0.74976463  0.99337200  1
  O  O200  1  0.62744493  0.24126503  0.50221269  1
  O  O201  1  0.63769463  0.26213159  1.00752160  1
  O  O202  1  0.63014788  0.73870933  0.49191766  1
  O  O203  1  0.63893721  0.80398848  0.96523394  1
  O  O204  1  0.50191147  0.23344609  0.11883496  1
  O  O205  1  0.50584440  0.23971305  0.64033740  1
  O  O206  1  0.49144655  0.73538724  0.09839245  1
  O  O207  1  0.50332273  0.74223294  0.62869553  1
  O  O208  1  0.98391116  0.23471404  0.13399668  1
  O  O209  1  0.96153668  0.24145012  0.59411791  1
  O  O210  1  0.99161027  0.72691643  0.11491797  1
  O  O211  1  0.99781467  0.72827895  0.63475327  1
  O  O212  1  -0.01648343  0.24381914  0.36320652  1
  O  O213  1  -0.00474226  0.25739264  0.89059699  1
  O  O214  1  -0.01109279  0.76731530  0.38252973  1
  O  O215  1  -0.00524155  0.74552454  0.85417105  1
  O  O216  1  0.50941344  0.25715800  0.37783726  1
  O  O217  1  0.49925160  0.25260645  0.86711823  1
  O  O218  1  0.49169624  0.77621668  0.39137076  1
  O  O219  1  0.49181275  0.76818350  0.85551749  1
  O  O220  1  0.24771723  0.14576655  0.49259629  1
  O  O221  1  0.21760705  0.08351380  0.99462343  1
  O  O222  1  0.28127808  0.66506658  0.50370473  1
  O  O223  1  0.24402848  0.64109204  1.02317094  1
  O  O224  1  0.73861904  0.12230864  0.50452081  1
  O  O225  1  0.73616750  0.13148935  1.00915056  1
  O  O226  1  0.75356513  0.62368137  0.49288841  1
  O  O227  1  0.72449840  0.56009657  1.01605264  1
  O  O228  1  0.25289540  0.36213206  0.00604694  1
  O  O229  1  0.27293596  0.37417799  0.46792607  1
  O  O230  1  0.24923894  0.87307865  -0.01403043  1
  O  O231  1  0.24356840  0.87429402  0.50595340  1
  O  O232  1  0.76269485  0.37079061  0.01182632  1
  O  O233  1  0.74385746  0.38330426  0.52531124  1
  O  O234  1  0.76686027  0.86916279  0.01834806  1
  O  O235  1  0.74893524  0.88068261  0.52150159  1
  O  O236  1  0.10146836  0.46849440  0.21621600  1
  O  O237  1  0.13696441  0.46115291  0.74969949  1
  O  O238  1  0.13724565  1.00591543  0.25167421  1
  O  O239  1  0.13282389  1.01191977  0.72644747  1
  O  O240  1  0.64662554  0.50808441  0.25763758  1
  O  O241  1  0.59435964  0.52319683  0.78476710  1
  O  O242  1  0.62021386  0.97703479  0.25139920  1
  O  O243  1  0.63252853  0.98886579  0.73882657  1
  O  O244  1  0.36079850  0.01462998  0.26583051  1
  O  O245  1  0.36670894  0.00552618  0.73629836  1
  O  O246  1  0.36184255  0.50795225  0.25507920  1
  O  O247  1  0.40135207  0.50615635  0.74914082  1
  O  O248  1  0.87032419  0.00878738  0.26279186  1
  O  O249  1  0.84808564  -0.01129788  0.77369147  1
  O  O250  1  0.87847175  0.50657640  0.26252862  1
  O  O251  1  0.89069278  0.49385907  0.77281303  1
  O  O252  1  0.12398154  0.36952851  0.34820117  1
  O  O253  1  0.11060431  0.36865087  0.87905504  1
  O  O254  1  0.10987742  0.87924679  0.37988797  1
  O  O255  1  0.10396782  0.89395262  0.88599414  1
  O  O256  1  0.61975113  0.37841192  0.36736059  1
  O  O257  1  0.60097400  0.35817515  0.87695600  1
  O  O258  1  0.60372740  0.88054090  0.38659783  1
  O  O259  1  0.60569315  0.88655404  0.85202603  1
  O  O260  1  0.39800621  0.10780771  0.13141013  1
  O  O261  1  0.39222232  0.12242099  0.61145639  1
  O  O262  1  0.38232136  0.64008956  0.12565153  1
  O  O263  1  0.38959852  0.62680930  0.62112055  1
  O  O264  1  0.87770144  0.12462617  0.13431638  1
  O  O265  1  0.84977203  0.14056028  0.63958149  1
  O  O266  1  0.88952862  0.62505749  0.13317993  1
  O  O267  1  0.86759232  0.62781031  0.63148897  1
  O  O268  1  0.25802655  0.20537815  0.09688489  1
  O  O269  1  0.24721381  0.27376915  0.59830354  1
  O  O270  1  0.26939326  0.76916627  0.11432985  1
  O  O271  1  0.24194499  0.77406574  0.61478309  1
  O  O272  1  0.76172163  0.24338165  0.11943324  1
  O  O273  1  0.75046320  0.26301277  0.64062285  1
  O  O274  1  0.77006021  0.72406097  0.12394420  1
  O  O275  1  0.76920501  0.76686425  0.63832533  1
  O  O276  1  0.24918741  0.24451850  0.38012308  1
  O  O277  1  0.25566582  0.22785375  0.90556736  1
  O  O278  1  0.24925160  0.76976361  0.38632566  1
  O  O279  1  0.26369471  0.75060664  0.88421402  1
  O  O280  1  0.79162593  0.24837578  0.40631762  1
  O  O281  1  0.73439005  0.26057418  0.88793527  1
  O  O282  1  0.76145375  0.73999515  0.37059362  1
  O  O283  1  0.76311497  0.73939921  0.87553469  1
  O  O284  1  0.00212320  0.12912367  0.01668769  1
  O  O285  1  0.01276198  0.12098618  0.48955424  1
  O  O286  1  0.01769900  0.60996431  0.00369733  1
  O  O287  1  -0.00187608  0.61198713  0.51967702  1
  O  O288  1  0.50588673  0.11075498  0.00853210  1
  O  O289  1  0.51471961  0.13346726  0.51526583  1
  O  O290  1  0.49094396  0.60413296  0.00147319  1
  O  O291  1  0.51462440  0.62683044  0.50587183  1
  O  O292  1  0.50339556  0.39310890  0.48124241  1
  O  O293  1  0.47712317  0.37069552  1.00491477  1
  O  O294  1  0.49586345  0.88418549  0.50894282  1
  O  O295  1  0.49312212  0.88560450  0.98041716  1
  O  O296  1  1.00304641  0.39680466  0.49742399  1
  O  O297  1  0.99717716  0.37533888  1.00136153  1
  O  O298  1  1.00080642  0.88943604  0.49769853  1
  O  O299  1  0.98349874  0.86987284  1.00224471  1
  O  O300  1  0.51528308  0.52624547  0.38459710  1
  O  O301  1  0.48484070  0.46929883  0.89254775  1
  O  O302  1  0.48666105  0.99481425  0.37548024  1
  O  O303  1  0.49062024  0.99201098  0.88156244  1
  O  O304  1  0.99554523  0.51531198  0.38567260  1
  O  O305  1  0.99651379  0.48606141  0.89596670  1
  O  O306  1  0.99820689  0.99475509  0.38528806  1
  O  O307  1  0.97376308  0.99293560  0.87268023  1
  O  O308  1  -0.00664891  0.01021803  0.13653073  1
  O  O309  1  0.01201560  0.00239032  0.60538419  1
  O  O310  1  -0.00962573  0.50860212  0.11043200  1
  O  O311  1  0.00023541  0.50339135  0.61484097  1
  O  O312  1  0.49812476  -0.00975279  0.09826968  1
  O  O313  1  0.51425618  0.01499515  0.63254727  1
  O  O314  1  0.48713399  0.50828858  0.11213735  1
  O  O315  1  0.50348288  0.51762417  0.60279388  1
  O  O316  1  0.24168186  0.39408438  0.25326174  1
  O  O317  1  0.29546153  0.37250010  0.72974514  1
  O  O318  1  0.25314709  0.89063244  0.25909024  1
  O  O319  1  0.25226499  0.89199510  0.72418316  1
  O  O320  1  0.74004235  0.38651478  0.26422464  1
  O  O321  1  0.73528378  0.37689946  0.75096070  1
  O  O322  1  0.75837014  0.86103252  0.23853802  1
  O  O323  1  0.73481041  0.87734923  0.74481539  1
  O  O324  1  0.24225366  0.13483953  0.26343206  1
  O  O325  1  0.25309715  0.11539661  0.72643630  1
  O  O326  1  0.26920272  0.62429286  0.23686800  1
  O  O327  1  0.24605577  0.61088796  0.72677899  1
  O  O328  1  0.76042265  0.12498811  0.24692728  1
  O  O329  1  0.73395826  0.10733422  0.76222183  1
  O  O330  1  0.76887859  0.61292336  0.26793848  1
  O  O331  1  0.71695849  0.67613617  0.85121498  1
  O  O332  1  0.36463354  0.12134101  0.37422182  1
  O  O333  1  0.37204836  0.11880530  0.89240629  1
  O  O334  1  0.38687260  0.63827398  0.35126330  1
  O  O335  1  0.40401745  0.61195270  0.86406120  1
  O  O336  1  0.87806395  0.11109829  0.36235711  1
  O  O337  1  0.86190657  0.10769042  0.88984196  1
  O  O338  1  0.87496010  0.62387546  0.37271264  1
  O  O339  1  0.87371978  0.60081300  0.89561208  1
  O  O340  1  0.13934254  0.32417109  0.14699483  1
  O  O341  1  0.09389318  0.34616258  0.64858794  1
  O  O342  1  0.12696667  0.86702785  0.12528645  1
  O  O343  1  0.12271905  0.89171389  0.61687163  1
  O  O344  1  0.62709771  0.38766581  0.14110408  1
  O  O345  1  0.63033068  0.38208101  0.63481699  1
  O  O346  1  0.65117204  0.83392687  0.12706846  1
  O  O347  1  0.62893739  0.88720300  0.63046931  1
  O  O348  1  0.10215415  0.23420678  0.26296098  1
  O  O349  1  0.17317368  0.27710508  0.76230780  1
  O  O350  1  0.12903815  0.73492759  0.27470978  1
  O  O351  1  0.10940402  0.75635125  0.74046737  1
  O  O352  1  0.63595674  0.26590502  0.24356213  1
  O  O353  1  0.61499298  0.23976412  0.76862054  1
  O  O354  1  0.61251938  0.70804914  0.27202887  1
  O  O355  1  0.61602588  0.76666921  0.74417577  1
  O  O356  1  0.38237374  0.24772681  0.25482710  1
  O  O357  1  0.38234437  0.23494420  0.75304449  1
  O  O358  1  0.37693341  0.74313959  0.23328330  1
  O  O359  1  0.38292835  0.75958273  0.73934193  1
  O  O360  1  0.87727713  0.23990974  0.24442045  1
  O  O361  1  0.87507614  0.24716490  0.75422964  1
  O  O362  1  0.88219226  0.73324540  0.23769565  1
  O  O363  1  0.89486484  0.75801669  0.73106625  1
  O  O364  1  0.38845555  0.49923193  0.47947845  1
  O  O365  1  0.37122744  0.47474335  1.00587439  1
  O  O366  1  0.36282562  1.00660388  0.48015458  1
  O  O367  1  0.37179895  1.00182084  1.00240926  1
  O  O368  1  0.88230932  0.49991543  0.48602843  1
  O  O369  1  0.88232651  0.48210469  1.00232852  1
  O  O370  1  0.88889964  1.01331168  0.49102479  1
  O  O371  1  0.86629016  0.98249866  0.99044999  1
  O  O372  1  0.09041197  0.00612052  -0.00072245  1
  O  O373  1  0.11902492  0.01472738  0.50452175  1
  O  O374  1  0.11507176  0.48270279  0.01099737  1
  O  O375  1  0.11916097  0.50101777  0.48754128  1
  O  O376  1  0.62604402  0.00654815  -0.01296314  1
  O  O377  1  0.62934161  0.00702780  0.51819909  1
  O  O378  1  0.59278680  0.47287473  0.00142144  1
  O  O379  1  0.62424277  0.51453134  0.49547671  1
  O  O380  1  0.37657067  0.37266316  0.13363924  1
  O  O381  1  0.38775158  0.38210601  0.59142438  1
  O  O382  1  0.39756565  0.86222904  0.13244412  1
  O  O383  1  0.36616585  0.87976258  0.60950665  1
  O  O384  1  0.88474917  0.36183498  0.11512966  1
  O  O385  1  0.85638913  0.36112529  0.64195921  1
  O  O386  1  0.86359812  0.84982965  0.12323441  1
  O  O387  1  0.86349263  0.89904073  0.63232816  1
  O  O388  1  0.13926854  0.12495779  0.38781324  1
  O  O389  1  0.10152071  0.11808710  0.88584824  1
  O  O390  1  0.12025606  0.68752079  0.32913985  1
  O  O391  1  0.15580461  0.57814260  0.87420104  1
  O  O392  1  0.62438110  0.11912168  0.39351962  1
  O  O393  1  0.61511028  0.15140096  0.90562965  1
  O  O394  1  0.65450537  0.62120024  0.38909914  1
  O  O395  1  0.67284287  0.64737031  0.90393334  1
