# generated using pymatgen
data_V35Zn35O128
_symmetry_space_group_name_H-M   'P 1'
_cell_length_a   16.86371033
_cell_length_b   16.88076878
_cell_length_c   16.90516567
_cell_angle_alpha   89.88029619
_cell_angle_beta   89.84520383
_cell_angle_gamma   89.89146310
_symmetry_Int_Tables_number   1
_chemical_formula_structural   V35Zn35O128
_chemical_formula_sum   'V70 Zn70 O256'
_cell_volume   4812.39734503
_cell_formula_units_Z   2
loop_
 _symmetry_equiv_pos_site_id
 _symmetry_equiv_pos_as_xyz
  1  'x, y, z'
loop_
 _atom_site_type_symbol
 _atom_site_label
 _atom_site_symmetry_multiplicity
 _atom_site_fract_x
 _atom_site_fract_y
 _atom_site_fract_z
 _atom_site_occupancy
  V  V0  1  0.25058121  0.49299879  0.23922276  1
  V  V1  1  -0.01890637  0.24970287  0.23178237  1
  V  V2  1  0.50173065  0.76239090  0.24838417  1
  V  V3  1  0.60461162  0.25949130  0.38327846  1
  V  V4  1  0.23652730  0.62284762  0.37055626  1
  V  V5  1  0.11184208  0.23835166  0.37746317  1
  V  V6  1  0.27492117  0.36718060  0.11598351  1
  V  V7  1  0.73675482  0.62151311  0.36619176  1
  V  V8  1  0.01746103  0.35947817  0.87011359  1
  V  V9  1  0.00264303  0.51640517  0.49860858  1
  V  V10  1  -0.01748921  0.01327476  0.50704363  1
  V  V11  1  0.25779362  0.24691154  -0.00352789  1
  V  V12  1  0.88651512  0.73706113  0.13192306  1
  V  V13  1  0.87552510  0.00339655  0.86749345  1
  V  V14  1  0.88438500  0.87989074  0.00669387  1
  V  V15  1  0.88585519  0.74743041  0.62166912  1
  V  V16  1  0.76013016  0.13052500  0.37695087  1
  V  V17  1  0.87034233  0.51027285  0.36426160  1
  V  V18  1  0.11659091  0.61476980  0.01939071  1
  V  V19  1  0.24884512  0.89270414  0.66120551  1
  V  V20  1  0.48711004  0.87214035  0.87913281  1
  V  V21  1  0.89605595  0.62819914  0.74805513  1
  V  V22  1  0.62218199  0.00716408  0.62295837  1
  V  V23  1  0.88205917  0.24277248  0.63401263  1
  V  V24  1  0.48855839  0.52332282  0.50268525  1
  V  V25  1  0.86718069  0.37548135  0.49470320  1
  V  V26  1  0.50469584  0.62396746  0.12167709  1
  V  V27  1  0.38187692  0.48981105  0.87734811  1
  V  V28  1  0.48877875  0.74362658  0.74732339  1
  V  V29  1  0.11765155  0.37345732  0.22956875  1
  V  V30  1  0.24889925  0.75675801  0.00896887  1
  V  V31  1  0.62730785  0.62538953  -0.00070082  1
  V  V32  1  0.37510693  0.62448704  0.24594575  1
  V  V33  1  0.00434013  0.87395044  0.86326155  1
  V  V34  1  0.37347145  0.76577597  0.12293267  1
  V  V35  1  -0.00377499  0.37716099  0.37159975  1
  V  V36  1  0.50180492  0.48675249  -0.00241842  1
  V  V37  1  0.37298144  0.01371375  0.86726629  1
  V  V38  1  0.12433048  0.88417938  0.24321469  1
  V  V39  1  0.75336800  0.50434853  0.74999523  1
  V  V40  1  0.47897993  0.87646429  0.38418408  1
  V  V41  1  0.75218347  0.75091458  0.00052801  1
  V  V42  1  0.87107163  -0.02090667  0.37364902  1
  V  V43  1  0.24802379  0.25384034  0.48653271  1
  V  V44  1  0.24067440  0.12592725  0.86176614  1
  V  V45  1  0.38268651  0.47957124  0.37199413  1
  V  V46  1  0.62029377  0.75676821  0.37606135  1
  V  V47  1  0.73242415  0.49121927  0.23090298  1
  V  V48  1  0.25352569  0.48284696  0.74586479  1
  V  V49  1  0.62890604  0.86767893  0.75790054  1
  V  V50  1  0.74048568  0.12655804  0.87096073  1
  V  V51  1  0.73703984  0.73356388  0.51087386  1
  V  V52  1  0.37000299  0.12060084  0.24821059  1
  V  V53  1  -0.01361613  0.11184415  0.12056114  1
  V  V54  1  0.62993545  0.25964713  0.88995317  1
  V  V55  1  0.11929155  0.74883969  0.87049524  1
  V  V56  1  0.73792689  -0.00417198  0.24511626  1
  V  V57  1  0.88956044  0.49726610  0.87881330  1
  V  V58  1  0.74612827  0.87487643  0.61900695  1
  V  V59  1  0.13042939  0.11455470  0.01786495  1
  V  V60  1  0.50287026  0.23215027  0.75016965  1
  V  V61  1  0.26105158  0.62673589  0.87459483  1
  V  V62  1  0.51317449  0.01286856  0.00181022  1
  V  V63  1  0.75073358  0.63093403  0.87444952  1
  V  V64  1  0.61631847  0.37851357  0.75547081  1
  V  V65  1  0.48887650  0.00472799  0.50433431  1
  V  V66  1  0.36379351  0.75548473  0.61282040  1
  V  V67  1  0.87159968  0.37102745  0.00719610  1
  V  V68  1  -0.00073846  0.75763030  0.27695525  1
  V  V69  1  0.75505016  0.38105196  0.62670564  1
  Zn  Zn70  1  0.12092681  0.51022658  0.62923099  1
  Zn  Zn71  1  0.74392275  0.23511577  0.50886252  1
  Zn  Zn72  1  0.24558313  0.90498594  0.12072562  1
  Zn  Zn73  1  0.60965084  0.50350411  0.61391727  1
  Zn  Zn74  1  0.03263063  0.25018580  0.74136882  1
  Zn  Zn75  1  0.73952003  0.87440257  0.12902089  1
  Zn  Zn76  1  0.17974308  0.19550355  0.18158593  1
  Zn  Zn77  1  0.20421761  0.17540690  0.66501493  1
  Zn  Zn78  1  0.18163777  0.69597774  0.19955964  1
  Zn  Zn79  1  0.18731848  0.69032288  0.68920031  1
  Zn  Zn80  1  0.69241093  0.19392799  0.21230219  1
  Zn  Zn81  1  0.69897534  0.18859471  0.69829206  1
  Zn  Zn82  1  0.68671017  0.69394487  0.18520816  1
  Zn  Zn83  1  0.67562549  0.68102777  0.69239019  1
  Zn  Zn84  1  0.30205750  0.30598222  0.31109935  1
  Zn  Zn85  1  0.31852949  0.30762487  0.81780750  1
  Zn  Zn86  1  0.27813078  0.83125893  0.33099138  1
  Zn  Zn87  1  0.31046676  0.81276397  0.81507759  1
  Zn  Zn88  1  0.80050429  0.31911825  0.30360907  1
  Zn  Zn89  1  0.81586958  0.31202387  0.81314735  1
  Zn  Zn90  1  0.80500489  0.81068128  0.31167936  1
  Zn  Zn91  1  0.81895382  0.81243960  0.80912435  1
  Zn  Zn92  1  0.18503549  0.43382679  0.43387696  1
  Zn  Zn93  1  0.19006437  0.43944796  0.94215159  1
  Zn  Zn94  1  0.16912193  0.97662540  0.39383652  1
  Zn  Zn95  1  0.18874473  0.93871940  0.93228494  1
  Zn  Zn96  1  0.67271244  0.43332637  0.43290994  1
  Zn  Zn97  1  0.69269787  0.44271112  0.94117593  1
  Zn  Zn98  1  0.68727671  0.93832061  0.44126152  1
  Zn  Zn99  1  0.69312174  0.93687125  0.93623040  1
  Zn  Zn100  1  0.33055511  0.06077459  0.04820445  1
  Zn  Zn101  1  0.27669883  0.03839868  0.53378105  1
  Zn  Zn102  1  0.31180787  0.56486611  0.05768306  1
  Zn  Zn103  1  0.26727773  0.59027311  0.57824781  1
  Zn  Zn104  1  0.80496786  0.06200724  0.05752026  1
  Zn  Zn105  1  0.80963712  0.06025587  0.56067037  1
  Zn  Zn106  1  0.81976001  0.56131821  0.06268836  1
  Zn  Zn107  1  0.82079510  0.56347699  0.56240619  1
  Zn  Zn108  1  0.43876888  0.44292997  0.17676583  1
  Zn  Zn109  1  0.42257837  0.57390452  0.68805233  1
  Zn  Zn110  1  0.56316162  0.93933481  0.18159543  1
  Zn  Zn111  1  0.43737501  0.93567110  0.68759397  1
  Zn  Zn112  1  0.93480227  0.45416375  0.18360299  1
  Zn  Zn113  1  0.97514052  0.41215014  0.66312618  1
  Zn  Zn114  1  0.93154872  0.93282708  0.19461114  1
  Zn  Zn115  1  0.93199423  0.93195440  0.68794988  1
  Zn  Zn116  1  0.03827661  0.06112285  0.30322271  1
  Zn  Zn117  1  0.03669312  0.08091364  0.84934005  1
  Zn  Zn118  1  0.05586310  0.56346779  0.28035094  1
  Zn  Zn119  1  0.07522812  0.56060884  0.82134455  1
  Zn  Zn120  1  0.56774080  0.06667298  0.32760420  1
  Zn  Zn121  1  0.56905911  0.05215816  0.81198530  1
  Zn  Zn122  1  0.55967250  0.56495744  0.31281796  1
  Zn  Zn123  1  0.56638457  0.56649431  0.81626205  1
  Zn  Zn124  1  0.43554912  0.18418561  0.44092518  1
  Zn  Zn125  1  0.44258261  0.19186756  0.93060285  1
  Zn  Zn126  1  0.41664326  0.69133901  0.43152576  1
  Zn  Zn127  1  0.43947496  0.69347773  0.93949330  1
  Zn  Zn128  1  0.93409040  0.18861699  0.43871896  1
  Zn  Zn129  1  0.94172444  0.19295727  0.94534900  1
  Zn  Zn130  1  0.92754712  0.69515842  0.43484771  1
  Zn  Zn131  1  0.94011893  0.68619830  0.94386487  1
  Zn  Zn132  1  0.06176283  0.30574619  0.04473412  1
  Zn  Zn133  1  0.09735425  0.30214695  0.58345942  1
  Zn  Zn134  1  0.06661977  0.81514475  0.06647258  1
  Zn  Zn135  1  0.06372236  0.83682812  0.57990465  1
  Zn  Zn136  1  0.75511513  0.23986917  0.02814948  1
  Zn  Zn137  1  0.57654381  0.30044489  0.57703521  1
  Zn  Zn138  1  0.56558441  0.81066534  0.05431675  1
  Zn  Zn139  1  0.55742979  0.81031705  0.56584628  1
  O  O140  1  0.11868912  0.12150868  0.12232513  1
  O  O141  1  0.07608673  0.08365089  0.69338435  1
  O  O142  1  0.13217030  0.63169666  0.11823415  1
  O  O143  1  0.15724675  0.61501892  0.61349989  1
  O  O144  1  0.59700691  0.14501624  0.12566673  1
  O  O145  1  0.64185621  0.10436136  0.63752680  1
  O  O146  1  0.61417568  0.63380258  0.11500233  1
  O  O147  1  0.63282938  0.61036654  0.62122675  1
  O  O148  1  0.37309314  0.38083596  0.35877139  1
  O  O149  1  0.37389876  0.39170016  0.88126488  1
  O  O150  1  0.37982774  0.87108112  0.37369382  1
  O  O151  1  0.38392712  0.88339986  0.87410370  1
  O  O152  1  0.87160359  0.38653598  0.37599846  1
  O  O153  1  0.87687268  0.38943081  0.87784768  1
  O  O154  1  0.86282539  0.87996245  0.38344024  1
  O  O155  1  0.88507664  0.87638930  0.88259632  1
  O  O156  1  0.23359451  0.05357734  0.43495403  1
  O  O157  1  0.26264981  0.01211938  0.87994659  1
  O  O158  1  0.26237155  0.49571999  0.35785516  1
  O  O159  1  0.26255496  0.51169064  0.87958948  1
  O  O160  1  0.75336208  0.00408109  0.37241689  1
  O  O161  1  0.76604043  0.01297858  0.88140518  1
  O  O162  1  0.74791821  0.51096359  0.37529745  1
  O  O163  1  0.76281860  0.51199505  0.86885885  1
  O  O164  1  0.26371070  0.48104049  0.12854202  1
  O  O165  1  0.26932222  0.49305823  0.64604827  1
  O  O166  1  0.26368006  1.01414110  0.12260954  1
  O  O167  1  0.26182176  0.99184881  0.63350807  1
  O  O168  1  0.74605352  0.51318433  0.13326564  1
  O  O169  1  0.76033532  0.49527189  0.63686333  1
  O  O170  1  0.75254154  1.00246626  0.14116591  1
  O  O171  1  0.74349892  0.98021650  0.61904792  1
  O  O172  1  0.00466569  0.36819977  0.24920744  1
  O  O173  1  -0.00446760  0.36704621  0.76669223  1
  O  O174  1  0.01127917  0.87043315  0.24852199  1
  O  O175  1  -0.00216806  0.87070105  0.76391155  1
  O  O176  1  0.52420276  0.36904869  0.22630954  1
  O  O177  1  0.51963190  0.38104807  0.75492335  1
  O  O178  1  0.50031775  0.86731731  0.26312364  1
  O  O179  1  0.50695805  0.86579763  0.75978116  1
  O  O180  1  0.47356169  0.11016483  0.25839126  1
  O  O181  1  0.50969555  0.13220059  0.75765810  1
  O  O182  1  0.49363015  0.63222921  0.23945130  1
  O  O183  1  0.50137058  0.63779625  0.75241639  1
  O  O184  1  0.99442676  0.14073483  0.23200244  1
  O  O185  1  1.01896946  0.12877107  0.74421337  1
  O  O186  1  0.99141105  0.65777865  0.26930275  1
  O  O187  1  0.99444033  0.61996415  0.75457465  1
  O  O188  1  0.35955182  0.24155237  -0.00524666  1
  O  O189  1  0.34752611  0.24439834  0.47518061  1
  O  O190  1  0.36350301  0.74591935  0.01313256  1
  O  O191  1  0.36745443  0.75632414  0.51211181  1
  O  O192  1  0.87074985  0.26592627  -0.00313873  1
  O  O193  1  0.86604065  0.26488567  0.50087242  1
  O  O194  1  0.87029050  0.75436389  0.01107009  1
  O  O195  1  0.85784382  0.74177451  0.51723018  1
  O  O196  1  0.10814861  0.25030296  0.47882285  1
  O  O197  1  0.14304156  0.23375805  1.00542831  1
  O  O198  1  0.12220484  0.74125073  0.50552790  1
  O  O199  1  0.13728095  0.74379377  1.00039476  1
  O  O200  1  0.63402111  0.26211943  0.49086639  1
  O  O201  1  0.63774573  0.26062981  0.98762537  1
  O  O202  1  0.63233165  0.74685757  0.49629055  1
  O  O203  1  0.64201135  0.73896584  0.99916422  1
  O  O204  1  0.54623048  0.19620898  0.11426910  1
  O  O205  1  0.51153200  0.24825304  0.64921039  1
  O  O206  1  0.48900155  0.74659712  0.12698016  1
  O  O207  1  0.48072158  0.76000051  0.63764149  1
  O  O208  1  1.00056213  0.24965973  0.13059607  1
  O  O209  1  0.98200362  0.25824139  0.61838541  1
  O  O210  1  0.98645577  0.75380021  0.12368729  1
  O  O211  1  0.98398579  0.76370894  0.61322668  1
  O  O212  1  -0.00369183  0.25901427  0.35911980  1
  O  O213  1  0.00779897  0.25295527  0.86614517  1
  O  O214  1  -0.01390327  0.77185707  0.37616397  1
  O  O215  1  0.01181941  0.75660702  0.88134838  1
  O  O216  1  0.50482863  0.26273282  0.39746864  1
  O  O217  1  0.52570429  0.24786016  0.87035945  1
  O  O218  1  0.49919551  0.75874227  0.36876764  1
  O  O219  1  0.49363241  0.76214330  0.86403020  1
  O  O220  1  0.22997725  0.17519000  0.55520201  1
  O  O221  1  0.24692199  0.13279088  1.00088501  1
  O  O222  1  0.25234512  0.60828649  0.46881817  1
  O  O223  1  0.24274015  0.63468011  0.99466673  1
  O  O224  1  0.74763284  0.12100927  0.48387067  1
  O  O225  1  0.76788269  0.13432515  0.97798466  1
  O  O226  1  0.74915856  0.63099088  0.49378318  1
  O  O227  1  0.74770120  0.62933970  0.99407634  1
  O  O228  1  0.24938582  0.36355257  0.00920278  1
  O  O229  1  0.22922989  0.35223713  0.50881527  1
  O  O230  1  0.24366271  0.86060023  0.00544289  1
  O  O231  1  0.18098261  0.77720161  0.47965924  1
  O  O232  1  0.76811833  0.38094668  -0.00126199  1
  O  O233  1  0.75554139  0.38980837  0.51140934  1
  O  O234  1  0.76175822  0.86315572  -0.00491116  1
  O  O235  1  0.74484125  0.85740938  0.51480395  1
  O  O236  1  0.14211407  0.47742980  0.25251406  1
  O  O237  1  0.15077328  0.50815535  0.75428618  1
  O  O238  1  0.11908436  0.98543412  0.27311384  1
  O  O239  1  0.09823989  1.01993819  0.72809194  1
  O  O240  1  0.63326351  0.50747157  0.24944174  1
  O  O241  1  0.63876285  0.49147696  0.76071782  1
  O  O242  1  0.62951980  1.00357048  0.25254440  1
  O  O243  1  0.61939598  0.97829477  0.73524698  1
  O  O244  1  0.35556676  0.01790416  0.24741158  1
  O  O245  1  0.38797078  0.00193723  0.76789952  1
  O  O246  1  0.37253015  0.50251225  0.25076918  1
  O  O247  1  0.36659759  0.51032192  0.77048441  1
  O  O248  1  0.86000077  -0.00761820  0.26584390  1
  O  O249  1  0.87570168  -0.01013392  0.76889012  1
  O  O250  1  0.85367546  0.49939945  0.26228582  1
  O  O251  1  0.86887894  0.51645241  0.76011834  1
  O  O252  1  0.10791468  0.36911349  0.36273972  1
  O  O253  1  0.11545297  0.37837697  0.87957273  1
  O  O254  1  0.17103093  0.87143613  0.35742182  1
  O  O255  1  0.11389065  0.86302499  0.88506066  1
  O  O256  1  0.63578443  0.35415965  0.36096788  1
  O  O257  1  0.64006369  0.36847569  0.86572536  1
  O  O258  1  0.62323131  0.85887430  0.38089363  1
  O  O259  1  0.62399451  0.87624609  0.86018207  1
  O  O260  1  0.38280685  0.12682389  0.14547558  1
  O  O261  1  0.38494894  0.12803804  0.61779129  1
  O  O262  1  0.38531826  0.62506168  0.13076639  1
  O  O263  1  0.35793580  0.64719884  0.62723704  1
  O  O264  1  0.88874448  0.12688473  0.10539596  1
  O  O265  1  0.86114257  0.14531494  0.61578113  1
  O  O266  1  0.87718666  0.63762541  0.12668165  1
  O  O267  1  0.87553637  0.63518917  0.63795760  1
  O  O268  1  0.25178158  0.26087253  0.11593471  1
  O  O269  1  0.35500031  0.18707963  0.64806068  1
  O  O270  1  0.26104913  0.74351367  0.11810587  1
  O  O271  1  0.26006904  0.76866913  0.64087170  1
  O  O272  1  0.74176536  0.25256782  0.13728169  1
  O  O273  1  0.75527032  0.26689535  0.62615447  1
  O  O274  1  0.76312502  0.75077652  0.11757512  1
  O  O275  1  0.74557280  0.74819644  0.61737520  1
  O  O276  1  0.22356522  0.25122848  0.37740803  1
  O  O277  1  0.25122023  0.23659324  0.88357636  1
  O  O278  1  0.25777699  0.72101097  0.35398400  1
  O  O279  1  0.24537182  0.74543168  0.88990602  1
  O  O280  1  0.75451031  0.23636172  0.36962963  1
  O  O281  1  0.74256028  0.24229829  0.87076430  1
  O  O282  1  0.74234560  0.73873388  0.38475093  1
  O  O283  1  0.76733137  0.73856504  0.88604680  1
  O  O284  1  0.01863044  0.13047725  0.01174371  1
  O  O285  1  -0.00305816  0.11287323  0.49831440  1
  O  O286  1  0.01673644  0.62730738  0.00172879  1
  O  O287  1  -0.00622102  0.61457552  0.47918917  1
  O  O288  1  0.50486370  0.11357912  -0.01277240  1
  O  O289  1  0.49806047  0.10479483  0.49090033  1
  O  O290  1  0.51167622  0.63234241  0.00539804  1
  O  O291  1  0.49324703  0.62102985  0.48413768  1
  O  O292  1  0.44922842  0.35809135  0.54312610  1
  O  O293  1  0.50716777  0.39183066  1.00266240  1
  O  O294  1  0.49735394  0.87320036  0.48785276  1
  O  O295  1  0.50499766  0.87216681  0.98009522  1
  O  O296  1  0.98309607  0.38784616  0.47994026  1
  O  O297  1  0.98835662  0.36710392  0.97800766  1
  O  O298  1  1.03265875  0.90371509  0.48779307  1
  O  O299  1  0.98643207  0.86652337  0.99534641  1
  O  O300  1  0.48658251  0.49817193  0.37080952  1
  O  O301  1  0.49099395  0.50806325  0.88390284  1
  O  O302  1  0.50659155  0.98230984  0.38793673  1
  O  O303  1  0.49682221  0.98741462  0.87686209  1
  O  O304  1  0.98054833  0.49637336  0.36534953  1
  O  O305  1  0.99208264  0.49210634  0.86758183  1
  O  O306  1  0.97414927  1.00235694  0.37880736  1
  O  O307  1  0.99543543  0.97863978  0.88149090  1
  O  O308  1  -0.00736309  0.01313132  0.13455912  1
  O  O309  1  -0.02468509  -0.00484726  0.60732224  1
  O  O310  1  0.01834963  0.52366132  0.18125029  1
  O  O311  1  -0.01589517  0.51351782  0.60015261  1
  O  O312  1  0.50087879  -0.00641482  0.10234877  1
  O  O313  1  0.51184124  -0.00717356  0.61679981  1
  O  O314  1  0.49830726  0.51281347  0.10826744  1
  O  O315  1  0.48258570  0.51513067  0.60715841  1
  O  O316  1  0.24261968  0.37004410  0.23058984  1
  O  O317  1  0.25544900  0.38404772  0.76222137  1
  O  O318  1  0.23403907  0.86307725  0.22892930  1
  O  O319  1  0.24408331  0.88853539  0.76249574  1
  O  O320  1  0.74366014  0.39138422  0.23926754  1
  O  O321  1  0.75380228  0.38752653  0.74300742  1
  O  O322  1  0.74396465  0.88907273  0.25203272  1
  O  O323  1  0.73559660  0.85883507  0.74118748  1
  O  O324  1  0.26591513  0.13397373  0.24076867  1
  O  O325  1  0.23768294  0.12900957  0.76267258  1
  O  O326  1  0.25827966  0.60906273  0.24234102  1
  O  O327  1  0.25053913  0.63012450  0.77431337  1
  O  O328  1  0.74642916  0.10670452  0.26740968  1
  O  O329  1  0.76370039  0.12671702  0.77172459  1
  O  O330  1  0.74418518  0.62422900  0.26396710  1
  O  O331  1  0.75376178  0.62173066  0.76013438  1
  O  O332  1  0.36617505  0.12015138  0.35424856  1
  O  O333  1  0.36227692  0.11977980  0.87362643  1
  O  O334  1  0.37065151  0.61369996  0.35490449  1
  O  O335  1  0.36367851  0.62636491  0.88501749  1
  O  O336  1  0.86336938  0.11922716  0.37578226  1
  O  O337  1  0.90678620  0.10222777  0.87906477  1
  O  O338  1  0.85701247  0.61508831  0.37757303  1
  O  O339  1  0.87594286  0.61962668  0.86677064  1
  O  O340  1  0.11926298  0.37108980  0.12999784  1
  O  O341  1  0.08611960  0.40412286  0.62857912  1
  O  O342  1  0.12445956  0.88547806  0.13528985  1
  O  O343  1  0.15343848  0.87652071  0.62649417  1
  O  O344  1  0.57792639  0.34757439  0.17993427  1
  O  O345  1  0.63532420  0.38630965  0.63940604  1
  O  O346  1  0.62671375  0.86146406  0.13034033  1
  O  O347  1  0.63391029  0.87439688  0.63183738  1
  O  O348  1  0.11653404  0.26272775  0.25381499  1
  O  O349  1  0.13165047  0.25642631  0.68418144  1
  O  O350  1  0.10807445  0.76471701  0.25472842  1
  O  O351  1  0.12901933  0.74618401  0.77221092  1
  O  O352  1  0.60684905  0.21194287  0.28326373  1
  O  O353  1  0.62482859  0.26522498  0.75549105  1
  O  O354  1  0.61015767  0.74110854  0.26161242  1
  O  O355  1  0.60730632  0.76009410  0.74231690  1
  O  O356  1  0.37517086  0.22718433  0.25623170  1
  O  O357  1  0.40549296  0.25519334  0.77159800  1
  O  O358  1  0.38377990  0.74103550  0.23514187  1
  O  O359  1  0.38556397  0.75097558  0.75211752  1
  O  O360  1  0.88375428  0.26316009  0.24262131  1
  O  O361  1  0.87608066  0.25322147  0.73536152  1
  O  O362  1  0.88372329  0.76664335  0.23807958  1
  O  O363  1  0.87654541  0.73586413  0.74119326  1
  O  O364  1  0.38397674  0.49436755  0.47749991  1
  O  O365  1  0.38971679  0.50690440  0.99029603  1
  O  O366  1  0.38999376  0.99680178  0.51290324  1
  O  O367  1  0.39484742  1.00135504  0.97867509  1
  O  O368  1  0.87757442  0.49581235  0.48400224  1
  O  O369  1  0.87752049  0.50040975  0.98254445  1
  O  O370  1  0.87437533  0.99726820  0.48803680  1
  O  O371  1  0.87077712  0.98197059  0.99281593  1
  O  O372  1  0.13780163  0.01432141  0.00401116  1
  O  O373  1  0.08781758  -0.03005995  0.48905566  1
  O  O374  1  0.13325544  0.51582951  0.00339062  1
  O  O375  1  0.10344510  0.49647498  0.48739808  1
  O  O376  1  0.61446091  -0.00315474  -0.01195791  1
  O  O377  1  0.61825676  -0.00790359  0.51709158  1
  O  O378  1  0.61401215  0.51381189  -0.00907829  1
  O  O379  1  0.58565839  0.47726536  0.49522686  1
  O  O380  1  0.37423636  0.36421251  0.12386254  1
  O  O381  1  0.39236307  0.35805181  0.58932967  1
  O  O382  1  0.37034771  0.86256612  0.12491879  1
  O  O383  1  0.36015653  0.86771558  0.63587462  1
  O  O384  1  0.88927790  0.39187536  0.10400788  1
  O  O385  1  0.87100791  0.37130413  0.61392031  1
  O  O386  1  0.86957160  0.87214826  0.11252508  1
  O  O387  1  0.85465071  0.85497179  0.63898349  1
  O  O388  1  0.10338164  0.14098216  0.36022934  1
  O  O389  1  0.13800933  0.11829342  0.88920625  1
  O  O390  1  0.13833736  0.60879881  0.34961822  1
  O  O391  1  0.13388662  0.63740399  0.88948066  1
  O  O392  1  0.63420077  0.13900628  0.38467017  1
  O  O393  1  0.63729869  0.13239987  0.87140448  1
  O  O394  1  0.63187725  0.63353757  0.37868836  1
  O  O395  1  0.64076045  0.62576998  0.88347594  1
