# generated using pymatgen
data_V35Zn35O128
_symmetry_space_group_name_H-M   'P 1'
_cell_length_a   16.91565949
_cell_length_b   16.87274632
_cell_length_c   16.91774504
_cell_angle_alpha   90.02373738
_cell_angle_beta   89.99289365
_cell_angle_gamma   90.20688033
_symmetry_Int_Tables_number   1
_chemical_formula_structural   V35Zn35O128
_chemical_formula_sum   'V70 Zn70 O256'
_cell_volume   4828.52312203
_cell_formula_units_Z   2
loop_
 _symmetry_equiv_pos_site_id
 _symmetry_equiv_pos_as_xyz
  1  'x, y, z'
loop_
 _atom_site_type_symbol
 _atom_site_label
 _atom_site_symmetry_multiplicity
 _atom_site_fract_x
 _atom_site_fract_y
 _atom_site_fract_z
 _atom_site_occupancy
  V  V0  1  0.00637618  0.36927058  0.37182561  1
  V  V1  1  0.37319312  0.89263928  0.50142604  1
  V  V2  1  0.75641823  0.25060989  -0.00362734  1
  V  V3  1  0.40593680  0.26494927  0.10173320  1
  V  V4  1  0.75702737  0.63203415  0.87637360  1
  V  V5  1  0.49430659  0.63799112  0.13549459  1
  V  V6  1  0.76329506  0.49962991  0.25091748  1
  V  V7  1  0.63075321  0.37522365  0.73142041  1
  V  V8  1  0.61752428  0.11744547  -0.00498776  1
  V  V9  1  0.62554032  0.25983717  0.86451897  1
  V  V10  1  0.63789098  0.63097159  0.00292645  1
  V  V11  1  -0.00050728  0.49093457  -0.00118768  1
  V  V12  1  0.00091388  0.23673390  0.25161966  1
  V  V13  1  0.10501418  0.27558121  0.86712604  1
  V  V14  1  0.50666163  0.49269218  0.51198936  1
  V  V15  1  0.62912014  0.37410982  0.25214272  1
  V  V16  1  0.12853723  0.23200771  0.37949376  1
  V  V17  1  0.38103417  0.48973855  0.36556506  1
  V  V18  1  0.49503026  0.49474778  -0.00001385  1
  V  V19  1  0.24823757  0.88084024  0.64499416  1
  V  V20  1  0.87137163  0.76003492  0.10449166  1
  V  V21  1  0.12090925  0.02820458  0.12461313  1
  V  V22  1  -0.00116327  0.23388548  0.73627832  1
  V  V23  1  0.75582970  0.86060308  0.61752004  1
  V  V24  1  0.12613887  0.88549983  0.25002361  1
  V  V25  1  0.49269721  0.90737385  0.37304278  1
  V  V26  1  0.13386252  0.75788630  0.87787887  1
  V  V27  1  0.24311377  0.47891714  0.24157056  1
  V  V28  1  0.00276797  0.61616632  0.62475858  1
  V  V29  1  0.00404965  0.75539275  0.74365944  1
  V  V30  1  0.12816994  0.62358461  0.00334388  1
  V  V31  1  0.62492019  0.11482227  0.49966931  1
  V  V32  1  0.61254558  -0.00201668  0.62740154  1
  V  V33  1  0.75194562  0.63372017  0.37915583  1
  V  V34  1  0.61469317  0.74674500  0.87297622  1
  V  V35  1  0.63029069  0.63675873  0.49607064  1
  V  V36  1  0.26009112  0.85028120  0.12183194  1
  V  V37  1  0.76043204  0.11835235  0.86203060  1
  V  V38  1  0.88055917  0.62500435  0.74556498  1
  V  V39  1  0.87664591  0.23586713  0.12865429  1
  V  V40  1  0.88408016  0.63798627  0.25161439  1
  V  V41  1  0.22828373  0.12622075  0.86021069  1
  V  V42  1  0.00265740  0.62890871  0.12639660  1
  V  V43  1  0.63210147  0.50211531  0.12434045  1
  V  V44  1  -0.01254114  0.87536560  0.88205792  1
  V  V45  1  0.01459352  0.01151193  0.50554292  1
  V  V46  1  0.75563477  0.49424796  0.73171067  1
  V  V47  1  0.25442472  0.61539051  0.87457292  1
  V  V48  1  0.76467267  0.37298100  0.12105375  1
  V  V49  1  0.26278353  0.62412309  0.36418159  1
  V  V50  1  0.86473234  -0.01334989  0.38298511  1
  V  V51  1  0.50422590  0.23750293  0.25095329  1
  V  V52  1  0.76226714  -0.00476379  0.74979804  1
  V  V53  1  0.24756636  0.24426809  0.50806782  1
  V  V54  1  0.87845393  0.49769322  0.38292152  1
  V  V55  1  0.64103907  0.24917227  0.38677146  1
  V  V56  1  0.12398768  0.74499858  0.36387868  1
  V  V57  1  0.21320909  0.26543798  0.00421337  1
  V  V58  1  0.59657252  0.00156583  0.12360630  1
  V  V59  1  0.61069335  0.86665364  0.75253755  1
  V  V60  1  0.38072370  0.61867589  0.73220948  1
  V  V61  1  0.23868568  0.48757355  0.73737359  1
  V  V62  1  0.86174026  0.35796293  0.50497916  1
  V  V63  1  0.85441114  0.11227804  0.26136920  1
  V  V64  1  0.26337655  0.74322846  0.51300272  1
  V  V65  1  0.36500154  0.37464148  0.51547770  1
  V  V66  1  0.50796597  0.63584463  0.62613104  1
  V  V67  1  0.87707047  0.48832273  0.88159709  1
  V  V68  1  0.13161694  0.61987414  0.50430419  1
  V  V69  1  0.00885667  0.49408571  0.50194806  1
  Zn  Zn70  1  -0.00492172  -0.02167088  0.02996630  1
  Zn  Zn71  1  0.50276749  0.37076316  0.37768786  1
  Zn  Zn72  1  0.90315867  0.85982026  0.49685797  1
  Zn  Zn73  1  0.60004449  0.88110349  0.24376730  1
  Zn  Zn74  1  0.49138635  0.36678138  0.87861659  1
  Zn  Zn75  1  0.37475367  0.14585441  0.75983973  1
  Zn  Zn76  1  0.18230705  0.20209003  0.18330239  1
  Zn  Zn77  1  0.22339136  0.25874913  0.71862583  1
  Zn  Zn78  1  0.19832282  0.68122956  0.18287298  1
  Zn  Zn79  1  0.18549731  0.68492465  0.69240953  1
  Zn  Zn80  1  0.68467723  0.18275598  0.18324056  1
  Zn  Zn81  1  0.48452581  0.14724240  0.63656527  1
  Zn  Zn82  1  0.69857118  0.69242182  0.18616793  1
  Zn  Zn83  1  0.68457481  0.68035620  0.69193094  1
  Zn  Zn84  1  0.30090795  0.27926967  0.29084217  1
  Zn  Zn85  1  0.30619543  0.32102198  0.84957673  1
  Zn  Zn86  1  0.31109848  0.82653249  0.31535488  1
  Zn  Zn87  1  0.32305568  0.79724905  0.81552490  1
  Zn  Zn88  1  0.82011048  0.31172982  0.31331493  1
  Zn  Zn89  1  0.81669564  0.30909627  0.80647204  1
  Zn  Zn90  1  0.80948214  0.81589479  0.31077824  1
  Zn  Zn91  1  0.81457131  0.81164518  0.80675846  1
  Zn  Zn92  1  0.19058612  0.43216090  0.42609199  1
  Zn  Zn93  1  0.18757514  0.43769368  0.93788501  1
  Zn  Zn94  1  0.15873085  0.91110234  0.46111015  1
  Zn  Zn95  1  0.18874411  0.94826609  0.95317193  1
  Zn  Zn96  1  0.68930343  0.44159230  0.44282453  1
  Zn  Zn97  1  0.69674241  0.44097075  0.93764189  1
  Zn  Zn98  1  0.68005646  0.92825437  0.43513286  1
  Zn  Zn99  1  0.68466796  0.93739093  0.93323452  1
  Zn  Zn100  1  0.28883386  0.09393086  0.08677251  1
  Zn  Zn101  1  0.29848573  0.06665405  0.57588074  1
  Zn  Zn102  1  0.31478773  0.56425151  0.06815010  1
  Zn  Zn103  1  0.31652912  0.55217427  0.56241952  1
  Zn  Zn104  1  0.82582321  0.07159383  0.04571253  1
  Zn  Zn105  1  0.79524040  0.04666985  0.55114811  1
  Zn  Zn106  1  0.82044692  0.56856698  0.06501145  1
  Zn  Zn107  1  0.81498933  0.68712255  0.56284487  1
  Zn  Zn108  1  0.43782840  0.43444713  0.18259647  1
  Zn  Zn109  1  0.42472939  0.32933340  0.71452630  1
  Zn  Zn110  1  0.40858660  0.95588561  0.06356754  1
  Zn  Zn111  1  0.40696668  0.97131776  0.66681995  1
  Zn  Zn112  1  0.96232544  0.42651602  0.17928968  1
  Zn  Zn113  1  0.92581496  0.41164711  0.69789555  1
  Zn  Zn114  1  0.94496368  0.92844964  0.20522533  1
  Zn  Zn115  1  0.94013108  0.93626193  0.67965526  1
  Zn  Zn116  1  0.05279610  0.05282087  0.32072147  1
  Zn  Zn117  1  0.03270181  0.08066475  0.85543789  1
  Zn  Zn118  1  0.06741278  0.56091244  0.31207510  1
  Zn  Zn119  1  0.06530079  0.55922380  0.81761310  1
  Zn  Zn120  1  0.56740554  0.06472085  0.31041250  1
  Zn  Zn121  1  0.58094098  0.08160387  0.79207795  1
  Zn  Zn122  1  0.56730137  0.56178760  0.31510998  1
  Zn  Zn123  1  0.56605098  0.54743988  0.80436325  1
  Zn  Zn124  1  0.44819773  0.19333750  0.44886427  1
  Zn  Zn125  1  0.40372239  0.13524873  0.96200104  1
  Zn  Zn126  1  0.43799648  0.67986414  0.44136398  1
  Zn  Zn127  1  0.46046655  0.63938834  0.91824954  1
  Zn  Zn128  1  0.93170893  0.17722157  0.43739873  1
  Zn  Zn129  1  0.93149339  0.20189917  0.92882889  1
  Zn  Zn130  1  0.94369270  0.68488877  0.43446530  1
  Zn  Zn131  1  0.94408392  0.68665873  0.93403444  1
  Zn  Zn132  1  0.06933333  0.32072979  0.07908545  1
  Zn  Zn133  1  0.04853242  0.29431910  0.55297288  1
  Zn  Zn134  1  0.06728290  0.81031593  0.06575327  1
  Zn  Zn135  1  0.06884591  0.81056733  0.56448787  1
  Zn  Zn136  1  0.57533762  0.31394021  0.05757963  1
  Zn  Zn137  1  0.55752765  0.30517211  0.56902246  1
  Zn  Zn138  1  0.55967315  0.81273842  0.05719590  1
  Zn  Zn139  1  0.55623772  0.82015311  0.56037868  1
  O  O140  1  0.11150363  0.12818403  0.13201453  1
  O  O141  1  0.11902069  0.06210327  0.67395385  1
  O  O142  1  0.11988221  0.62977278  0.11115840  1
  O  O143  1  0.11893595  0.62857876  0.61150455  1
  O  O144  1  0.63585124  0.11185526  0.10485373  1
  O  O145  1  0.61436709  0.09893193  0.63226888  1
  O  O146  1  0.63713532  0.61642416  0.12047685  1
  O  O147  1  0.61662412  0.62356497  0.61351906  1
  O  O148  1  0.38062869  0.38696980  0.38458043  1
  O  O149  1  0.39774913  0.37536293  0.82124591  1
  O  O150  1  0.37862124  0.87868085  0.38993541  1
  O  O151  1  0.36853410  0.86282509  0.90966373  1
  O  O152  1  0.88094854  0.38135180  0.38540065  1
  O  O153  1  0.86639092  0.39033836  0.88164066  1
  O  O154  1  0.87582239  0.88226783  0.37321599  1
  O  O155  1  0.88774897  0.87059752  0.87320983  1
  O  O156  1  0.28399690  0.06134756  0.33415862  1
  O  O157  1  0.22110186  0.02637013  0.87979011  1
  O  O158  1  0.26334829  0.50481129  0.36926776  1
  O  O159  1  0.24370919  0.51263852  0.86796638  1
  O  O160  1  0.76188703  -0.00927771  0.38439923  1
  O  O161  1  0.75044308  0.00596890  0.86423937  1
  O  O162  1  0.76112988  0.50596190  0.36846977  1
  O  O163  1  0.76473975  0.51236265  0.87430163  1
  O  O164  1  0.25886213  0.50237041  0.14410766  1
  O  O165  1  0.24920025  0.50273294  0.63689223  1
  O  O166  1  0.22319090  1.01421679  0.13610062  1
  O  O167  1  0.24372283  0.98079038  0.62885520  1
  O  O168  1  0.75397786  0.49359225  0.13121034  1
  O  O169  1  0.76110830  0.50278359  0.63695287  1
  O  O170  1  0.77225384  0.96517521  0.07566379  1
  O  O171  1  0.73739452  0.98507248  0.63564038  1
  O  O172  1  -0.02551389  0.34973549  0.26935311  1
  O  O173  1  0.05236779  0.39422083  0.70075741  1
  O  O174  1  0.02817604  0.86404721  0.25767451  1
  O  O175  1  -0.00462453  0.85739501  0.74853273  1
  O  O176  1  0.52481357  0.38450870  0.24988883  1
  O  O177  1  0.53291487  0.38842596  0.75543656  1
  O  O178  1  0.48759655  0.88686564  0.27370724  1
  O  O179  1  0.51506322  0.86711835  0.75267883  1
  O  O180  1  0.50056753  0.13874413  0.24986888  1
  O  O181  1  0.49122876  0.12874913  0.75195872  1
  O  O182  1  0.51277214  0.61350187  0.23257183  1
  O  O183  1  0.49569231  0.60838385  0.73286153  1
  O  O184  1  0.98485307  0.13446797  0.26142336  1
  O  O185  1  0.98404368  0.13793615  0.76197682  1
  O  O186  1  0.99271838  0.61146183  0.23958499  1
  O  O187  1  0.99673609  0.62435127  0.74320832  1
  O  O188  1  0.40915619  0.24853071  0.00274814  1
  O  O189  1  0.36372652  0.26637345  0.49503613  1
  O  O190  1  0.42513782  0.82364687  -0.05304420  1
  O  O191  1  0.36459464  0.74701858  0.49754153  1
  O  O192  1  0.86509348  0.24029645  0.01298851  1
  O  O193  1  0.87477365  0.25833503  0.49190765  1
  O  O194  1  0.88071599  0.74970336  0.00448293  1
  O  O195  1  0.88179601  0.74889106  0.49862628  1
  O  O196  1  0.13066899  0.24943500  0.48731926  1
  O  O197  1  0.10713371  0.26675879  0.98381764  1
  O  O198  1  0.14325419  0.73804687  0.48917183  1
  O  O199  1  0.12001261  0.73463378  0.98790119  1
  O  O200  1  0.62876769  0.25593412  0.48791450  1
  O  O201  1  0.64138904  0.24038540  0.99350790  1
  O  O202  1  0.61452499  0.73480953  0.49726344  1
  O  O203  1  0.62537888  0.74180888  0.98689405  1
  O  O204  1  0.51056359  0.25572244  0.13643525  1
  O  O205  1  0.48463845  0.26216023  0.64109735  1
  O  O206  1  0.51684090  0.73680279  0.12970475  1
  O  O207  1  0.50316915  0.73460649  0.62339933  1
  O  O208  1  0.98779586  0.25002591  0.14316692  1
  O  O209  1  1.00665441  0.23373826  0.63553112  1
  O  O210  1  0.99355150  0.73428042  0.11908311  1
  O  O211  1  1.01012066  0.73715858  0.63872390  1
  O  O212  1  0.00723082  0.24959758  0.37348477  1
  O  O213  1  0.00033467  0.25975406  0.86282371  1
  O  O214  1  0.02595119  0.73856094  0.37737193  1
  O  O215  1  0.01041173  0.75875501  0.86595085  1
  O  O216  1  0.51937993  0.25284663  0.36551081  1
  O  O217  1  0.52698613  0.25131551  0.87292979  1
  O  O218  1  0.46638659  0.73813000  0.33827248  1
  O  O219  1  0.51623900  0.73072745  0.87305027  1
  O  O220  1  0.26135989  0.14472994  0.50504522  1
  O  O221  1  0.24594418  0.16808576  0.99834679  1
  O  O222  1  0.24910681  0.62682516  0.49615285  1
  O  O223  1  0.23365602  0.60998343  0.99515935  1
  O  O224  1  0.72229574  0.13130872  0.52217167  1
  O  O225  1  0.74661244  0.12946637  0.98236005  1
  O  O226  1  0.73685886  0.62460200  0.49757922  1
  O  O227  1  0.74572483  0.62128192  0.99162390  1
  O  O228  1  0.26195024  0.35487856  -0.02998706  1
  O  O229  1  0.26162661  0.37692015  0.49734534  1
  O  O230  1  0.23904014  0.87724750  0.02443093  1
  O  O231  1  0.25681098  0.85654966  0.50253954  1
  O  O232  1  0.74982760  0.36427376  0.01079413  1
  O  O233  1  0.76327663  0.37718786  0.49498220  1
  O  O234  1  0.76832711  0.91208487  0.01906865  1
  O  O235  1  0.73499172  0.87010897  0.51942919  1
  O  O236  1  0.14539434  0.49976703  0.25990965  1
  O  O237  1  0.13962667  0.51422545  0.74828597  1
  O  O238  1  0.12497738  0.99019291  0.25253596  1
  O  O239  1  0.11464500  1.01504682  0.72836993  1
  O  O240  1  0.64464705  0.49527103  0.24416191  1
  O  O241  1  0.64765367  0.49150632  0.75112098  1
  O  O242  1  0.61847458  1.00416037  0.22737227  1
  O  O243  1  0.62924242  0.98260117  0.74664575  1
  O  O244  1  0.34873340  0.07532766  0.36836196  1
  O  O245  1  0.41037068  -0.02365725  0.81103102  1
  O  O246  1  0.37295548  0.49108620  0.26214090  1
  O  O247  1  0.35549978  0.52232941  0.75764140  1
  O  O248  1  0.87725274  0.00591326  0.26319971  1
  O  O249  1  0.86056048  -0.00401477  0.74174530  1
  O  O250  1  0.87083968  0.49872480  0.25640445  1
  O  O251  1  0.87277116  0.50083912  0.76016082  1
  O  O252  1  0.11013413  0.36675694  0.37462982  1
  O  O253  1  0.11461547  0.37578143  0.86983001  1
  O  O254  1  0.14769651  0.85330751  0.36217359  1
  O  O255  1  0.13050999  0.85815856  0.88255051  1
  O  O256  1  0.63054644  0.36658718  0.36766084  1
  O  O257  1  0.63528510  0.36508292  0.87816512  1
  O  O258  1  0.59526931  0.87971568  0.38137879  1
  O  O259  1  0.62982058  0.85794776  0.86912268  1
  O  O260  1  0.34165593  0.18912326  0.13431809  1
  O  O261  1  0.38089030  0.08297759  0.65432812  1
  O  O262  1  0.39561972  0.62800814  0.12030061  1
  O  O263  1  0.38927489  0.62183612  0.62604110  1
  O  O264  1  0.86796006  0.12889652  0.13821425  1
  O  O265  1  0.86614576  0.13092046  0.62265022  1
  O  O266  1  0.88187044  0.63832365  0.13380890  1
  O  O267  1  0.88644582  0.62687604  0.63737245  1
  O  O268  1  0.19668829  0.28556821  0.10374652  1
  O  O269  1  0.22935884  0.26239470  0.60392730  1
  O  O270  1  0.26419383  0.74780644  0.11982440  1
  O  O271  1  0.25563056  0.74128917  0.61455053  1
  O  O272  1  0.75645013  0.25361387  0.11822987  1
  O  O273  1  0.82968397  0.18818615  0.65004830  1
  O  O274  1  0.77175264  0.74753156  0.11918480  1
  O  O275  1  0.75072323  0.75454988  0.63380252  1
  O  O276  1  0.23163808  0.25710975  0.38396354  1
  O  O277  1  0.21697179  0.25136728  0.87349754  1
  O  O278  1  0.25494750  0.73180974  0.38026322  1
  O  O279  1  0.23668744  0.73766460  0.87149600  1
  O  O280  1  0.73880447  0.24933103  0.36755496  1
  O  O281  1  0.75114657  0.24349149  0.87866322  1
  O  O282  1  0.76035311  0.73193751  0.37710580  1
  O  O283  1  0.74851808  0.73552131  0.86684580  1
  O  O284  1  -0.02233960  0.10128011  -0.03429127  1
  O  O285  1  -0.00357726  0.11306131  0.50181182  1
  O  O286  1  0.01133401  0.61933256  0.00326305  1
  O  O287  1  0.01202784  0.61462391  0.50411752  1
  O  O288  1  0.52073275  0.12839668  -0.01462419  1
  O  O289  1  0.52002178  0.14352326  0.52227816  1
  O  O290  1  0.52045334  0.61540553  0.01801155  1
  O  O291  1  0.50860749  0.61737272  0.50717232  1
  O  O292  1  0.49414837  0.38325667  0.49973082  1
  O  O293  1  0.51673407  0.39172534  0.99200072  1
  O  O294  1  0.47990719  0.87377477  0.49410573  1
  O  O295  1  0.47230256  0.87317950  0.99738523  1
  O  O296  1  0.99431839  0.37869547  0.48994827  1
  O  O297  1  0.99757436  0.39302556  1.00657118  1
  O  O298  1  1.01613404  0.88465892  0.49902575  1
  O  O299  1  1.00427672  0.87097343  0.98659691  1
  O  O300  1  0.49021902  0.50155780  0.38057738  1
  O  O301  1  0.50389311  0.52396499  0.89678056  1
  O  O302  1  0.49594465  1.00816230  0.37985811  1
  O  O303  1  0.47018933  0.99152249  0.85160461  1
  O  O304  1  0.99696119  0.49037115  0.37846830  1
  O  O305  1  0.98668672  0.50410224  0.88333681  1
  O  O306  1  0.98080298  1.00206057  0.39150802  1
  O  O307  1  1.01507729  0.96939043  0.85720798  1
  O  O308  1  0.01548985  -0.00605867  0.14164515  1
  O  O309  1  -0.00461018  -0.00231944  0.60670653  1
  O  O310  1  -0.01858511  0.51778066  0.10586778  1
  O  O311  1  -0.00533594  0.51028212  0.61264478  1
  O  O312  1  0.49942104  0.01176929  0.11704403  1
  O  O313  1  0.51578584  -0.02582450  0.62962828  1
  O  O314  1  0.51860092  0.50007771  0.11706648  1
  O  O315  1  0.50105787  0.50659531  0.60907214  1
  O  O316  1  0.25363223  0.37988134  0.25559215  1
  O  O317  1  0.23961951  0.38726256  0.75368557  1
  O  O318  1  0.24083384  0.86351906  0.23768759  1
  O  O319  1  0.27220107  0.86800821  0.74292904  1
  O  O320  1  0.74838646  0.38089143  0.24366686  1
  O  O321  1  0.75084579  0.38738009  0.75023310  1
  O  O322  1  0.71643304  0.84219528  0.24835048  1
  O  O323  1  0.74562323  0.88087747  0.74432017  1
  O  O324  1  0.27463801  0.17802501  0.23999997  1
  O  O325  1  0.23088031  0.13621303  0.75873530  1
  O  O326  1  0.25757599  0.61704839  0.26326220  1
  O  O327  1  0.25727302  0.62557572  0.76173997  1
  O  O328  1  0.75555296  0.11780730  0.24755467  1
  O  O329  1  0.73924545  0.10404136  0.75745575  1
  O  O330  1  0.76369347  0.61639714  0.25751195  1
  O  O331  1  0.76059000  0.61339997  0.75501975  1
  O  O332  1  0.37294873  0.15358052  0.36794341  1
  O  O333  1  0.33849851  0.13984242  0.86996285  1
  O  O334  1  0.36652601  0.60768361  0.38361409  1
  O  O335  1  0.35173315  0.63065811  0.89801233  1
  O  O336  1  0.86318233  0.11501943  0.36628369  1
  O  O337  1  0.85722982  0.13716974  0.85997481  1
  O  O338  1  0.87475793  0.61432934  0.36825445  1
  O  O339  1  0.87370959  0.61980332  0.86362964  1
  O  O340  1  0.07058446  0.39894128  0.15636297  1
  O  O341  1  0.09201427  0.38683041  0.63720539  1
  O  O342  1  0.13525883  0.86556327  0.14146017  1
  O  O343  1  0.15056778  0.85311585  0.63231076  1
  O  O344  1  0.64230598  0.38370525  0.13154881  1
  O  O345  1  0.63268971  0.36786734  0.63258369  1
  O  O346  1  0.61090793  0.89718182  0.11461136  1
  O  O347  1  0.63176506  0.86959975  0.63882543  1
  O  O348  1  0.10508766  0.24695832  0.26253668  1
  O  O349  1  0.10640336  0.25844545  0.75651721  1
  O  O350  1  0.13434334  0.73403568  0.26349135  1
  O  O351  1  0.11202206  0.73884852  0.76556479  1
  O  O352  1  0.62299281  0.25524637  0.25428803  1
  O  O353  1  0.64305905  0.26726991  0.76146758  1
  O  O354  1  0.65897174  0.77550298  0.25595106  1
  O  O355  1  0.62901658  0.75388049  0.76293196  1
  O  O356  1  0.41096632  0.27490573  0.25643486  1
  O  O357  1  0.33734151  0.25515930  0.74471503  1
  O  O358  1  0.40956693  0.74129349  0.28766879  1
  O  O359  1  0.38320955  0.71582653  0.76633575  1
  O  O360  1  0.87446987  0.23108576  0.24815454  1
  O  O361  1  0.91303990  0.30119472  0.74603658  1
  O  O362  1  0.87947660  0.73823687  0.25512159  1
  O  O363  1  0.89323606  0.73640494  0.75736324  1
  O  O364  1  0.38653501  0.49120574  0.49272737  1
  O  O365  1  0.39712718  0.50125405  1.01213888  1
  O  O366  1  0.36144143  0.99092382  0.50172839  1
  O  O367  1  0.36216011  1.04430346  1.01661781  1
  O  O368  1  0.89062410  0.49894041  0.48606809  1
  O  O369  1  0.88297116  0.50952296  0.98751981  1
  O  O370  1  0.87532305  0.99008016  0.49269461  1
  O  O371  1  0.91408459  1.03972972  0.97588155  1
  O  O372  1  0.11285272  0.00602681  0.02151542  1
  O  O373  1  0.11758813  0.00875747  0.49123425  1
  O  O374  1  0.10954921  0.50973295  -0.00804901  1
  O  O375  1  0.11781498  0.50529300  0.48919538  1
  O  O376  1  0.62375964  0.01041611  -0.00157537  1
  O  O377  1  0.62537120  0.00666595  0.51239284  1
  O  O378  1  0.63143047  0.50862332  0.01077232  1
  O  O379  1  0.61027452  0.50661402  0.49350754  1
  O  O380  1  0.37974918  0.36196302  0.11776586  1
  O  O381  1  0.37474038  0.38161894  0.61284917  1
  O  O382  1  0.35655540  0.88207028  0.13145877  1
  O  O383  1  0.36258908  0.87692017  0.61134262  1
  O  O384  1  0.86780245  0.36015926  0.13543110  1
  O  O385  1  0.88138028  0.37815310  0.60133577  1
  O  O386  1  0.89167699  0.85616362  0.13391561  1
  O  O387  1  0.85812382  0.87496717  0.61881795  1
  O  O388  1  0.12442038  0.13362365  0.37034347  1
  O  O389  1  0.12027689  0.14878934  0.87841877  1
  O  O390  1  0.14228259  0.62631554  0.38364564  1
  O  O391  1  0.13230916  0.63054068  0.88586390  1
  O  O392  1  0.62290237  0.13350211  0.39166493  1
  O  O393  1  0.63926251  0.13651255  0.87807892  1
  O  O394  1  0.63694935  0.61912617  0.38626581  1
  O  O395  1  0.63678306  0.63097685  0.88059952  1
