# generated using pymatgen
data_V35Zn35O128
_symmetry_space_group_name_H-M   'P 1'
_cell_length_a   16.87529742
_cell_length_b   16.97311119
_cell_length_c   16.96704172
_cell_angle_alpha   90.25805163
_cell_angle_beta   90.10957505
_cell_angle_gamma   89.94139939
_symmetry_Int_Tables_number   1
_chemical_formula_structural   V35Zn35O128
_chemical_formula_sum   'V70 Zn70 O256'
_cell_volume   4859.74629697
_cell_formula_units_Z   2
loop_
 _symmetry_equiv_pos_site_id
 _symmetry_equiv_pos_as_xyz
  1  'x, y, z'
loop_
 _atom_site_type_symbol
 _atom_site_label
 _atom_site_symmetry_multiplicity
 _atom_site_fract_x
 _atom_site_fract_y
 _atom_site_fract_z
 _atom_site_occupancy
  V  V0  1  0.86409782  0.00291945  0.35236001  1
  V  V1  1  0.27326298  0.77877619  0.49328473  1
  V  V2  1  0.63199089  0.89300048  0.24134693  1
  V  V3  1  0.50837972  0.12183582  0.63064813  1
  V  V4  1  0.50913240  0.25189347  0.25159448  1
  V  V5  1  0.37347656  0.37130911  0.49357899  1
  V  V6  1  0.50564121  0.00357825  0.49169514  1
  V  V7  1  0.62244669  0.86852667  0.75615557  1
  V  V8  1  0.25097829  -0.00297389  0.73560192  1
  V  V9  1  0.73136156  0.64965791  0.86977639  1
  V  V10  1  0.11437183  0.87350878  0.73130118  1
  V  V11  1  0.49371821  0.00723159  -0.00141811  1
  V  V12  1  0.49754018  0.86734077  0.87924123  1
  V  V13  1  0.36650259  0.62463229  0.75376143  1
  V  V14  1  0.75550934  0.36560162  0.62046954  1
  V  V15  1  0.62828817  0.39277369  0.24569651  1
  V  V16  1  0.62643222  0.50269312  0.62516561  1
  V  V17  1  0.62042362  0.37267958  0.75071594  1
  V  V18  1  0.61637558  0.25117148  0.88744586  1
  V  V19  1  0.67934480  0.08033681  0.04402504  1
  V  V20  1  0.15263146  0.86342287  0.22928292  1
  V  V21  1  0.49166066  0.63031233  0.62210354  1
  V  V22  1  0.75424564  0.26013651  0.00572912  1
  V  V23  1  0.38380611  0.25101060  0.62568103  1
  V  V24  1  0.76009308  0.14463337  0.85390664  1
  V  V25  1  0.50782954  0.36943468  0.37555717  1
  V  V26  1  0.12308523  0.24525472  0.88929229  1
  V  V27  1  0.49870197  0.72306398  0.20295730  1
  V  V28  1  0.36610991  0.37865039  0.00283045  1
  V  V29  1  -0.01903898  0.13981472  0.64936826  1
  V  V30  1  0.10129449  0.13570919  0.50351317  1
  V  V31  1  0.74546795  -0.00080933  0.74652033  1
  V  V32  1  0.85528447  0.50606079  0.37453635  1
  V  V33  1  0.75635305  0.39662426  0.12741112  1
  V  V34  1  0.11403993  0.25378830  0.37451168  1
  V  V35  1  0.49563159  0.49738024  0.49467354  1
  V  V36  1  0.49509514  0.74786444  0.75194595  1
  V  V37  1  0.25475366  0.49855233  0.76088600  1
  V  V38  1  0.62205785  0.62654409  0.48735092  1
  V  V39  1  0.73955185  0.74467113  0.49542875  1
  V  V40  1  0.88853612  0.62759898  0.75170829  1
  V  V41  1  -0.00304556  0.51146102  0.49965509  1
  V  V42  1  0.88230138  0.00954356  0.87319327  1
  V  V43  1  0.36545325  0.12987387  0.25350176  1
  V  V44  1  0.85669181  0.87106155  -0.00274563  1
  V  V45  1  0.87820437  0.36311637  0.49810396  1
  V  V46  1  0.00376568  0.86846473  0.87311523  1
  V  V47  1  0.51055507  0.86435224  0.37557445  1
  V  V48  1  0.37700191  -0.00279539  0.86964892  1
  V  V49  1  0.37777536  0.13260964  0.74640516  1
  V  V50  1  0.63441260  0.14035657  0.49616363  1
  V  V51  1  0.74943641  0.13621973  0.35490249  1
  V  V52  1  0.88819961  0.74602700  0.62400790  1
  V  V53  1  0.11444815  0.50805696  0.63021885  1
  V  V54  1  0.75063763  0.50417401  0.75961637  1
  V  V55  1  0.25191159  0.36749290  0.62334737  1
  V  V56  1  0.73884236  0.86918677  0.62868332  1
  V  V57  1  0.11719820  0.00770950  0.61417700  1
  V  V58  1  0.34866842  0.57951526  0.25974850  1
  V  V59  1  0.50912800  0.51079723  0.01668603  1
  V  V60  1  0.50339348  0.12840310  0.12110755  1
  V  V61  1  0.36624402  0.25365158  0.11920777  1
  V  V62  1  0.24801809  0.12904888  0.88183195  1
  V  V63  1  0.88104381  0.23046557  0.13217562  1
  V  V64  1  0.87161881  0.88474501  0.50182216  1
  V  V65  1  -0.01000099  0.37712707  0.88471598  1
  V  V66  1  0.12829314  0.40710182  0.21454865  1
  V  V67  1  0.25461071  0.13703335  0.40616725  1
  V  V68  1  0.11748370  0.36091384  0.74712484  1
  V  V69  1  0.49528487  0.38728532  0.87658974  1
  Zn  Zn70  1  0.13496183  0.74334266  0.38405657  1
  Zn  Zn71  1  0.06758901  0.70939642  0.79293054  1
  Zn  Zn72  1  -0.00543003  0.26766952  0.25548431  1
  Zn  Zn73  1  0.37102737  -0.00729488  0.37834647  1
  Zn  Zn74  1  0.00718121  0.74669035  0.26479512  1
  Zn  Zn75  1  0.21398197  0.65054080  0.92164906  1
  Zn  Zn76  1  0.19548047  0.21806264  0.20418865  1
  Zn  Zn77  1  0.19181929  0.18514249  0.68477266  1
  Zn  Zn78  1  0.21800392  0.70591163  0.21748891  1
  Zn  Zn79  1  0.15448274  0.71078297  0.61273933  1
  Zn  Zn80  1  0.68810953  0.20163193  0.18813162  1
  Zn  Zn81  1  0.68755146  0.19366672  0.68971481  1
  Zn  Zn82  1  0.69429162  0.73460503  0.21343141  1
  Zn  Zn83  1  0.68121842  0.68713768  0.68544056  1
  Zn  Zn84  1  0.30350012  0.31966392  0.31106953  1
  Zn  Zn85  1  0.31166987  0.31160189  0.81404733  1
  Zn  Zn86  1  0.33088381  0.80665779  0.30888647  1
  Zn  Zn87  1  0.31246085  0.81143592  0.68293161  1
  Zn  Zn88  1  0.81222102  0.31886165  0.31208591  1
  Zn  Zn89  1  0.80316170  0.31754015  0.80996707  1
  Zn  Zn90  1  0.81542027  0.80941647  0.32142208  1
  Zn  Zn91  1  0.82164139  0.81150136  0.80924231  1
  Zn  Zn92  1  0.17663469  0.42970587  0.44960638  1
  Zn  Zn93  1  0.18212662  0.43159000  0.93873238  1
  Zn  Zn94  1  0.19141197  0.94245544  0.40486249  1
  Zn  Zn95  1  0.19797965  0.91192971  0.91070850  1
  Zn  Zn96  1  0.68549959  0.43439455  0.43765095  1
  Zn  Zn97  1  0.68186123  0.43957791  0.94374490  1
  Zn  Zn98  1  0.68594124  0.94776931  0.43798683  1
  Zn  Zn99  1  0.68678301  0.94048070  0.92638262  1
  Zn  Zn100  1  0.27778479  0.01642247  0.03497026  1
  Zn  Zn101  1  0.32002186  -0.04294115  0.56007220  1
  Zn  Zn102  1  0.32691404  0.57157599  0.06084588  1
  Zn  Zn103  1  0.31027645  0.54963014  0.57097370  1
  Zn  Zn104  1  0.85838923  0.02504596  0.09123870  1
  Zn  Zn105  1  0.80686317  0.06767666  0.57239424  1
  Zn  Zn106  1  0.70037265  0.58303550  0.05647331  1
  Zn  Zn107  1  0.81591693  0.56516613  0.56034190  1
  Zn  Zn108  1  0.43325129  0.43788629  0.18909760  1
  Zn  Zn109  1  0.43855428  0.43888493  0.68654904  1
  Zn  Zn110  1  0.45095542  0.95317384  0.19956809  1
  Zn  Zn111  1  0.44866698  0.94530528  0.69001827  1
  Zn  Zn112  1  0.93951943  0.44219225  0.19309526  1
  Zn  Zn113  1  0.93353540  0.43789509  0.69330684  1
  Zn  Zn114  1  0.94026705  0.90100415  0.19221765  1
  Zn  Zn115  1  0.93153195  0.94678924  0.67875908  1
  Zn  Zn116  1  0.01671832  -0.09094456  0.36297991  1
  Zn  Zn117  1  0.06478869  0.06219846  0.80812226  1
  Zn  Zn118  1  0.07142390  0.56105519  0.32170021  1
  Zn  Zn119  1  0.07145512  0.54967761  0.82458040  1
  Zn  Zn120  1  0.57315246  0.06660093  0.31132996  1
  Zn  Zn121  1  0.56924706  0.06452598  0.81388076  1
  Zn  Zn122  1  0.53806699  0.57044435  0.30815336  1
  Zn  Zn123  1  0.55913933  0.56474555  0.81466217  1
  Zn  Zn124  1  0.44163228  0.18986835  0.44197563  1
  Zn  Zn125  1  0.43328918  0.18860031  0.93762352  1
  Zn  Zn126  1  0.43076159  0.68206004  0.42130648  1
  Zn  Zn127  1  0.40755526  0.68163561  0.94781742  1
  Zn  Zn128  1  0.92746007  0.18067091  0.42983442  1
  Zn  Zn129  1  0.93623197  0.19905630  0.93647551  1
  Zn  Zn130  1  0.94586932  0.68318506  0.41037672  1
  Zn  Zn131  1  0.87436814  0.66365781  0.96678183  1
  Zn  Zn132  1  0.05868396  0.31653374  0.06387070  1
  Zn  Zn133  1  0.05188356  0.31182603  0.56637557  1
  Zn  Zn134  1  0.06833143  0.82384509  0.06125534  1
  Zn  Zn135  1  0.08127827  0.83782007  0.52107371  1
  Zn  Zn136  1  0.56069797  0.32102328  0.06649107  1
  Zn  Zn137  1  0.56261660  0.31164485  0.56570430  1
  Zn  Zn138  1  0.55721668  0.82948347  0.06813806  1
  Zn  Zn139  1  0.55481576  0.81423247  0.56333083  1
  O  O140  1  0.13795363  0.12451793  0.11814158  1
  O  O141  1  0.11742161  0.12726826  0.61654901  1
  O  O142  1  -0.04812660  0.69938987  0.12271926  1
  O  O143  1  0.12632852  0.60560422  0.63774570  1
  O  O144  1  0.62164811  0.13516408  0.11396881  1
  O  O145  1  0.61142406  0.13832934  0.62097875  1
  O  O146  1  0.62265111  0.68089038  0.06157347  1
  O  O147  1  0.61145895  0.61654281  0.61972854  1
  O  O148  1  0.38042519  0.36606290  0.38778298  1
  O  O149  1  0.38946783  0.36375890  0.88666458  1
  O  O150  1  0.40147302  0.88267896  0.36371874  1
  O  O151  1  0.38662884  0.89592570  0.86114273  1
  O  O152  1  0.86636747  0.38409337  0.39400959  1
  O  O153  1  0.89285188  0.36166667  0.85803864  1
  O  O154  1  0.84336216  0.89837558  0.39801955  1
  O  O155  1  0.88460231  0.88193722  0.87995113  1
  O  O156  1  0.26158760  0.03094546  0.39212426  1
  O  O157  1  0.25847721  0.01033477  0.85677634  1
  O  O158  1  0.22884397  0.52299785  0.40022882  1
  O  O159  1  0.24136866  0.49583777  0.85952217  1
  O  O160  1  0.75759432  0.02199638  0.38602830  1
  O  O161  1  0.75724614  0.01771375  0.86299715  1
  O  O162  1  0.75434583  0.49731700  0.37453153  1
  O  O163  1  0.74295440  0.49368735  0.85998936  1
  O  O164  1  0.20390230  0.53032890  0.07368132  1
  O  O165  1  0.23672452  0.48567750  0.63402471  1
  O  O166  1  0.29948139  0.96950869  0.14253394  1
  O  O167  1  0.23572857  1.01035234  0.62838323  1
  O  O168  1  0.74708561  0.49440956  0.11813885  1
  O  O169  1  0.73658890  0.49950271  0.63203684  1
  O  O170  1  0.74121728  1.02490921  0.09643578  1
  O  O171  1  0.75129849  0.98418965  0.64107208  1
  O  O172  1  0.02735417  0.37771965  0.23624313  1
  O  O173  1  0.01563888  0.37371417  0.75236939  1
  O  O174  1  0.02884871  0.87794930  0.25351002  1
  O  O175  1  0.00982330  0.88543839  0.74301081  1
  O  O176  1  0.50737386  0.37192618  0.25687221  1
  O  O177  1  0.50638975  0.38444669  0.76531418  1
  O  O178  1  0.51731210  0.89132173  0.26458065  1
  O  O179  1  0.50434713  0.86798834  0.75811998  1
  O  O180  1  0.50642785  0.13707864  0.24173640  1
  O  O181  1  0.49605698  0.11836444  0.73877177  1
  O  O182  1  0.52454569  0.62486568  0.20976822  1
  O  O183  1  0.49394795  0.62905761  0.74111081  1
  O  O184  1  1.10291925  0.06846368  0.14957728  1
  O  O185  1  0.99754851  0.13100853  0.74819280  1
  O  O186  1  0.95313332  0.65597699  0.18536342  1
  O  O187  1  0.99007492  0.62121527  0.75801525  1
  O  O188  1  0.38334675  0.25971150  0.01267623  1
  O  O189  1  0.38300845  0.26223065  0.51329848  1
  O  O190  1  0.37035336  0.79312088  -0.01331143  1
  O  O191  1  0.37178244  0.75154534  0.48960575  1
  O  O192  1  0.86304319  0.24473943  0.01306723  1
  O  O193  1  0.87870911  0.26415913  0.49591923  1
  O  O194  1  0.87859424  0.77270503  -0.00059315  1
  O  O195  1  0.85317337  0.75837001  0.51509793  1
  O  O196  1  0.11440863  0.24178275  0.49608706  1
  O  O197  1  0.12849385  0.25266650  0.98750387  1
  O  O198  1  0.14985193  0.74622621  0.50354681  1
  O  O199  1  0.13493277  0.71688173  1.04211300  1
  O  O200  1  0.61873816  0.24016160  0.49885756  1
  O  O201  1  0.62887750  0.25646214  0.99250233  1
  O  O202  1  0.63027983  0.74020395  0.51120829  1
  O  O203  1  0.63522168  0.74235712  1.01899732  1
  O  O204  1  0.49822113  0.24571023  0.13177805  1
  O  O205  1  0.49231057  0.24383794  0.62838414  1
  O  O206  1  0.48532903  0.75169178  0.10532992  1
  O  O207  1  0.49892159  0.73892016  0.63354326  1
  O  O208  1  0.98270672  0.25138172  0.12112888  1
  O  O209  1  0.99665747  0.23796070  0.63102322  1
  O  O210  1  0.99048430  0.77473792  0.13953899  1
  O  O211  1  0.98437532  0.75137237  0.61218270  1
  O  O212  1  0.00765135  0.24052005  0.37369247  1
  O  O213  1  0.01708137  0.25178470  0.87538917  1
  O  O214  1  0.04977560  0.66491562  0.35658546  1
  O  O215  1  -0.00593127  0.77043512  0.85759751  1
  O  O216  1  0.49603305  0.26017420  0.36450889  1
  O  O217  1  0.51227543  0.25890521  0.88263419  1
  O  O218  1  0.50846480  0.76686539  0.38942554  1
  O  O219  1  0.48320840  0.76159517  0.86720368  1
  O  O220  1  0.25752312  0.14749281  0.50188156  1
  O  O221  1  0.25779183  0.11884219  0.97932475  1
  O  O222  1  0.26994833  0.61960415  0.48682214  1
  O  O223  1  0.30173030  0.64752727  0.98395354  1
  O  O224  1  0.73451090  0.13000187  0.51384198  1
  O  O225  1  0.74049508  0.14065743  0.98323651  1
  O  O226  1  0.73637879  0.63666455  0.51103468  1
  O  O227  1  0.76439943  0.62226295  0.96799153  1
  O  O228  1  0.26745863  0.37674927  -0.00844931  1
  O  O229  1  0.26116527  0.38106360  0.51302500  1
  O  O230  1  0.29577549  0.81257058  -0.00932235  1
  O  O231  1  0.26305231  0.88308730  0.48939028  1
  O  O232  1  0.74100544  0.37077992  0.01780424  1
  O  O233  1  0.75536544  0.38141956  0.51572430  1
  O  O234  1  0.75667829  0.87537380  -0.01009187  1
  O  O235  1  0.74187984  0.86604254  0.51430174  1
  O  O236  1  0.12370764  0.50643015  0.23994357  1
  O  O237  1  0.13400704  0.48459874  0.74345574  1
  O  O238  1  0.17492569  0.94381627  0.28420593  1
  O  O239  1  0.13256315  0.99986959  0.73455332  1
  O  O240  1  0.61515165  0.48969622  0.25467525  1
  O  O241  1  0.62800877  0.49286527  0.74332654  1
  O  O242  1  0.64066408  0.99237760  0.25475618  1
  O  O243  1  0.63451303  0.98169182  0.76220506  1
  O  O244  1  0.39014604  0.03030663  0.26350943  1
  O  O245  1  0.37166567  0.01446890  0.75176796  1
  O  O246  1  0.35203450  0.47672140  0.25886857  1
  O  O247  1  0.36185481  0.50201987  0.74563829  1
  O  O248  1  0.86968798  -0.02377258  0.25514212  1
  O  O249  1  0.85676233  -0.01054031  0.76144005  1
  O  O250  1  0.88867147  0.49589092  0.27874956  1
  O  O251  1  0.86331299  0.51914258  0.73941319  1
  O  O252  1  0.12337062  0.35336381  0.38570904  1
  O  O253  1  0.12244404  0.36133231  0.86717594  1
  O  O254  1  0.10812622  0.86563704  0.41097167  1
  O  O255  1  0.11296387  0.87810050  0.84306831  1
  O  O256  1  0.61664342  0.37474220  0.36427948  1
  O  O257  1  0.61408395  0.37004565  0.87199319  1
  O  O258  1  0.61782286  0.88369235  0.36816293  1
  O  O259  1  0.61066439  0.87354921  0.86845040  1
  O  O260  1  0.38919694  0.14157970  0.13895896  1
  O  O261  1  0.38973067  0.13638460  0.63298060  1
  O  O262  1  0.36617317  0.60274853  0.16177790  1
  O  O263  1  0.38700335  0.61058815  0.63381737  1
  O  O264  1  0.87788819  0.13061427  0.13016827  1
  O  O265  1  0.88199190  0.12322036  0.63475958  1
  O  O266  1  0.79422144  0.62208306  0.20514387  1
  O  O267  1  0.86774281  0.63797770  0.63572906  1
  O  O268  1  0.26698149  0.24664578  0.12275977  1
  O  O269  1  0.26273051  0.26173683  0.63185977  1
  O  O270  1  0.17592178  0.68239439  0.09673575  1
  O  O271  1  0.26132778  0.75201410  0.60000282  1
  O  O272  1  0.76294479  0.25544584  0.12068232  1
  O  O273  1  0.74715143  0.26757556  0.62890126  1
  O  O274  1  0.75527740  0.66211442  0.13927877  1
  O  O275  1  0.74874945  0.75901708  0.62565326  1
  O  O276  1  0.23216842  0.23874857  0.36610402  1
  O  O277  1  0.24317294  0.23634151  0.87091817  1
  O  O278  1  0.25430503  0.75858458  0.38872657  1
  O  O279  1  0.24925474  0.80038249  0.92238495  1
  O  O280  1  0.76020388  0.23527250  0.37146927  1
  O  O281  1  0.73582037  0.26381675  0.89360683  1
  O  O282  1  0.74481309  0.75174505  0.39843155  1
  O  O283  1  0.74129215  0.74875087  0.86428318  1
  O  O284  1  0.01966070  0.11809515  0.00336072  1
  O  O285  1  0.00106926  0.12731670  0.50644965  1
  O  O286  1  -0.03865616  0.59235697  0.00463639  1
  O  O287  1  -0.00974052  0.60945252  0.50857810  1
  O  O288  1  0.49632746  0.12126786  0.00823395  1
  O  O289  1  0.50960354  0.12425063  0.50962138  1
  O  O290  1  0.48094164  0.60607368  0.00026000  1
  O  O291  1  0.50070760  0.61557425  0.50543752  1
  O  O292  1  0.49698669  0.37823041  0.49428335  1
  O  O293  1  0.50054414  0.38603952  0.99007600  1
  O  O294  1  0.51532932  0.89423459  0.48963649  1
  O  O295  1  0.50783945  0.89569015  0.98858922  1
  O  O296  1  0.98099816  0.38455782  0.51506122  1
  O  O297  1  0.99350090  0.36592527  0.98406344  1
  O  O298  1  0.97049296  0.86628711  0.49504061  1
  O  O299  1  1.01766222  0.87398621  0.97373101  1
  O  O300  1  0.50391302  0.48447348  0.38895339  1
  O  O301  1  0.50291113  0.48971304  0.88498463  1
  O  O302  1  0.50312405  1.01138685  0.38667029  1
  O  O303  1  0.49455199  1.00332737  0.87940992  1
  O  O304  1  1.00960829  0.49803548  0.39960380  1
  O  O305  1  1.00699877  0.47657627  0.87537879  1
  O  O306  1  0.96030886  1.00302738  0.38616095  1
  O  O307  1  0.98674517  0.99355608  0.86127544  1
  O  O308  1  0.00148387  0.05840172  0.04292738  1
  O  O309  1  0.01142659  0.02140425  0.63105882  1
  O  O310  1  -0.01145494  0.51217510  0.10616260  1
  O  O311  1  0.01006749  0.49610401  0.62920283  1
  O  O312  1  0.49618646  0.01689027  0.11313947  1
  O  O313  1  0.50275783  0.01753020  0.61583368  1
  O  O314  1  0.50165994  0.49135890  0.11443340  1
  O  O315  1  0.51005299  0.50290185  0.61820948  1
  O  O316  1  0.21422330  0.36039055  0.24940198  1
  O  O317  1  0.24621189  0.38192288  0.74543039  1
  O  O318  1  0.25290310  0.81689237  0.22275634  1
  O  O319  1  0.23303793  0.88800230  0.74043223  1
  O  O320  1  0.73736497  0.37811345  0.24180042  1
  O  O321  1  0.74299584  0.38622014  0.73812193  1
  O  O322  1  0.73053647  0.84139065  0.25044257  1
  O  O323  1  0.74061107  0.87684004  0.74935819  1
  O  O324  1  0.26635576  0.12977623  0.24224458  1
  O  O325  1  0.26028273  0.11783800  0.75076369  1
  O  O326  1  0.25487956  0.61843342  0.27535293  1
  O  O327  1  0.26113103  0.60897255  0.74682538  1
  O  O328  1  0.73718223  0.12629794  0.25668248  1
  O  O329  1  0.72744326  0.10029375  0.74225087  1
  O  O330  1  0.76907251  0.65521386  0.27105090  1
  O  O331  1  0.74393507  0.62008536  0.75799529  1
  O  O332  1  0.36351849  0.14845961  0.36537907  1
  O  O333  1  0.36809049  0.12408249  0.86439834  1
  O  O334  1  0.41825642  0.60777470  0.33684842  1
  O  O335  1  0.38574413  0.61867179  0.84997001  1
  O  O336  1  0.86145855  0.11565649  0.36393818  1
  O  O337  1  0.87571906  0.11382728  0.88485454  1
  O  O338  1  0.86743639  0.60352884  0.39640320  1
  O  O339  1  0.86038702  0.63816060  0.85076984  1
  O  O340  1  0.12922644  0.39024695  0.11376133  1
  O  O341  1  0.13136961  0.37089762  0.63712931  1
  O  O342  1  0.13338366  0.88178183  0.13161872  1
  O  O343  1  0.11270105  0.89903929  0.61978717  1
  O  O344  1  0.63336538  0.37566896  0.13911944  1
  O  O345  1  0.62965425  0.38304504  0.63181179  1
  O  O346  1  0.62093928  0.88867920  0.13977734  1
  O  O347  1  0.62754763  0.86962978  0.64145349  1
  O  O348  1  0.10689663  0.23135651  0.26718583  1
  O  O349  1  0.13389214  0.26018161  0.75566269  1
  O  O350  1  0.12312791  0.75970627  0.26187635  1
  O  O351  1  0.12312358  0.77088049  0.71389970  1
  O  O352  1  0.61329452  0.26451271  0.24763197  1
  O  O353  1  0.63239381  0.26889555  0.76321876  1
  O  O354  1  0.58985699  0.76718948  0.23711082  1
  O  O355  1  0.60623243  0.75505962  0.74930595  1
  O  O356  1  0.38437644  0.25152064  0.23958096  1
  O  O357  1  0.37324288  0.24083451  0.74402579  1
  O  O358  1  0.41314386  0.74645128  0.25315085  1
  O  O359  1  0.37961372  0.73350418  0.74274150  1
  O  O360  1  0.87914934  0.25671991  0.23657167  1
  O  O361  1  0.80882600  0.20423292  0.78667493  1
  O  O362  1  0.91909284  0.76713296  0.33410312  1
  O  O363  1  0.87688176  0.74159911  0.73509336  1
  O  O364  1  0.38858812  0.48407991  0.51152603  1
  O  O365  1  0.38483595  0.48087012  1.00939725  1
  O  O366  1  0.39843134  1.01045533  0.49598804  1
  O  O367  1  0.38358796  1.00631751  0.98385099  1
  O  O368  1  0.88159289  0.49161074  0.49863751  1
  O  O369  1  0.93361437  0.53520573  1.05403075  1
  O  O370  1  0.86684561  0.98180387  0.52629685  1
  O  O371  1  0.86925037  0.98909601  0.97476350  1
  O  O372  1  0.18731007  -0.03889379  0.00722220  1
  O  O373  1  0.12667097  0.02060914  0.51183956  1
  O  O374  1  0.16129381  0.52847290  0.00976801  1
  O  O375  1  0.10989684  0.48918095  0.52318403  1
  O  O376  1  0.61831674  0.01617386  -0.01240563  1
  O  O377  1  0.61482029  0.02094711  0.50116285  1
  O  O378  1  0.61698753  0.51264838  0.00433549  1
  O  O379  1  0.61706108  0.50553302  0.50815411  1
  O  O380  1  0.38034506  0.36248274  0.11486947  1
  O  O381  1  0.37185915  0.36816596  0.62213968  1
  O  O382  1  0.35192201  0.91320039  0.14105260  1
  O  O383  1  0.37493878  0.88810868  0.63098421  1
  O  O384  1  0.85770558  0.38127058  0.13394405  1
  O  O385  1  0.86028366  0.38003757  0.62251054  1
  O  O386  1  0.88435763  0.91045669  0.09630650  1
  O  O387  1  0.86321489  0.86298256  0.62372467  1
  O  O388  1  0.13721148  0.13194143  0.40134127  1
  O  O389  1  0.13692129  0.13324096  0.86902476  1
  O  O390  1  0.20930923  0.59067243  0.43976629  1
  O  O391  1  0.12466866  0.64091950  0.86173320  1
  O  O392  1  0.63900501  0.12857297  0.38715549  1
  O  O393  1  0.63735823  0.14924689  0.86107891  1
  O  O394  1  0.61036446  0.61969620  0.38948334  1
  O  O395  1  0.63217658  0.63026050  0.87232793  1
