# generated using pymatgen
data_V35Zn35O128
_symmetry_space_group_name_H-M   'P 1'
_cell_length_a   16.82797752
_cell_length_b   16.83255222
_cell_length_c   16.83132721
_cell_angle_alpha   89.98637352
_cell_angle_beta   90.01573254
_cell_angle_gamma   90.14285211
_symmetry_Int_Tables_number   1
_chemical_formula_structural   V35Zn35O128
_chemical_formula_sum   'V70 Zn70 O256'
_cell_volume   4767.58975980
_cell_formula_units_Z   2
loop_
 _symmetry_equiv_pos_site_id
 _symmetry_equiv_pos_as_xyz
  1  'x, y, z'
loop_
 _atom_site_type_symbol
 _atom_site_label
 _atom_site_symmetry_multiplicity
 _atom_site_fract_x
 _atom_site_fract_y
 _atom_site_fract_z
 _atom_site_occupancy
  V  V0  1  0.00783477  0.50738482  0.00013981  1
  V  V1  1  0.61648101  0.12203487  0.50130578  1
  V  V2  1  0.50914353  0.61838024  0.62414637  1
  V  V3  1  0.73809857  0.62325313  0.36658166  1
  V  V4  1  0.25586609  0.00981264  0.23822476  1
  V  V5  1  0.10501808  0.00556030  0.11676745  1
  V  V6  1  0.37578688  0.23310748  0.61368483  1
  V  V7  1  0.74278062  0.74273077  0.49415361  1
  V  V8  1  0.25681861  0.85416569  0.12216121  1
  V  V9  1  0.74819177  0.87275431  0.62463273  1
  V  V10  1  0.50216766  0.24354177  0.24964881  1
  V  V11  1  0.48924377  0.37374184  0.37789447  1
  V  V12  1  0.36752852  0.37638100  0.00043414  1
  V  V13  1  0.49206850  0.63726237  0.13511161  1
  V  V14  1  0.36809114  0.59401258  0.74487906  1
  V  V15  1  -0.00226941  0.36586283  0.86464803  1
  V  V16  1  0.37400542  0.24498316  0.13169914  1
  V  V17  1  0.89602533  0.62862411  0.25048789  1
  V  V18  1  0.12433736  0.50130163  0.14152333  1
  V  V19  1  0.11684731  0.87278199  0.24540007  1
  V  V20  1  0.27435826  0.75403280  0.49905561  1
  V  V21  1  0.87171075  0.37200787  0.00105148  1
  V  V22  1  0.25620806  0.38644858  0.61651037  1
  V  V23  1  0.51504751  0.49486170  0.50398595  1
  V  V24  1  0.48450005  0.87913285  0.89136066  1
  V  V25  1  0.86069863  0.86428041  -0.01021560  1
  V  V26  1  0.87433087  0.50102698  0.87498640  1
  V  V27  1  0.74235928  0.00725115  0.76274399  1
  V  V28  1  0.63001682  0.50157010  0.12540140  1
  V  V29  1  0.38704943  -0.00759842  0.37709796  1
  V  V30  1  0.49116761  0.23678194  0.74728794  1
  V  V31  1  0.12606081  0.74183708  0.38574839  1
  V  V32  1  0.75225960  0.37351934  0.12110485  1
  V  V33  1  0.88051358  0.74641248  0.12605261  1
  V  V34  1  0.87636636  0.23495301  0.13277540  1
  V  V35  1  0.24686892  0.38103118  0.15147575  1
  V  V36  1  0.75686995  0.12124171  0.36597388  1
  V  V37  1  0.87680397  0.49294117  0.36740490  1
  V  V38  1  0.37924754  0.52680240  0.36970898  1
  V  V39  1  0.01746571  0.62153446  0.60807433  1
  V  V40  1  0.63500286  0.38095290  0.25795830  1
  V  V41  1  0.76090682  0.24728072  0.51619050  1
  V  V42  1  0.74893563  0.62803187  0.88012182  1
  V  V43  1  0.74501465  0.87560827  0.14703353  1
  V  V44  1  0.88039005  0.37503890  0.51167023  1
  V  V45  1  0.25905883  0.58160586  0.88463448  1
  V  V46  1  0.62515705  0.37567303  0.73678514  1
  V  V47  1  0.01590459  0.24092665  0.24561843  1
  V  V48  1  0.74489036  0.49540276  0.73549581  1
  V  V49  1  0.01039335  0.86676855  0.87171555  1
  V  V50  1  0.61352206  0.87463657  0.74985619  1
  V  V51  1  0.87969536  0.63339678  0.73750448  1
  V  V52  1  0.88824610  0.01062892  0.88251147  1
  V  V53  1  0.14654542  0.24311352  0.87971727  1
  V  V54  1  0.37236223  0.02821209  0.87456578  1
  V  V55  1  0.87683582  0.00217515  0.36454060  1
  V  V56  1  0.24493926  0.12283742  0.37976024  1
  V  V57  1  0.88104251  0.87770936  0.51021603  1
  V  V58  1  0.60519596  0.00240163  0.62074311  1
  V  V59  1  0.13017234  0.39179820  0.74449809  1
  V  V60  1  0.00193746  0.87692704  0.37691832  1
  V  V61  1  0.50027030  0.50194412  -0.00078574  1
  V  V62  1  0.48058261  0.75139723  0.74596213  1
  V  V63  1  0.23192633  0.24702291  0.49561252  1
  V  V64  1  0.62385850  0.00698152  0.12998006  1
  V  V65  1  0.63264345  0.24019984  0.88782202  1
  V  V66  1  0.01913746  0.37471727  0.36547306  1
  V  V67  1  0.23354806  0.86943031  0.63534079  1
  V  V68  1  0.62471916  0.74973215  0.87726963  1
  V  V69  1  0.49964885  0.38009207  0.87486023  1
  Zn  Zn70  1  0.63105900  0.24791116  0.37716838  1
  Zn  Zn71  1  0.02379743  0.76841670  0.73712409  1
  Zn  Zn72  1  0.49869158  0.11284069  0.11612628  1
  Zn  Zn73  1  0.14193197  0.64130728  -0.00093199  1
  Zn  Zn74  1  0.87538321  0.14453170  0.71741390  1
  Zn  Zn75  1  0.62607325  0.63206000  0.00205481  1
  Zn  Zn76  1  0.19007583  0.17909647  0.15874437  1
  Zn  Zn77  1  0.15896192  0.22291151  0.67399224  1
  Zn  Zn78  1  0.15868663  0.68825144  0.18693885  1
  Zn  Zn79  1  0.19927113  0.68350082  0.67521562  1
  Zn  Zn80  1  0.68680290  0.18839495  0.18046672  1
  Zn  Zn81  1  0.67923255  0.18668734  0.69182610  1
  Zn  Zn82  1  0.69724427  0.68494886  0.17932715  1
  Zn  Zn83  1  0.69069342  0.68785994  0.69467894  1
  Zn  Zn84  1  0.31082282  0.30802762  0.31425876  1
  Zn  Zn85  1  0.31228321  0.31954403  0.80574651  1
  Zn  Zn86  1  0.30552827  0.81734489  0.30801088  1
  Zn  Zn87  1  0.30302408  0.81345833  0.81827308  1
  Zn  Zn88  1  0.81254713  0.30335959  0.31248320  1
  Zn  Zn89  1  0.81029328  0.30320744  0.80439121  1
  Zn  Zn90  1  0.81702824  0.80671573  0.31630091  1
  Zn  Zn91  1  0.81055771  0.81396712  0.80573224  1
  Zn  Zn92  1  0.20460540  0.44206712  0.42950645  1
  Zn  Zn93  1  0.18090784  0.41932116  0.94489115  1
  Zn  Zn94  1  0.20704000  0.92496392  0.42841785  1
  Zn  Zn95  1  0.19295070  0.92471457  0.94086068  1
  Zn  Zn96  1  0.69807039  0.43849809  0.44338755  1
  Zn  Zn97  1  0.68519390  0.43395474  0.93327401  1
  Zn  Zn98  1  0.69077587  0.93997328  0.43867148  1
  Zn  Zn99  1  0.67610711  0.93712562  0.94596560  1
  Zn  Zn100  1  0.27965657  0.05704306  0.02843416  1
  Zn  Zn101  1  0.31362944  0.04863348  0.55976296  1
  Zn  Zn102  1  0.31588219  0.55667251  0.07683301  1
  Zn  Zn103  1  0.32635550  0.56678563  0.54769367  1
  Zn  Zn104  1  0.80578655  0.05778531  0.05831388  1
  Zn  Zn105  1  0.81616447  0.05715230  0.56592420  1
  Zn  Zn106  1  0.81452129  0.56158870  0.06395618  1
  Zn  Zn107  1  0.81657396  0.55847422  0.55541533  1
  Zn  Zn108  1  0.44076832  0.44030609  0.18994085  1
  Zn  Zn109  1  0.43873714  0.42514208  0.67675685  1
  Zn  Zn110  1  0.42558683  0.93956169  0.16798919  1
  Zn  Zn111  1  0.40893250  0.95690273  0.68477634  1
  Zn  Zn112  1  0.94152245  0.43817642  0.18975551  1
  Zn  Zn113  1  0.93903267  0.44775763  0.69011882  1
  Zn  Zn114  1  0.92996628  0.93309013  0.18472076  1
  Zn  Zn115  1  0.93096169  0.95795844  0.69444124  1
  Zn  Zn116  1  0.06246131  0.05986182  0.31091295  1
  Zn  Zn117  1  0.06823610  0.07228950  0.94715614  1
  Zn  Zn118  1  0.06341879  0.56360922  0.42990372  1
  Zn  Zn119  1  0.09278703  0.60335886  0.78572251  1
  Zn  Zn120  1  0.57393209  0.05008361  0.30657168  1
  Zn  Zn121  1  0.55847951  0.06012029  0.82086253  1
  Zn  Zn122  1  0.55622180  0.56303362  0.31046952  1
  Zn  Zn123  1  0.56170011  0.56301243  0.80904328  1
  Zn  Zn124  1  0.42881871  0.17688176  0.42657349  1
  Zn  Zn125  1  0.43424138  0.19799169  0.93801257  1
  Zn  Zn126  1  0.45368753  0.69827648  0.44600724  1
  Zn  Zn127  1  0.43470360  0.67753798  0.92818547  1
  Zn  Zn128  1  0.94206045  0.19494493  0.43073047  1
  Zn  Zn129  1  0.92515555  0.18993766  0.93895540  1
  Zn  Zn130  1  0.93081952  0.69644230  0.43918400  1
  Zn  Zn131  1  0.94075440  0.69115697  0.93273449  1
  Zn  Zn132  1  0.06028636  0.31263849  0.06176276  1
  Zn  Zn133  1  0.06271663  0.43265969  0.55809296  1
  Zn  Zn134  1  0.05571532  0.81735749  0.05317998  1
  Zn  Zn135  1  0.06268620  0.80925953  0.56755699  1
  Zn  Zn136  1  0.56287116  0.31517390  0.06399551  1
  Zn  Zn137  1  0.56171462  0.30334622  0.56008756  1
  Zn  Zn138  1  0.56600224  0.81857225  0.06479852  1
  Zn  Zn139  1  0.57769548  0.78990745  0.57845156  1
  O  O140  1  0.10466796  0.10428801  0.13175040  1
  O  O141  1  0.08055759  0.15104379  0.61747209  1
  O  O142  1  0.13488083  0.60572351  0.11525884  1
  O  O143  1  0.11683609  0.61952741  0.61268393  1
  O  O144  1  0.62083290  0.11552451  0.12363262  1
  O  O145  1  0.62221583  0.11191813  0.61642370  1
  O  O146  1  0.62345251  0.61746226  0.12084524  1
  O  O147  1  0.60781462  0.62240637  0.64583857  1
  O  O148  1  0.38959329  0.37358093  0.37689958  1
  O  O149  1  0.38550133  0.36551436  0.89138212  1
  O  O150  1  0.37710253  0.89115600  0.35267441  1
  O  O151  1  0.38430702  0.87260420  0.87690283  1
  O  O152  1  0.87032906  0.38785646  0.36898649  1
  O  O153  1  0.87753569  0.38105080  0.87937566  1
  O  O154  1  0.88253932  0.88212770  0.38050010  1
  O  O155  1  0.87350931  0.87211885  0.88295281  1
  O  O156  1  0.25690307  0.00449546  0.36062097  1
  O  O157  1  0.27947029  0.00378331  0.92193716  1
  O  O158  1  0.27936108  0.51320961  0.38458812  1
  O  O159  1  0.25549695  0.48215894  0.87574964  1
  O  O160  1  0.76045503  0.01049670  0.37791899  1
  O  O161  1  0.72026262  0.00249646  0.86127533  1
  O  O162  1  0.76410234  0.51522379  0.38073729  1
  O  O163  1  0.75693329  0.50589490  0.86961440  1
  O  O164  1  0.24120086  0.48885751  0.13101521  1
  O  O165  1  0.26193279  0.48431735  0.60472798  1
  O  O166  1  0.23901714  0.99245964  0.13155068  1
  O  O167  1  0.15815200  1.03194109  0.56941524  1
  O  O168  1  0.73899634  0.49218956  0.12224852  1
  O  O169  1  0.74981929  0.50178581  0.63682326  1
  O  O170  1  0.74826305  0.98215280  0.12366300  1
  O  O171  1  0.73406604  0.98569683  0.63414195  1
  O  O172  1  0.00213200  0.36970949  0.25982788  1
  O  O173  1  0.00551513  0.38275184  0.75922305  1
  O  O174  1  0.00895632  0.87983451  0.25959818  1
  O  O175  1  -0.01352992  0.87847881  0.76180356  1
  O  O176  1  0.51234892  0.37032304  0.26385992  1
  O  O177  1  0.51004196  0.37396261  0.75560853  1
  O  O178  1  0.56815161  0.80555284  0.24364447  1
  O  O179  1  0.49697314  0.86361093  0.74519343  1
  O  O180  1  0.51278561  0.14397797  0.25492773  1
  O  O181  1  0.50256342  0.13835736  0.74893285  1
  O  O182  1  0.51048847  0.63187076  0.23499504  1
  O  O183  1  0.48741971  0.63211371  0.74954210  1
  O  O184  1  0.99867686  0.14236904  0.26229475  1
  O  O185  1  1.03109849  0.09758887  0.74573964  1
  O  O186  1  0.99166645  0.62828547  0.24455439  1
  O  O187  1  0.98382699  0.61421268  0.73830169  1
  O  O188  1  0.38986998  0.26734906  0.02177442  1
  O  O189  1  0.37990534  0.24376659  0.51151558  1
  O  O190  1  0.33955548  0.74499971  -0.03248204  1
  O  O191  1  0.37434518  0.76686936  0.49231063  1
  O  O192  1  0.87962275  0.26607373  0.01616390  1
  O  O193  1  0.86882180  0.25840124  0.49927623  1
  O  O194  1  0.87343671  0.75476342  0.00886581  1
  O  O195  1  0.86042501  0.76936443  0.49628238  1
  O  O196  1  0.13648426  0.24610772  0.49305557  1
  O  O197  1  0.12442907  0.27349917  0.97681805  1
  O  O198  1  0.12459538  0.75146379  0.48774551  1
  O  O199  1  0.11963242  0.74948051  0.99519944  1
  O  O200  1  0.63835947  0.23734395  0.50118188  1
  O  O201  1  0.61205162  0.24905616  0.98776220  1
  O  O202  1  0.64060522  0.74677251  0.49766009  1
  O  O203  1  0.62058746  0.75273236  0.98080125  1
  O  O204  1  0.49572444  0.25556849  0.13939867  1
  O  O205  1  0.48732341  0.25346318  0.63424345  1
  O  O206  1  0.50562478  0.73579905  0.11372737  1
  O  O207  1  0.49640275  0.73644962  0.63617479  1
  O  O208  1  0.98736884  0.25839749  0.13461811  1
  O  O209  1  1.02490125  0.18377279  0.57146293  1
  O  O210  1  0.97975903  0.76050793  0.12464941  1
  O  O211  1  1.00175748  0.73003217  0.62666450  1
  O  O212  1  -0.00046194  0.26453381  0.36028735  1
  O  O213  1  -0.00880241  0.26628613  0.87519890  1
  O  O214  1  0.00966155  0.76733916  0.38149891  1
  O  O215  1  -0.00084331  0.76195160  0.86410919  1
  O  O216  1  0.50449343  0.25991943  0.36923577  1
  O  O217  1  0.50373636  0.25891992  0.86193795  1
  O  O218  1  0.51230662  0.78791147  0.38786615  1
  O  O219  1  0.50096228  0.75647971  0.86306641  1
  O  O220  1  0.25339855  0.12976572  0.48944536  1
  O  O221  1  0.23470047  0.15426883  1.05454183  1
  O  O222  1  0.26310819  0.65193791  0.50725503  1
  O  O223  1  0.26115232  0.60012880  0.98713057  1
  O  O224  1  0.75023211  0.13211806  0.49934557  1
  O  O225  1  0.75685530  0.13101826  0.99065214  1
  O  O226  1  0.76085679  0.63764898  0.49129237  1
  O  O227  1  0.74940281  0.62049398  0.98445946  1
  O  O228  1  0.26645732  0.37576214  0.00850527  1
  O  O229  1  0.24712974  0.35841627  0.50667450  1
  O  O230  1  0.25268269  0.87320260  0.02349910  1
  O  O231  1  0.24523654  0.86451769  0.51424182  1
  O  O232  1  0.75842361  0.38106232  0.00843161  1
  O  O233  1  0.76153719  0.35806697  0.49746528  1
  O  O234  1  0.75810904  0.86740435  -0.00697093  1
  O  O235  1  0.75201200  0.86619982  0.50597581  1
  O  O236  1  0.11521702  0.50374620  0.23670449  1
  O  O237  1  0.12295659  0.49109638  0.75191415  1
  O  O238  1  0.12663102  0.98977504  0.23927964  1
  O  O239  1  0.19484954  1.04299850  0.74949019  1
  O  O240  1  0.61973753  0.48650523  0.24147852  1
  O  O241  1  0.63388350  0.48888791  0.75335517  1
  O  O242  1  0.64203488  0.99954223  0.23466717  1
  O  O243  1  0.62206610  0.99353567  0.73898536  1
  O  O244  1  0.35825252  0.00378836  0.24153496  1
  O  O245  1  0.36259321  -0.00027602  0.77807078  1
  O  O246  1  0.39224441  0.50136581  0.27082509  1
  O  O247  1  0.38193778  0.49521761  0.74970453  1
  O  O248  1  0.87511651  -0.00415469  0.26480955  1
  O  O249  1  0.84778217  -0.01718893  0.78034917  1
  O  O250  1  0.87760636  0.51258932  0.25794610  1
  O  O251  1  0.85993925  0.50242924  0.75680105  1
  O  O252  1  0.11735765  0.37969072  0.37276742  1
  O  O253  1  0.10945636  0.37762605  0.86377407  1
  O  O254  1  0.11770176  0.88049617  0.36591447  1
  O  O255  1  0.11015619  0.88339631  0.87523024  1
  O  O256  1  0.62971160  0.37485884  0.36531607  1
  O  O257  1  0.61395904  0.36614079  0.86810417  1
  O  O258  1  0.60368337  0.88469899  0.38010699  1
  O  O259  1  0.60739911  0.87100747  0.86536238  1
  O  O260  1  0.38100247  0.14608785  0.13280735  1
  O  O261  1  0.36649716  0.13349489  0.62483245  1
  O  O262  1  0.39227252  0.62083727  0.12606584  1
  O  O263  1  0.39085464  0.61335894  0.63905881  1
  O  O264  1  0.86688179  0.13662376  0.12514417  1
  O  O265  1  0.89605332  0.06094241  0.64743847  1
  O  O266  1  0.86691254  0.63572675  0.13549692  1
  O  O267  1  0.86988860  0.62057655  0.63596810  1
  O  O268  1  0.26830706  0.26912347  0.14583707  1
  O  O269  1  0.25442622  0.24773483  0.61063300  1
  O  O270  1  0.23472981  0.75593980  0.13028189  1
  O  O271  1  0.25679078  0.76303227  0.61389405  1
  O  O272  1  0.76257597  0.26287179  0.12975848  1
  O  O273  1  0.75089747  0.24168981  0.61593221  1
  O  O274  1  0.75975174  0.76446023  0.12735911  1
  O  O275  1  0.73961550  0.76271506  0.61845582  1
  O  O276  1  0.25790424  0.23655811  0.38508747  1
  O  O277  1  0.24744309  0.25619208  0.87492558  1
  O  O278  1  0.23740139  0.76437144  0.38865225  1
  O  O279  1  0.28095996  0.74558806  0.91619214  1
  O  O280  1  0.75250456  0.23527430  0.38688009  1
  O  O281  1  0.73148331  0.25959189  0.87402014  1
  O  O282  1  0.75104264  0.73912660  0.38417008  1
  O  O283  1  0.73629944  0.73921177  0.85865238  1
  O  O284  1  -0.01471273  0.12125838  0.00141728  1
  O  O285  1  -0.00099047  0.13303636  0.51491466  1
  O  O286  1  -0.00251517  0.60872045  -0.00768540  1
  O  O287  1  -0.00717504  0.62465042  0.50378115  1
  O  O288  1  0.46599318  0.10120339  0.00140957  1
  O  O289  1  0.51883619  0.13347726  0.48990115  1
  O  O290  1  0.50135131  0.61474376  0.00087103  1
  O  O291  1  0.50846869  0.62123230  0.51785590  1
  O  O292  1  0.51102433  0.38089806  0.48809534  1
  O  O293  1  0.49736192  0.38362185  0.99418412  1
  O  O294  1  0.54761736  0.84787960  0.42680435  1
  O  O295  1  0.49472844  0.87133553  0.99019962  1
  O  O296  1  0.98539684  0.36945628  0.48211723  1
  O  O297  1  0.99035840  0.38516165  0.98727964  1
  O  O298  1  0.98646896  0.87432752  0.49969201  1
  O  O299  1  0.98167803  0.87246918  0.98099664  1
  O  O300  1  0.50341725  0.48690549  0.38225692  1
  O  O301  1  0.50690670  0.49069043  0.88384716  1
  O  O302  1  0.48618336  1.00986172  0.36201133  1
  O  O303  1  0.48737509  0.98706290  0.87258353  1
  O  O304  1  0.98619389  0.48758289  0.37483722  1
  O  O305  1  0.98416192  0.49256788  0.88285379  1
  O  O306  1  0.98770901  0.99348461  0.37758162  1
  O  O307  1  0.98912355  0.99247950  0.87621317  1
  O  O308  1  0.00654881  -0.01720297  0.11855193  1
  O  O309  1  0.04697886  0.03065537  0.71908998  1
  O  O310  1  0.01221541  0.48897216  0.11050396  1
  O  O311  1  -0.00122134  0.51230793  0.61800087  1
  O  O312  1  0.51405321  -0.00210495  0.14424627  1
  O  O313  1  0.50564929  -0.00868120  0.62908991  1
  O  O314  1  0.51196730  0.50585054  0.11853579  1
  O  O315  1  0.50176337  0.50167586  0.61306819  1
  O  O316  1  0.25044361  0.38319482  0.25139661  1
  O  O317  1  0.24064106  0.37815758  0.73300965  1
  O  O318  1  0.23369098  0.88652460  0.24363402  1
  O  O319  1  0.24306271  0.85708527  0.73727910  1
  O  O320  1  0.73925110  0.37214870  0.24396347  1
  O  O321  1  0.73713047  0.38485241  0.75210980  1
  O  O322  1  0.75478447  0.87390679  0.24701262  1
  O  O323  1  0.73132322  0.87934691  0.74516504  1
  O  O324  1  0.24065216  0.11272234  0.25145746  1
  O  O325  1  0.22175942  0.10326869  0.71680876  1
  O  O326  1  0.27147772  0.65244870  0.25712066  1
  O  O327  1  0.26541084  0.60992431  0.74523288  1
  O  O328  1  0.74697071  0.13440001  0.26793412  1
  O  O329  1  0.74842678  0.10759989  0.74066615  1
  O  O330  1  0.75468219  0.63118901  0.26424066  1
  O  O331  1  0.75570775  0.61220595  0.75621166  1
  O  O332  1  0.35868667  0.11095652  0.36605941  1
  O  O333  1  0.37476676  0.12862303  0.86748504  1
  O  O334  1  0.40534108  0.62618819  0.37280629  1
  O  O335  1  0.36495753  0.61475155  0.85814640  1
  O  O336  1  0.86939357  0.11273520  0.38302799  1
  O  O337  1  0.87749173  0.11039477  0.86727092  1
  O  O338  1  0.87768053  0.62018874  0.36322749  1
  O  O339  1  0.86832969  0.61871308  0.86499819  1
  O  O340  1  0.14111723  0.38229643  0.12268583  1
  O  O341  1  0.13170891  0.37172960  0.63509711  1
  O  O342  1  0.12470514  0.87559600  0.13637397  1
  O  O343  1  0.13201464  0.88077932  0.62720624  1
  O  O344  1  0.63254363  0.38007027  0.13354901  1
  O  O345  1  0.61947297  0.37083461  0.63771846  1
  O  O346  1  0.63974836  0.87452108  0.13024671  1
  O  O347  1  0.62319121  0.88274853  0.62969008  1
  O  O348  1  0.11479646  0.24455949  0.22889192  1
  O  O349  1  0.12483753  0.27115479  0.76870579  1
  O  O350  1  0.12747821  0.76670946  0.26433385  1
  O  O351  1  0.12130599  0.71109665  0.75243898  1
  O  O352  1  0.61793278  0.26377289  0.25000162  1
  O  O353  1  0.61382921  0.26090873  0.75307874  1
  O  O354  1  0.61764393  0.75614336  0.26584703  1
  O  O355  1  0.61169286  0.75941942  0.75448125  1
  O  O356  1  0.39322987  0.26078780  0.24559156  1
  O  O357  1  0.38670940  0.25390831  0.74265637  1
  O  O358  1  0.32709923  0.70306441  0.25596015  1
  O  O359  1  0.38077681  0.74752248  0.75302651  1
  O  O360  1  0.88165893  0.25334586  0.23668763  1
  O  O361  1  0.88259672  0.24818835  0.74414407  1
  O  O362  1  0.87622862  0.74023979  0.24089859  1
  O  O363  1  0.87253382  0.73394508  0.75017418  1
  O  O364  1  0.40279256  0.50692285  0.48364011  1
  O  O365  1  0.38894897  0.48433139  1.00993886  1
  O  O366  1  0.37532537  0.99670365  0.47783693  1
  O  O367  1  0.40480011  1.04228099  0.99672570  1
  O  O368  1  0.86909151  0.48310537  0.48653263  1
  O  O369  1  0.88142259  0.49382868  0.99510133  1
  O  O370  1  0.86476374  0.98104393  0.48817134  1
  O  O371  1  0.86326988  0.98484241  0.98431419  1
  O  O372  1  0.12972026  -0.00175509  0.01135859  1
  O  O373  1  0.12676754  0.00406722  0.50828472  1
  O  O374  1  0.11135447  0.49745449  -0.00387238  1
  O  O375  1  0.12687721  0.49468988  0.49022451  1
  O  O376  1  0.62213825  -0.00979658  0.02592289  1
  O  O377  1  0.62549684  0.00804231  0.51212423  1
  O  O378  1  0.61707053  0.49848762  0.00818685  1
  O  O379  1  0.61603728  0.49999432  0.49525039  1
  O  O380  1  0.36658119  0.37710919  0.12376584  1
  O  O381  1  0.35891309  0.35864433  0.62659389  1
  O  O382  1  0.35816814  0.85548162  0.14783733  1
  O  O383  1  0.30712712  0.95260031  0.62732567  1
  O  O384  1  0.86592007  0.38212446  0.11880938  1
  O  O385  1  0.88467751  0.38060919  0.61028793  1
  O  O386  1  0.86275252  0.86744259  0.11434778  1
  O  O387  1  0.86559173  0.88456157  0.61682894  1
  O  O388  1  0.14391977  0.11251775  0.37442058  1
  O  O389  1  0.12774346  0.14265097  0.87842240  1
  O  O390  1  0.11729229  0.64404655  0.36707734  1
  O  O391  1  0.15878903  0.61356189  0.87877048  1
  O  O392  1  0.64078218  0.11754525  0.38917176  1
  O  O393  1  0.61940800  0.14114558  0.86883405  1
  O  O394  1  0.63887379  0.61673809  0.37213764  1
  O  O395  1  0.63048507  0.63233625  0.87226536  1
