# generated using pymatgen
data_V35Zn35O128
_symmetry_space_group_name_H-M   'P 1'
_cell_length_a   16.90720579
_cell_length_b   16.91001989
_cell_length_c   16.89862113
_cell_angle_alpha   89.59385018
_cell_angle_beta   90.09510015
_cell_angle_gamma   89.55258508
_symmetry_Int_Tables_number   1
_chemical_formula_structural   V35Zn35O128
_chemical_formula_sum   'V70 Zn70 O256'
_cell_volume   4831.06003635
_cell_formula_units_Z   2
loop_
 _symmetry_equiv_pos_site_id
 _symmetry_equiv_pos_as_xyz
  1  'x, y, z'
loop_
 _atom_site_type_symbol
 _atom_site_label
 _atom_site_symmetry_multiplicity
 _atom_site_fract_x
 _atom_site_fract_y
 _atom_site_fract_z
 _atom_site_occupancy
  V  V0  1  0.49132661  0.63574531  0.11444989  1
  V  V1  1  0.76372583  0.50858738  0.74470905  1
  V  V2  1  0.76111625  0.87107118  0.61424392  1
  V  V3  1  0.61362305  0.49666896  0.10781059  1
  V  V4  1  0.91128938  0.10834374  0.25104886  1
  V  V5  1  0.25812987  0.00068605  0.76006960  1
  V  V6  1  0.76096273  0.01137589  0.75579503  1
  V  V7  1  0.25791707  0.36441904  0.10811234  1
  V  V8  1  0.63636562  0.11684853  0.00229149  1
  V  V9  1  0.86950682  0.89743103  0.01139391  1
  V  V10  1  0.75872578  0.23612134  0.49681325  1
  V  V11  1  0.62137421  0.24628479  0.37274095  1
  V  V12  1  0.62723604  0.86295370  0.75664237  1
  V  V13  1  0.24600183  0.87999337  0.12465103  1
  V  V14  1  0.14062214  0.37937807  0.25397925  1
  V  V15  1  0.01152158  0.00245117  0.03551671  1
  V  V16  1  0.13224891  0.24930525  0.39185288  1
  V  V17  1  0.13073634  0.50458522  0.13051536  1
  V  V18  1  0.62675125  0.38176156  0.25219780  1
  V  V19  1  0.61740910  0.11338268  0.49076128  1
  V  V20  1  0.25319185  0.13829517  0.88296573  1
  V  V21  1  -0.01184835  0.24548757  0.75512334  1
  V  V22  1  0.37156654  0.12643220  0.24576345  1
  V  V23  1  0.61791174  0.63023384  -0.01927045  1
  V  V24  1  -0.01650878  0.75020180  0.73880805  1
  V  V25  1  0.62845898  0.37385892  0.73370067  1
  V  V26  1  0.12231111  0.76430058  0.87601292  1
  V  V27  1  0.22247940  0.62138282  0.37100595  1
  V  V28  1  0.37008250  0.61341498  0.24883082  1
  V  V29  1  -0.00765309  0.48752969  0.50891934  1
  V  V30  1  0.72824603  0.01814897  0.25554972  1
  V  V31  1  0.12952327  0.86737822  0.27008475  1
  V  V32  1  0.11255105  0.62341676  0.52231155  1
  V  V33  1  0.49170383  0.25984191  0.24671060  1
  V  V34  1  0.76689343  0.25268805  0.00610202  1
  V  V35  1  0.49663034  0.87871782  0.87308784  1
  V  V36  1  0.37783500  -0.01083505  0.37972923  1
  V  V37  1  0.12369361  0.37248793  0.75369988  1
  V  V38  1  0.49005742  0.24156418  0.74648365  1
  V  V39  1  0.25084719  0.12926992  0.38757206  1
  V  V40  1  0.24344050  0.00416581  0.24673837  1
  V  V41  1  -0.01136698  0.39493068  0.88717975  1
  V  V42  1  0.12594487  0.87248030  0.73007183  1
  V  V43  1  0.12727395  0.12971827  0.01258226  1
  V  V44  1  0.00092343  0.25928575  0.23067959  1
  V  V45  1  0.75169109  0.74270598  0.00157069  1
  V  V46  1  0.37620137  0.88311182  0.00127995  1
  V  V47  1  0.48726652  0.75403333  0.27394890  1
  V  V48  1  0.49314270  0.12338964  0.62584562  1
  V  V49  1  0.25975217  0.62242173  0.87677643  1
  V  V50  1  0.25753723  0.75426673  0.00480453  1
  V  V51  1  -0.00682602  -0.00546061  0.50700672  1
  V  V52  1  0.76483821  0.36950987  0.61416656  1
  V  V53  1  0.36637570  0.87770028  0.51961290  1
  V  V54  1  0.48114686  0.14451355  0.10135669  1
  V  V55  1  -0.01523720  0.36826416  0.38393207  1
  V  V56  1  0.12671659  0.02852373  0.62149940  1
  V  V57  1  0.48826516  0.73416797  0.75529829  1
  V  V58  1  0.62128016  0.86535446  0.24805881  1
  V  V59  1  0.64159910  0.24269461  0.87005241  1
  V  V60  1  0.74867369  0.59900005  0.36192617  1
  V  V61  1  0.37586847  0.35483756  0.51087984  1
  V  V62  1  0.76334665  0.38330998  0.12422600  1
  V  V63  1  0.62366884  -0.00156453  0.62897332  1
  V  V64  1  -0.00748391  0.63679410  0.12530589  1
  V  V65  1  0.24834315  0.49764921  0.75045239  1
  V  V66  1  -0.00559746  0.75599433  0.25989824  1
  V  V67  1  0.50058094  0.37137063  0.88519022  1
  V  V68  1  0.50190366  0.00106107  -0.00211141  1
  V  V69  1  0.11823128  0.62373647  -0.00050604  1
  Zn  Zn70  1  0.36897812  0.75053383  0.63238874  1
  Zn  Zn71  1  0.95298397  0.58935689  0.66123162  1
  Zn  Zn72  1  0.54157096  -0.07452098  0.42532832  1
  Zn  Zn73  1  0.38337817  0.49332851  0.88580024  1
  Zn  Zn74  1  0.36171025  0.48802135  0.36395453  1
  Zn  Zn75  1  0.73929619  0.72088512  0.49431717  1
  Zn  Zn76  1  0.18585454  0.19264520  0.19152874  1
  Zn  Zn77  1  0.18119068  0.19962281  0.70295238  1
  Zn  Zn78  1  0.19095801  0.69167637  0.18548488  1
  Zn  Zn79  1  0.19257743  0.68550781  0.68802458  1
  Zn  Zn80  1  0.67919064  0.19524005  0.17772030  1
  Zn  Zn81  1  0.69160246  0.18358974  0.67923387  1
  Zn  Zn82  1  0.67829313  0.69417155  0.18213879  1
  Zn  Zn83  1  0.80396873  0.69356555  0.67945352  1
  Zn  Zn84  1  0.31706867  0.31679510  0.32352121  1
  Zn  Zn85  1  0.31103609  0.31283517  0.81714701  1
  Zn  Zn86  1  0.30875328  0.80497231  0.31056952  1
  Zn  Zn87  1  0.30968782  0.81908149  0.81705409  1
  Zn  Zn88  1  0.81269446  0.28828639  0.30878151  1
  Zn  Zn89  1  0.82012255  0.31843235  0.81408619  1
  Zn  Zn90  1  0.80602450  0.74148284  0.30204342  1
  Zn  Zn91  1  0.81350978  0.82623167  0.82976455  1
  Zn  Zn92  1  0.18355370  0.44265718  0.43790303  1
  Zn  Zn93  1  0.17786354  0.43812700  0.93446254  1
  Zn  Zn94  1  0.19047937  0.94493740  0.44671259  1
  Zn  Zn95  1  0.18141456  0.94704845  0.94048492  1
  Zn  Zn96  1  0.71020102  0.42272131  0.42209010  1
  Zn  Zn97  1  0.69350168  0.43281674  0.92874120  1
  Zn  Zn98  1  0.72558475  0.88965992  0.39683214  1
  Zn  Zn99  1  0.69139382  0.93522923  0.93397771  1
  Zn  Zn100  1  0.31144227  0.06155092  0.05864235  1
  Zn  Zn101  1  0.28442673  0.12337359  0.59711053  1
  Zn  Zn102  1  0.31185411  0.55523821  0.05842885  1
  Zn  Zn103  1  0.27032948  0.52513303  0.54377885  1
  Zn  Zn104  1  0.81566189  0.06163176  0.08491231  1
  Zn  Zn105  1  0.78152528  0.02115981  0.51667493  1
  Zn  Zn106  1  0.79811512  0.57597426  0.08249763  1
  Zn  Zn107  1  0.80793106  0.55376266  0.55066825  1
  Zn  Zn108  1  0.43518995  0.43518433  0.17254516  1
  Zn  Zn109  1  0.41706472  0.41871591  0.70276239  1
  Zn  Zn110  1  0.46423177  0.92373541  0.16565002  1
  Zn  Zn111  1  0.43659286  0.94308474  0.68969625  1
  Zn  Zn112  1  0.94636495  0.45051046  0.19450708  1
  Zn  Zn113  1  0.93629512  0.41738462  0.68794576  1
  Zn  Zn114  1  0.92870793  0.92560574  0.19603697  1
  Zn  Zn115  1  0.94395701  0.93833203  0.68808854  1
  Zn  Zn116  1  0.06241069  0.06070481  0.32313824  1
  Zn  Zn117  1  0.09326908  0.08208531  0.80182611  1
  Zn  Zn118  1  0.03795365  0.55499655  0.30539119  1
  Zn  Zn119  1  0.06476899  0.56732443  0.81352799  1
  Zn  Zn120  1  0.55523328  0.06558203  0.29606467  1
  Zn  Zn121  1  0.57056755  0.06008017  0.81354880  1
  Zn  Zn122  1  0.57195787  0.57802661  0.29661857  1
  Zn  Zn123  1  0.56716774  0.55037893  0.80310574  1
  Zn  Zn124  1  0.43621771  0.18960659  0.43582937  1
  Zn  Zn125  1  0.44132862  0.18359925  0.92401042  1
  Zn  Zn126  1  0.38335453  0.69782910  0.42710559  1
  Zn  Zn127  1  0.44119334  0.69424289  0.93687547  1
  Zn  Zn128  1  0.93979804  0.16589764  0.41869916  1
  Zn  Zn129  1  0.97561182  0.20837841  0.95559594  1
  Zn  Zn130  1  0.93866700  0.66512376  0.43022757  1
  Zn  Zn131  1  0.93932347  0.74379898  0.94531968  1
  Zn  Zn132  1  0.07803144  0.32490607  0.05312281  1
  Zn  Zn133  1  0.06881343  0.31376392  0.57461279  1
  Zn  Zn134  1  0.06337543  0.82196198  0.06654707  1
  Zn  Zn135  1  0.05354510  0.81046559  0.54891944  1
  Zn  Zn136  1  0.57407375  0.30603417  0.06177916  1
  Zn  Zn137  1  0.55730567  0.30680433  0.55517954  1
  Zn  Zn138  1  0.58456121  0.80814337  0.06645937  1
  Zn  Zn139  1  0.54164337  0.81925361  0.58089786  1
  O  O140  1  0.13765217  0.12566916  0.11361676  1
  O  O141  1  0.11323973  0.12579192  0.63072516  1
  O  O142  1  0.12799383  0.62605260  0.11370436  1
  O  O143  1  0.11630285  0.62423625  0.62251184  1
  O  O144  1  0.60500821  0.14104913  0.10129741  1
  O  O145  1  0.61978299  0.11541086  0.61429321  1
  O  O146  1  0.61030560  0.61135690  0.11805439  1
  O  O147  1  0.57042142  0.66214763  0.50545719  1
  O  O148  1  0.37788476  0.38205105  0.39014373  1
  O  O149  1  0.39789138  0.35777429  0.87738551  1
  O  O150  1  0.36386459  0.88775129  0.37464247  1
  O  O151  1  0.38537936  0.87773602  0.88605265  1
  O  O152  1  0.88689940  0.36004661  0.37364775  1
  O  O153  1  0.88531453  0.38531337  0.87563364  1
  O  O154  1  0.87968397  0.82232599  0.45167002  1
  O  O155  1  0.89035114  0.85046092  0.91489548  1
  O  O156  1  0.25544484  0.01453910  0.36919670  1
  O  O157  1  0.25018067  -0.00382456  0.86414353  1
  O  O158  1  0.24694359  0.51877466  0.36657949  1
  O  O159  1  0.25027310  0.51642653  0.88457440  1
  O  O160  1  0.76356352  -0.01349439  0.34805874  1
  O  O161  1  0.75201841  -0.00910774  0.85547366  1
  O  O162  1  0.75341379  0.49812515  0.35315208  1
  O  O163  1  0.74689634  0.48669950  0.84368046  1
  O  O164  1  0.23643781  0.49266365  0.12148308  1
  O  O165  1  0.26024650  0.51203615  0.65359062  1
  O  O166  1  0.25635743  0.99251317  0.13777642  1
  O  O167  1  0.23302929  1.02187851  0.64279928  1
  O  O168  1  0.73459363  0.48907395  0.12196753  1
  O  O169  1  0.75009332  0.47522926  0.62297780  1
  O  O170  1  0.78423525  0.99006887  0.17449555  1
  O  O171  1  0.73739971  0.98998104  0.63628000  1
  O  O172  1  0.01297448  0.36826507  0.26457341  1
  O  O173  1  0.00759387  0.37275392  0.76245258  1
  O  O174  1  0.02337305  0.86615443  0.24762121  1
  O  O175  1  0.01546810  0.86218735  0.74888394  1
  O  O176  1  0.50789888  0.36596296  0.24348682  1
  O  O177  1  0.51386724  0.35675224  0.74821881  1
  O  O178  1  0.48076130  0.85722266  0.26144532  1
  O  O179  1  0.50816130  0.88223271  0.75966191  1
  O  O180  1  0.48976008  0.13789241  0.23222851  1
  O  O181  1  0.50862334  0.13356489  0.74388587  1
  O  O182  1  0.49294719  0.63386603  0.23437736  1
  O  O183  1  0.49805219  0.63558407  0.76877473  1
  O  O184  1  1.01239741  0.14869393  0.25372753  1
  O  O185  1  1.00843264  0.14451404  0.76619628  1
  O  O186  1  1.01225268  0.64774029  0.23235859  1
  O  O187  1  1.00360774  0.64396181  0.74862607  1
  O  O188  1  0.42405209  0.20202774  0.03765450  1
  O  O189  1  0.36512053  0.25488805  0.49536703  1
  O  O190  1  0.36348345  0.76355523  -0.00776751  1
  O  O191  1  0.38034207  0.77407309  0.50900393  1
  O  O192  1  0.86383473  0.23742573  -0.00232263  1
  O  O193  1  0.85631477  0.22334365  0.48327280  1
  O  O194  1  0.85186617  0.73009293  0.01579611  1
  O  O195  1  0.90578867  0.76968442  0.49789817  1
  O  O196  1  0.12975438  0.25665475  0.49043763  1
  O  O197  1  0.10120052  0.22858766  0.99655532  1
  O  O198  1  0.10114804  0.72216930  0.49726336  1
  O  O199  1  0.13341367  0.75216749  0.98971257  1
  O  O200  1  0.62616797  0.23758032  0.48810012  1
  O  O201  1  0.63757234  0.24118923  0.98585730  1
  O  O202  1  0.60477520  0.72780420  0.51119805  1
  O  O203  1  0.60943231  0.73195885  0.98094087  1
  O  O204  1  0.50883827  0.25313954  0.14213450  1
  O  O205  1  0.50888559  0.23492934  0.63849450  1
  O  O206  1  0.49697800  0.73501314  0.11367175  1
  O  O207  1  0.48939279  0.74478871  0.64846355  1
  O  O208  1  1.01174584  0.26662060  0.13312382  1
  O  O209  1  1.00598620  0.26110087  0.65197905  1
  O  O210  1  1.00548022  0.74270635  0.12507940  1
  O  O211  1  0.99355142  0.75805715  0.63958075  1
  O  O212  1  0.01670199  0.25649201  0.37898314  1
  O  O213  1  -0.00591185  0.27338630  0.86659838  1
  O  O214  1  -0.00166711  0.73689605  0.35753726  1
  O  O215  1  0.01875244  0.74593766  0.86437373  1
  O  O216  1  0.50984559  0.24281853  0.35861826  1
  O  O217  1  0.51616897  0.25000408  0.86131120  1
  O  O218  1  0.48599547  0.73923112  0.37225981  1
  O  O219  1  0.49710253  0.76650717  0.86497229  1
  O  O220  1  0.25573678  0.12016213  0.48489640  1
  O  O221  1  0.24124438  0.12467442  0.99533025  1
  O  O222  1  0.21829310  0.61260265  0.48405070  1
  O  O223  1  0.24181116  0.63779574  0.99703814  1
  O  O224  1  0.72992665  0.12622908  0.49920003  1
  O  O225  1  0.74214847  0.13304146  1.01887292  1
  O  O226  1  0.73999489  0.60846883  0.47569665  1
  O  O227  1  0.72845730  0.63329419  1.00716942  1
  O  O228  1  0.23264943  0.37241728  0.00959125  1
  O  O229  1  0.28027251  0.41952898  0.49895894  1
  O  O230  1  0.25604586  0.87575962  0.00516501  1
  O  O231  1  0.26610719  0.88531999  0.50551323  1
  O  O232  1  0.75230703  0.36555251  0.01030328  1
  O  O233  1  0.74481188  0.35585583  0.50546953  1
  O  O234  1  0.76602124  0.88872160  0.00792852  1
  O  O235  1  0.74554528  0.90608553  0.51554789  1
  O  O236  1  0.12111616  0.48463264  0.24786684  1
  O  O237  1  0.14017572  0.49737362  0.75990168  1
  O  O238  1  0.13661162  0.99117472  0.26389491  1
  O  O239  1  0.11893700  0.98582937  0.73596033  1
  O  O240  1  0.61548830  0.48481728  0.23951725  1
  O  O241  1  0.62980605  0.47698371  0.73930343  1
  O  O242  1  0.62603771  0.98760711  0.24827977  1
  O  O243  1  0.63553158  0.99266288  0.74406345  1
  O  O244  1  0.36006010  0.01132229  0.26146501  1
  O  O245  1  0.35615744  0.00207698  0.74695221  1
  O  O246  1  0.38364185  0.50912466  0.24366874  1
  O  O247  1  0.35840099  0.48678863  0.77266428  1
  O  O248  1  0.93297425  0.00995698  0.27322450  1
  O  O249  1  0.86011352  -0.00766615  0.74026171  1
  O  O250  1  0.92985350  0.52273687  0.27843175  1
  O  O251  1  0.86549454  0.50124667  0.73262255  1
  O  O252  1  0.13484489  0.36288113  0.36774763  1
  O  O253  1  0.10773224  0.38569837  0.86665128  1
  O  O254  1  0.13862068  0.87455148  0.36901440  1
  O  O255  1  0.12811116  0.86517539  0.87333205  1
  O  O256  1  0.62807800  0.36724094  0.35735618  1
  O  O257  1  0.62261105  0.35891655  0.86174922  1
  O  O258  1  0.61477037  0.87621898  0.35762068  1
  O  O259  1  0.61661657  0.87927214  0.86273724  1
  O  O260  1  0.36931329  0.11873411  0.14229939  1
  O  O261  1  0.39586408  0.11478321  0.62169002  1
  O  O262  1  0.38618345  0.61780824  0.12953145  1
  O  O263  1  0.52035183  0.56448177  0.62044650  1
  O  O264  1  0.87075799  0.12628040  0.16014402  1
  O  O265  1  0.88007211  0.12807072  0.63637231  1
  O  O266  1  0.89455596  0.61690616  0.12158981  1
  O  O267  1  0.86619151  0.63461474  0.60538140  1
  O  O268  1  0.24589725  0.26639776  0.12857416  1
  O  O269  1  0.25946046  0.22583844  0.63210349  1
  O  O270  1  0.24979998  0.76176030  0.11234408  1
  O  O271  1  0.27796638  0.69235359  0.61971170  1
  O  O272  1  0.74739617  0.26488957  0.11325093  1
  O  O273  1  0.74767513  0.25051267  0.60448622  1
  O  O274  1  0.70199111  0.76746629  0.09362570  1
  O  O275  1  0.74583021  0.76619759  0.60298537  1
  O  O276  1  0.24343723  0.24023304  0.37177193  1
  O  O277  1  0.24529667  0.23731746  0.87135536  1
  O  O278  1  0.27206183  0.71691559  0.37833449  1
  O  O279  1  0.24091320  0.74422607  0.88205081  1
  O  O280  1  0.73353014  0.25273757  0.38418503  1
  O  O281  1  0.74629240  0.25719258  0.88731101  1
  O  O282  1  0.76294411  0.78287819  0.40124306  1
  O  O283  1  0.74157768  0.77039278  0.90376250  1
  O  O284  1  0.01027371  0.10713562  0.00010490  1
  O  O285  1  -0.06509372  0.15206195  0.59604196  1
  O  O286  1  0.01560190  0.64386921  0.00753488  1
  O  O287  1  0.00509531  0.60143740  0.49484373  1
  O  O288  1  0.51974990  0.11332651  -0.01514160  1
  O  O289  1  0.50962352  0.13394846  0.51349667  1
  O  O290  1  0.50486389  0.62171286  0.00515762  1
  O  O291  1  0.41535834  0.61814657  0.52246157  1
  O  O292  1  0.47991298  0.37029804  0.50426119  1
  O  O293  1  0.51606266  0.36430071  0.98347893  1
  O  O294  1  0.48490435  0.88635881  0.51055434  1
  O  O295  1  0.49768751  0.88278060  0.99439146  1
  O  O296  1  1.00413376  0.37360993  0.49421976  1
  O  O297  1  1.00554972  0.38302463  0.98838756  1
  O  O298  1  1.01242543  0.89825547  0.48466210  1
  O  O299  1  1.00335053  0.90044522  1.00458371  1
  O  O300  1  0.53513437  0.51461558  0.41332084  1
  O  O301  1  0.50422284  0.47317888  0.86214817  1
  O  O302  1  0.48191679  1.00481417  0.36275962  1
  O  O303  1  0.50859134  0.99208517  0.88530071  1
  O  O304  1  1.00920415  0.47135017  0.38719731  1
  O  O305  1  0.99732783  0.49726159  0.86910667  1
  O  O306  1  1.00681604  1.06847266  0.42756900  1
  O  O307  1  0.92166468  1.05368243  0.86424816  1
  O  O308  1  0.00681302  0.00126819  0.13322161  1
  O  O309  1  0.01350159  -0.00137296  0.61638327  1
  O  O310  1  0.02013208  0.52138536  0.12971371  1
  O  O311  1  -0.00683343  0.48989082  0.61538398  1
  O  O312  1  0.49103570  0.02407305  0.10434653  1
  O  O313  1  0.51280390  0.01412838  0.63889614  1
  O  O314  1  0.51090859  0.50246033  0.11789811  1
  O  O315  1  0.48760828  0.49961923  0.61320578  1
  O  O316  1  0.24221016  0.37296890  0.24657332  1
  O  O317  1  0.23768073  0.38679764  0.76803265  1
  O  O318  1  0.24536204  0.88100762  0.24549521  1
  O  O319  1  0.23534911  0.88758645  0.75274042  1
  O  O320  1  0.73476926  0.36147560  0.23421777  1
  O  O321  1  0.74225428  0.36593171  0.73118359  1
  O  O322  1  0.71786080  0.84970179  0.24042002  1
  O  O323  1  0.73775341  0.86832805  0.74213437  1
  O  O324  1  0.25354016  0.12124084  0.25663655  1
  O  O325  1  0.22586612  0.11004368  0.77226356  1
  O  O326  1  0.26448989  0.62639322  0.24989181  1
  O  O327  1  0.24190930  0.61650444  0.77307327  1
  O  O328  1  0.71928187  0.11950528  0.25177890  1
  O  O329  1  0.75012751  0.11122356  0.74485600  1
  O  O330  1  0.75250841  0.64832161  0.25428451  1
  O  O331  1  0.74478365  0.60701042  0.73198005  1
  O  O332  1  0.36524121  0.12367451  0.36612392  1
  O  O333  1  0.35534726  0.12486346  0.88198588  1
  O  O334  1  0.38768244  0.60497169  0.35533583  1
  O  O335  1  0.36078246  0.62936016  0.88392019  1
  O  O336  1  0.86304953  0.14562883  0.33416680  1
  O  O337  1  0.88352542  0.11389235  0.87832197  1
  O  O338  1  0.84668405  0.64543949  0.37198518  1
  O  O339  1  0.87288306  0.57286713  0.91606549  1
  O  O340  1  0.13161441  0.38472221  0.13802739  1
  O  O341  1  0.12420420  0.37954314  0.65135536  1
  O  O342  1  0.14277689  0.87593358  0.13254547  1
  O  O343  1  0.12723751  0.86383001  0.63115983  1
  O  O344  1  0.62845662  0.38542665  0.12810943  1
  O  O345  1  0.62748929  0.35955557  0.63228719  1
  O  O346  1  0.57970883  0.88546804  0.14839267  1
  O  O347  1  0.62296407  0.88244292  0.63817567  1
  O  O348  1  0.11972877  0.26500973  0.25727543  1
  O  O349  1  0.11890132  0.26738744  0.76573871  1
  O  O350  1  0.13184896  0.76452124  0.25275399  1
  O  O351  1  0.13164095  0.76037188  0.75907271  1
  O  O352  1  0.61478941  0.25870290  0.25468766  1
  O  O353  1  0.63258302  0.25011868  0.75964010  1
  O  O354  1  0.59499880  0.75540630  0.24455731  1
  O  O355  1  0.60627520  0.76526487  0.75026733  1
  O  O356  1  0.38667850  0.24644495  0.25720195  1
  O  O357  1  0.39209787  0.25050760  0.75295911  1
  O  O358  1  0.38273617  0.73236293  0.24964492  1
  O  O359  1  0.38379836  0.75530808  0.75648629  1
  O  O360  1  0.89988429  0.26360197  0.24088935  1
  O  O361  1  0.88552545  0.25000689  0.75262308  1
  O  O362  1  0.89664647  0.77877328  0.24514574  1
  O  O363  1  0.87920743  0.75501692  0.75580716  1
  O  O364  1  0.38983392  0.54724471  0.51399420  1
  O  O365  1  0.38446268  0.50138150  0.99559201  1
  O  O366  1  0.37480017  0.99381418  0.48115901  1
  O  O367  1  0.38568216  0.99373371  0.99732897  1
  O  O368  1  0.89275180  0.49535075  0.49328866  1
  O  O369  1  0.86389205  0.52749262  0.97303625  1
  O  O370  1  0.89302464  1.00673153  0.51464191  1
  O  O371  1  0.88880114  1.00251648  1.01414470  1
  O  O372  1  0.11723337  0.00549266  0.01291044  1
  O  O373  1  0.12477479  0.00768326  0.51867123  1
  O  O374  1  0.12530024  0.52099325  0.00684802  1
  O  O375  1  0.11063853  0.50469081  0.50245865  1
  O  O376  1  0.62749399  0.01189334  -0.00192780  1
  O  O377  1  0.61794947  0.00995093  0.50519993  1
  O  O378  1  0.62940745  0.50309753  0.00515545  1
  O  O379  1  0.58874579  0.49967617  0.46273531  1
  O  O380  1  0.35762211  0.37879901  0.11766911  1
  O  O381  1  0.37248638  0.37124658  0.61365833  1
  O  O382  1  0.36899134  0.87943498  0.11009204  1
  O  O383  1  0.37244995  0.87752126  0.62384466  1
  O  O384  1  0.86101253  0.39662961  0.13677682  1
  O  O385  1  0.86277154  0.36070112  0.61908677  1
  O  O386  1  0.88952035  0.86671975  0.10627476  1
  O  O387  1  0.85871725  0.87681511  0.62825913  1
  O  O388  1  0.14068211  0.14010656  0.37178301  1
  O  O389  1  0.14042085  0.10999097  0.89817978  1
  O  O390  1  0.12470216  0.62391691  0.35217349  1
  O  O391  1  0.13282619  0.63598317  0.88954162  1
  O  O392  1  0.61089878  0.12620073  0.38556313  1
  O  O393  1  0.63283441  0.13535028  0.88386733  1
  O  O394  1  0.64753188  0.62765436  0.35963042  1
  O  O395  1  0.62138083  0.60855425  0.88459336  1
