# generated using pymatgen
data_V35Zn35O128
_symmetry_space_group_name_H-M   'P 1'
_cell_length_a   16.85917894
_cell_length_b   16.89916034
_cell_length_c   16.87515521
_cell_angle_alpha   90.01455508
_cell_angle_beta   90.02203793
_cell_angle_gamma   89.89748857
_symmetry_Int_Tables_number   1
_chemical_formula_structural   V35Zn35O128
_chemical_formula_sum   'V70 Zn70 O256'
_cell_volume   4807.82422784
_cell_formula_units_Z   2
loop_
 _symmetry_equiv_pos_site_id
 _symmetry_equiv_pos_as_xyz
  1  'x, y, z'
loop_
 _atom_site_type_symbol
 _atom_site_label
 _atom_site_symmetry_multiplicity
 _atom_site_fract_x
 _atom_site_fract_y
 _atom_site_fract_z
 _atom_site_occupancy
  V  V0  1  0.88160612  0.11793983  0.73811011  1
  V  V1  1  -0.00443272  0.49794622  0.49951002  1
  V  V2  1  0.49347955  0.87481285  0.38034413  1
  V  V3  1  0.74947103  0.11634271  0.87236154  1
  V  V4  1  0.50019623  0.62863513  0.13327876  1
  V  V5  1  0.11836347  0.49450060  0.10677575  1
  V  V6  1  0.25131927  0.64410735  0.88770306  1
  V  V7  1  0.27746530  0.12574310  0.86863933  1
  V  V8  1  0.10968811  0.23741766  0.85763577  1
  V  V9  1  0.37185927  0.49746552  0.87659482  1
  V  V10  1  0.62296886  0.50233230  0.61945083  1
  V  V11  1  0.01430667  0.87274548  0.87837998  1
  V  V12  1  0.62197330  -0.00784368  0.12344747  1
  V  V13  1  0.61901189  0.37820981  0.26043812  1
  V  V14  1  0.39160589  0.88901448  -0.00212364  1
  V  V15  1  -0.01287497  0.12394809  0.11870279  1
  V  V16  1  0.76931734  0.50554476  0.25513518  1
  V  V17  1  0.24809098  -0.01178653  0.75716436  1
  V  V18  1  0.76147741  0.61361680  0.85924863  1
  V  V19  1  0.50060617  0.14848035  0.63471305  1
  V  V20  1  0.62216413  0.88022839  0.74846485  1
  V  V21  1  0.86237381  0.74460875  0.62584420  1
  V  V22  1  0.86649077  0.73379758  0.11747445  1
  V  V23  1  0.01068365  0.75482717  0.75105698  1
  V  V24  1  0.34543784  0.62620498  0.24725495  1
  V  V25  1  0.75991514  0.11664541  0.37169980  1
  V  V26  1  0.12954405  0.38381776  0.25524102  1
  V  V27  1  0.49501339  0.13537267  0.13218592  1
  V  V28  1  0.12475980  0.00175013  0.11395718  1
  V  V29  1  0.62026893  0.86633382  0.24634284  1
  V  V30  1  0.62621655  0.74074739  0.39161536  1
  V  V31  1  0.26464846  0.36577491  0.11153093  1
  V  V32  1  0.12445267  0.74501499  0.38114905  1
  V  V33  1  0.74500209  0.88325452  0.61522603  1
  V  V34  1  0.75455654  0.35394015  0.12416568  1
  V  V35  1  0.11776567  0.87507309  0.24449042  1
  V  V36  1  0.61507028  0.12187688  0.49440945  1
  V  V37  1  0.50012918  0.49295506  0.00133530  1
  V  V38  1  0.61929495  0.26161724  0.37703392  1
  V  V39  1  0.89052931  0.25087214  0.61896408  1
  V  V40  1  0.89236278  0.36263389  0.00076381  1
  V  V41  1  0.13896211  0.13389143  -0.00004780  1
  V  V42  1  0.84687410  0.87675889  0.00478329  1
  V  V43  1  0.62769838  0.74983554  0.87823866  1
  V  V44  1  0.00325339  0.39321419  0.85679031  1
  V  V45  1  0.26408887  0.74960235  0.51517638  1
  V  V46  1  0.75558685  -0.00353208  0.24903141  1
  V  V47  1  0.01178400  0.62898089  0.62326657  1
  V  V48  1  0.25157719  0.28083803  0.49900530  1
  V  V49  1  0.87605275  0.88466323  0.48860355  1
  V  V50  1  0.64012386  0.26206499  0.85482289  1
  V  V51  1  0.87365190  -0.00961672  0.87318531  1
  V  V52  1  0.36840506  0.74513805  0.11345826  1
  V  V53  1  0.49801504  0.74556990  0.74163257  1
  V  V54  1  0.63249201  0.49760684  0.12754110  1
  V  V55  1  0.60827355  0.00195391  0.62068198  1
  V  V56  1  0.33629374  0.51357697  0.37845144  1
  V  V57  1  -0.00986344  0.73558127  0.24345433  1
  V  V58  1  0.75933952  0.25505262  0.50326051  1
  V  V59  1  0.62571619  0.14069037  0.00557242  1
  V  V60  1  0.63529375  0.62574815  -0.00077903  1
  V  V61  1  0.24772962  0.86870700  0.11140297  1
  V  V62  1  0.14353102  0.47489671  0.63337320  1
  V  V63  1  0.37294427  0.62772808  0.74484844  1
  V  V64  1  0.76730875  0.63215712  0.38104870  1
  V  V65  1  -0.00868125  0.24133435  0.24706634  1
  V  V66  1  0.26016763  0.00063700  0.25514477  1
  V  V67  1  0.13241084  0.23286547  0.37816927  1
  V  V68  1  0.37217894  0.27037560  0.63014528  1
  V  V69  1  0.50656166  0.37062882  0.86172458  1
  Zn  Zn70  1  -0.00918838  0.36428806  0.38211438  1
  Zn  Zn71  1  0.12847558  0.60370778  -0.01093870  1
  Zn  Zn72  1  0.47652328  0.38341193  0.38850046  1
  Zn  Zn73  1  -0.00813175  0.88720377  0.36917047  1
  Zn  Zn74  1  0.24735132  0.88003031  0.63268168  1
  Zn  Zn75  1  0.36618187  0.14625891  0.25451366  1
  Zn  Zn76  1  0.18972085  0.18990696  0.19103752  1
  Zn  Zn77  1  0.21130457  0.19089823  0.69440264  1
  Zn  Zn78  1  0.17171670  0.68798801  0.17072024  1
  Zn  Zn79  1  0.19446543  0.69262256  0.69263966  1
  Zn  Zn80  1  0.67521657  0.18267553  0.19992468  1
  Zn  Zn81  1  0.69690693  0.18437334  0.68491767  1
  Zn  Zn82  1  0.69409323  0.68309110  0.18736068  1
  Zn  Zn83  1  0.69154321  0.68729924  0.69219229  1
  Zn  Zn84  1  0.31150639  0.32416757  0.31038542  1
  Zn  Zn85  1  0.30710238  0.31314989  0.82321506  1
  Zn  Zn86  1  0.30832109  0.80711002  0.30343790  1
  Zn  Zn87  1  0.31535125  0.81379292  0.81787072  1
  Zn  Zn88  1  0.80815722  0.30703440  0.30895250  1
  Zn  Zn89  1  0.83496395  0.29894091  0.81547214  1
  Zn  Zn90  1  0.80775259  0.80998480  0.30516451  1
  Zn  Zn91  1  0.80301196  0.80588943  0.80566522  1
  Zn  Zn92  1  0.16554990  0.44686112  0.44242255  1
  Zn  Zn93  1  0.19071492  0.41448907  0.92737611  1
  Zn  Zn94  1  0.21111421  0.90542699  0.42202691  1
  Zn  Zn95  1  0.19708335  0.94478907  0.93596989  1
  Zn  Zn96  1  0.82326594  0.43823882  0.43452407  1
  Zn  Zn97  1  0.69768070  0.43602838  0.94198859  1
  Zn  Zn98  1  0.67904751  0.93488157  0.43284355  1
  Zn  Zn99  1  0.63817383  0.95387713  0.92362371  1
  Zn  Zn100  1  0.31541800  0.06443734  0.06794424  1
  Zn  Zn101  1  0.37945507  0.03307250  0.66133195  1
  Zn  Zn102  1  0.30519997  0.54766381  0.06511090  1
  Zn  Zn103  1  0.29823248  0.56958574  0.56150953  1
  Zn  Zn104  1  0.80124889  0.06125994  0.05676804  1
  Zn  Zn105  1  0.80302285  0.06097476  0.55739549  1
  Zn  Zn106  1  0.82388061  0.54957780  0.04873643  1
  Zn  Zn107  1  0.81549682  0.56869650  0.56372172  1
  Zn  Zn108  1  0.43372787  0.44296392  0.20134692  1
  Zn  Zn109  1  0.43246651  0.44255585  0.69017824  1
  Zn  Zn110  1  0.44348337  0.93414509  0.18152676  1
  Zn  Zn111  1  0.44965874  0.94258282  0.82899951  1
  Zn  Zn112  1  0.94239523  0.42504673  0.18243802  1
  Zn  Zn113  1  0.94239374  0.43334244  0.67443764  1
  Zn  Zn114  1  0.93464243  0.94266978  0.17954633  1
  Zn  Zn115  1  0.92561948  0.92806627  0.69820588  1
  Zn  Zn116  1  0.07316592  0.06368412  0.30345320  1
  Zn  Zn117  1  0.06205330  0.05657472  0.81261547  1
  Zn  Zn118  1  0.06314955  0.56528864  0.31164678  1
  Zn  Zn119  1  0.06731279  0.57098269  0.80383633  1
  Zn  Zn120  1  0.51945284  0.07738504  0.33085003  1
  Zn  Zn121  1  0.56090662  0.07482627  0.81219400  1
  Zn  Zn122  1  0.57645584  0.56814112  0.30809123  1
  Zn  Zn123  1  0.56430904  0.56455079  0.81373520  1
  Zn  Zn124  1  0.41221620  0.20608208  0.41126064  1
  Zn  Zn125  1  0.44972451  0.19735870  0.94591600  1
  Zn  Zn126  1  0.42721974  0.70227806  0.41476641  1
  Zn  Zn127  1  0.44565595  0.68607035  0.93571305  1
  Zn  Zn128  1  0.94138064  0.17639516  0.43253754  1
  Zn  Zn129  1  0.93380265  0.18337642  0.94448911  1
  Zn  Zn130  1  0.94072856  0.69951529  0.44208145  1
  Zn  Zn131  1  0.93041775  0.69687796  0.93565230  1
  Zn  Zn132  1  0.07117343  0.30708840  0.06841900  1
  Zn  Zn133  1  0.06465732  0.31007077  0.56369413  1
  Zn  Zn134  1  0.04515160  0.81939767  0.05933982  1
  Zn  Zn135  1  0.04998746  0.81704893  0.55723575  1
  Zn  Zn136  1  0.56269626  0.31427228  0.06570324  1
  Zn  Zn137  1  0.56281937  0.31735057  0.55119980  1
  Zn  Zn138  1  0.56584133  0.80679403  0.06320074  1
  Zn  Zn139  1  0.55642953  0.80700518  0.56111232  1
  O  O140  1  0.13247193  0.12006336  0.11223483  1
  O  O141  1  0.12657694  0.11502078  0.61613637  1
  O  O142  1  0.12983275  0.59989577  0.11260345  1
  O  O143  1  0.11173473  0.63584225  0.62736039  1
  O  O144  1  0.62279911  0.12563312  0.11452221  1
  O  O145  1  0.62343471  0.12257306  0.61566936  1
  O  O146  1  0.61770982  0.61874435  0.12114986  1
  O  O147  1  0.62806718  0.60879406  0.62360038  1
  O  O148  1  0.36831260  0.41168373  0.36563500  1
  O  O149  1  0.39413736  0.38816434  0.87360568  1
  O  O150  1  0.39431134  0.85368813  0.36254550  1
  O  O151  1  0.38192352  0.87101177  0.89391801  1
  O  O152  1  0.88080857  0.37359966  0.36370174  1
  O  O153  1  0.90176048  0.36307523  0.88253025  1
  O  O154  1  0.86809486  0.86763286  0.38590571  1
  O  O155  1  0.85815676  0.88470541  0.87612827  1
  O  O156  1  0.24563615  -0.01303622  0.35517816  1
  O  O157  1  0.25868458  0.01464067  0.87096929  1
  O  O158  1  0.23664011  0.50839019  0.37530298  1
  O  O159  1  0.27309319  0.50360698  0.88760987  1
  O  O160  1  0.73808333  0.00979320  0.36628466  1
  O  O161  1  0.74402143  0.01421715  0.87400846  1
  O  O162  1  0.76341731  0.51179496  0.36227221  1
  O  O163  1  0.73799240  0.51522766  0.87443467  1
  O  O164  1  0.23463000  0.47969205  0.12322402  1
  O  O165  1  0.24301927  0.49188126  0.62231329  1
  O  O166  1  0.24148480  0.98861596  0.12902258  1
  O  O167  1  0.26643339  0.99525732  0.64872757  1
  O  O168  1  0.74058216  0.49568209  0.13104186  1
  O  O169  1  0.72691982  0.50289742  0.61392134  1
  O  O170  1  0.73769496  1.01421560  0.14136260  1
  O  O171  1  0.73094140  0.98824262  0.62076126  1
  O  O172  1  0.01120904  0.35202723  0.24402705  1
  O  O173  1  -0.00369740  0.37894517  0.75810921  1
  O  O174  1  0.00692347  0.88232285  0.24785673  1
  O  O175  1  -0.00140079  0.86888793  0.76416064  1
  O  O176  1  0.51594336  0.40123123  0.27421339  1
  O  O177  1  0.50413236  0.38324398  0.76331920  1
  O  O178  1  0.51552358  0.87299466  0.25058905  1
  O  O179  1  0.51537224  0.85984610  0.75338480  1
  O  O180  1  0.52148134  0.13268709  0.22994573  1
  O  O181  1  0.51628451  0.14102439  0.73428423  1
  O  O182  1  0.50341463  0.61848609  0.23358127  1
  O  O183  1  0.48964141  0.63607323  0.75863949  1
  O  O184  1  1.00995339  0.13253572  0.23596432  1
  O  O185  1  0.98083794  0.10859454  0.74951494  1
  O  O186  1  0.99846524  0.63703951  0.24467196  1
  O  O187  1  0.99752928  0.64404097  0.74064776  1
  O  O188  1  0.40467003  0.26344117  0.02299052  1
  O  O189  1  0.35669224  0.25595641  0.49840916  1
  O  O190  1  0.38214202  0.75216696  0.01029248  1
  O  O191  1  0.36389745  0.74711402  0.49855290  1
  O  O192  1  0.86702808  0.26230917  -0.00674548  1
  O  O193  1  0.86774572  0.22902940  0.50661843  1
  O  O194  1  0.87045780  0.76534507  0.01046281  1
  O  O195  1  0.88023985  0.76759499  0.51944378  1
  O  O196  1  0.13752663  0.25406634  0.48939498  1
  O  O197  1  0.12893744  0.23563048  0.99432135  1
  O  O198  1  0.10268007  0.75139755  0.47986374  1
  O  O199  1  0.08627259  0.72833315  0.99705613  1
  O  O200  1  0.64031695  0.24416057  0.49650512  1
  O  O201  1  0.62563796  0.24218728  0.99622386  1
  O  O202  1  0.62824685  0.74612806  0.49093076  1
  O  O203  1  0.62314299  0.74242244  0.98681708  1
  O  O204  1  0.49642655  0.23778111  0.11697037  1
  O  O205  1  0.49183845  0.25487638  0.61910342  1
  O  O206  1  0.49317663  0.73210751  0.12054143  1
  O  O207  1  0.50472233  0.74627467  0.64123686  1
  O  O208  1  1.00661663  0.23523391  0.13646140  1
  O  O209  1  0.98926227  0.23334176  0.60518984  1
  O  O210  1  0.98397588  0.75874845  0.13619367  1
  O  O211  1  0.99318387  0.74778895  0.63283657  1
  O  O212  1  0.01334819  0.24073421  0.36818421  1
  O  O213  1  0.00883430  0.22753801  0.86692363  1
  O  O214  1  0.00441467  0.75717224  0.35576668  1
  O  O215  1  -0.00816487  0.76198112  0.86003035  1
  O  O216  1  0.51917328  0.26753795  0.39687561  1
  O  O217  1  0.51670238  0.26528044  0.87346281  1
  O  O218  1  0.52058150  0.74960818  0.36886976  1
  O  O219  1  0.51983572  0.74607020  0.86756544  1
  O  O220  1  0.15920707  0.07259669  0.56570444  1
  O  O221  1  0.24462370  0.11950014  0.99022778  1
  O  O222  1  0.23502614  0.65338318  0.51201288  1
  O  O223  1  0.25285125  0.62219558  0.99113240  1
  O  O224  1  0.73783039  0.12718630  0.48615697  1
  O  O225  1  0.73964976  0.12888204  0.98435542  1
  O  O226  1  0.75755417  0.62081165  0.48034686  1
  O  O227  1  0.73628029  0.61707605  1.00158223  1
  O  O228  1  0.25518406  0.36426202  0.01070961  1
  O  O229  1  0.24695897  0.37860737  0.49864686  1
  O  O230  1  0.26147418  0.87989485  0.00792995  1
  O  O231  1  0.22061259  0.85934612  0.52080739  1
  O  O232  1  0.72941232  0.36456182  0.02617472  1
  O  O233  1  0.76153540  0.35343974  0.49052041  1
  O  O234  1  0.74979213  0.87776093  -0.00350349  1
  O  O235  1  0.74695411  0.87290478  0.51025047  1
  O  O236  1  0.11171656  0.48483983  0.24513457  1
  O  O237  1  0.12237716  0.50866498  0.72654644  1
  O  O238  1  0.13471246  0.99165100  0.23605179  1
  O  O239  1  0.14674232  1.00537838  0.75847147  1
  O  O240  1  0.63852922  0.49524722  0.24486389  1
  O  O241  1  0.62085507  0.50791403  0.72705643  1
  O  O242  1  0.63174888  0.98637530  0.23626874  1
  O  O243  1  0.62011398  0.98422896  0.73856049  1
  O  O244  1  0.35896328  -0.01529287  0.24023637  1
  O  O245  1  0.37004489  -0.01317426  0.76275123  1
  O  O246  1  0.37350157  0.52340911  0.25940150  1
  O  O247  1  0.38605371  0.51485136  0.76773628  1
  O  O248  1  0.85586659  -0.00601750  0.24705909  1
  O  O249  1  0.86383450  0.00480175  0.76268471  1
  O  O250  1  0.86623194  0.49468005  0.23506329  1
  O  O251  1  0.83459350  0.46080841  0.73901468  1
  O  O252  1  0.11101727  0.37357048  0.36529696  1
  O  O253  1  0.10010395  0.34605778  0.88311695  1
  O  O254  1  0.11706768  0.86774549  0.35663877  1
  O  O255  1  0.11263765  0.88031742  0.88851125  1
  O  O256  1  0.64206403  0.36373408  0.37182351  1
  O  O257  1  0.62311645  0.36822791  0.87717952  1
  O  O258  1  0.62227993  0.85882704  0.36354874  1
  O  O259  1  0.64095857  0.85905485  0.85792139  1
  O  O260  1  0.39085855  0.11818289  0.13718502  1
  O  O261  1  0.39687151  0.13999653  0.62314715  1
  O  O262  1  0.38323091  0.62287129  0.12846244  1
  O  O263  1  0.36797378  0.61536439  0.64638060  1
  O  O264  1  0.88845191  0.11624163  0.11322277  1
  O  O265  1  0.86734494  0.11450489  0.63586672  1
  O  O266  1  0.87579270  0.63467794  0.10420935  1
  O  O267  1  0.87568823  0.64203450  0.62712379  1
  O  O268  1  0.25366601  0.26654819  0.14036348  1
  O  O269  1  0.26024109  0.24724365  0.60694531  1
  O  O270  1  0.25246670  0.75833086  0.12022505  1
  O  O271  1  0.25615253  0.76167343  0.62428875  1
  O  O272  1  0.74416160  0.25702006  0.14426556  1
  O  O273  1  0.76056573  0.24200552  0.60846642  1
  O  O274  1  0.76785776  0.74955405  0.13212993  1
  O  O275  1  0.75687052  0.75606440  0.62461567  1
  O  O276  1  0.23980967  0.25720550  0.38829731  1
  O  O277  1  0.23810601  0.22594229  0.86994832  1
  O  O278  1  0.23285746  0.77101233  0.39023771  1
  O  O279  1  0.25475129  0.74337653  0.88675520  1
  O  O280  1  0.74239751  0.23394417  0.38037472  1
  O  O281  1  0.74412477  0.25146886  0.87010179  1
  O  O282  1  0.73910261  0.74062935  0.36655343  1
  O  O283  1  0.73611855  0.73308719  0.86635705  1
  O  O284  1  0.01311882  0.12997787  0.01519276  1
  O  O285  1  0.00000994  0.09303201  0.49637176  1
  O  O286  1  0.02681087  0.66752758  -0.00158519  1
  O  O287  1  -0.00825932  0.62396212  0.51779142  1
  O  O288  1  0.52065387  0.12270335  0.00531546  1
  O  O289  1  0.51674905  0.13869872  0.51259033  1
  O  O290  1  0.51343397  0.61419911  0.00764236  1
  O  O291  1  0.49820011  0.59301776  0.45246442  1
  O  O292  1  0.51056442  0.39584726  0.49373865  1
  O  O293  1  0.51121758  0.39082936  0.99565849  1
  O  O294  1  0.50526449  0.86527024  0.48133301  1
  O  O295  1  0.49103173  0.87594860  1.01204748  1
  O  O296  1  1.00275405  0.39177964  0.50109014  1
  O  O297  1  0.99368129  0.36730648  1.00689518  1
  O  O298  1  0.98196480  0.88186834  0.49061541  1
  O  O299  1  0.97937490  0.87123253  0.97808734  1
  O  O300  1  0.50212890  0.53872422  0.39969794  1
  O  O301  1  0.50534788  0.49407016  0.88693951  1
  O  O302  1  0.51126566  0.97378225  0.37068008  1
  O  O303  1  0.53667517  0.99180945  0.87965490  1
  O  O304  1  1.00904561  0.51424472  0.39955124  1
  O  O305  1  1.01366045  0.49186304  0.87047391  1
  O  O306  1  1.00024483  1.01447056  0.38251323  1
  O  O307  1  0.98194141  0.98497934  0.86868862  1
  O  O308  1  0.01326082  0.01555920  0.13106283  1
  O  O309  1  0.02688682  -0.03191711  0.63284862  1
  O  O310  1  0.01775764  0.48410076  0.12126281  1
  O  O311  1  -0.00440297  0.51901321  0.62423365  1
  O  O312  1  0.51734774  0.01128866  0.12770504  1
  O  O313  1  0.50643441  0.02150856  0.62738250  1
  O  O314  1  0.50898865  0.50557727  0.11760984  1
  O  O315  1  0.51727849  0.50265940  0.62944945  1
  O  O316  1  0.23110752  0.37877724  0.25481326  1
  O  O317  1  0.22774011  0.39086503  0.81916386  1
  O  O318  1  0.23645753  0.87643940  0.23464084  1
  O  O319  1  0.24758456  0.88122006  0.75635865  1
  O  O320  1  0.74313279  0.38536269  0.24194465  1
  O  O321  1  0.78911067  0.40304150  0.75467321  1
  O  O322  1  0.73723629  0.88907316  0.25687248  1
  O  O323  1  0.73112026  0.86450858  0.72955425  1
  O  O324  1  0.25364398  0.10593119  0.24226371  1
  O  O325  1  0.26579335  0.11336677  0.76132661  1
  O  O326  1  0.24753535  0.62458530  0.23511175  1
  O  O327  1  0.26698761  0.63766469  0.76716672  1
  O  O328  1  0.73855574  0.11418563  0.26580866  1
  O  O329  1  0.75924425  0.12846130  0.76510676  1
  O  O330  1  0.75254491  0.60969023  0.25286316  1
  O  O331  1  0.75916407  0.62264003  0.75781948  1
  O  O332  1  0.41145567  0.10840957  0.35667787  1
  O  O333  1  0.37586614  0.13692620  0.88168186  1
  O  O334  1  0.35733868  0.63155835  0.35453342  1
  O  O335  1  0.37022575  0.61825481  0.87485088  1
  O  O336  1  0.85858060  0.11926375  0.37450786  1
  O  O337  1  0.86525321  0.11308131  0.87278698  1
  O  O338  1  0.86702184  0.64524241  0.37126028  1
  O  O339  1  0.85887480  0.62392826  0.88994047  1
  O  O340  1  0.13516874  0.37548744  0.13607108  1
  O  O341  1  0.12626999  0.37421564  0.63435938  1
  O  O342  1  0.12615294  0.88127902  0.12104096  1
  O  O343  1  0.08337652  0.91752731  0.62014869  1
  O  O344  1  0.62576239  0.38103808  0.14141767  1
  O  O345  1  0.62678700  0.39798871  0.62208806  1
  O  O346  1  0.62212903  0.88425428  0.12868051  1
  O  O347  1  0.62394676  0.88046337  0.62689806  1
  O  O348  1  0.12485715  0.25377068  0.26709537  1
  O  O349  1  0.12439993  0.23071595  0.75825327  1
  O  O350  1  0.10932309  0.75919742  0.24151403  1
  O  O351  1  0.11049204  0.75708676  0.74510998  1
  O  O352  1  0.62264261  0.26188917  0.26789169  1
  O  O353  1  0.63593008  0.25607723  0.75563005  1
  O  O354  1  0.63295366  0.76561064  0.23740940  1
  O  O355  1  0.61648468  0.74951782  0.75509263  1
  O  O356  1  0.38959032  0.24811251  0.29947728  1
  O  O357  1  0.35753325  0.26331983  0.73019237  1
  O  O358  1  0.36733275  0.73407061  0.23028996  1
  O  O359  1  0.38927063  0.74296838  0.75810811  1
  O  O360  1  0.89255823  0.24251139  0.25527927  1
  O  O361  1  0.87493325  0.23113601  0.73128588  1
  O  O362  1  0.88295901  0.75399647  0.23645096  1
  O  O363  1  0.88279345  0.76722027  0.73027923  1
  O  O364  1  0.35929696  0.52783837  0.47545435  1
  O  O365  1  0.39441811  0.50671761  0.99239704  1
  O  O366  1  0.38369139  0.97035448  0.52583130  1
  O  O367  1  0.37987575  0.98793319  1.00896069  1
  O  O368  1  0.88628006  0.49778548  0.51055421  1
  O  O369  1  0.85219805  0.45972355  0.99112961  1
  O  O370  1  0.86240566  0.98412188  0.49900851  1
  O  O371  1  0.86222418  0.99185176  0.98171288  1
  O  O372  1  0.12866676  0.00991541  0.00834020  1
  O  O373  1  0.03082438  0.03056652  0.46234067  1
  O  O374  1  0.12720452  0.48401367  0.00199872  1
  O  O375  1  0.10879455  0.50190912  0.52710525  1
  O  O376  1  0.64049743  0.01198617  0.01986827  1
  O  O377  1  0.62339403  0.01465236  0.50385335  1
  O  O378  1  0.62003775  0.50542335  0.01090283  1
  O  O379  1  0.60760240  0.50861041  0.51832742  1
  O  O380  1  0.36271964  0.38731893  0.13602632  1
  O  O381  1  0.38163419  0.36984876  0.61998576  1
  O  O382  1  0.36830308  0.86375502  0.11689580  1
  O  O383  1  0.38141967  0.90474931  0.55901316  1
  O  O384  1  0.86152609  0.36663237  0.11709108  1
  O  O385  1  0.88439701  0.35017599  0.62159586  1
  O  O386  1  0.86947247  0.88602326  0.10527143  1
  O  O387  1  0.85605264  0.87849763  0.61805516  1
  O  O388  1  0.13365734  0.13376386  0.37587629  1
  O  O389  1  0.12208903  0.12429835  0.88971051  1
  O  O390  1  0.12776353  0.64762072  0.35908687  1
  O  O391  1  0.14905934  0.61800998  0.87214999  1
  O  O392  1  0.61677745  0.13676365  0.38645228  1
  O  O393  1  0.63543812  0.14309375  0.87812056  1
  O  O394  1  0.63986859  0.63758812  0.36853670  1
  O  O395  1  0.63265522  0.63177074  0.88020784  1
