# generated using pymatgen
data_V35Zn35O128
_symmetry_space_group_name_H-M   'P 1'
_cell_length_a   16.87200811
_cell_length_b   16.89227188
_cell_length_c   16.90756746
_cell_angle_alpha   90.32726644
_cell_angle_beta   90.08239921
_cell_angle_gamma   90.22432600
_symmetry_Int_Tables_number   1
_chemical_formula_structural   V35Zn35O128
_chemical_formula_sum   'V70 Zn70 O256'
_cell_volume   4818.64675918
_cell_formula_units_Z   2
loop_
 _symmetry_equiv_pos_site_id
 _symmetry_equiv_pos_as_xyz
  1  'x, y, z'
loop_
 _atom_site_type_symbol
 _atom_site_label
 _atom_site_symmetry_multiplicity
 _atom_site_fract_x
 _atom_site_fract_y
 _atom_site_fract_z
 _atom_site_occupancy
  V  V0  1  0.12695055  0.23660879  0.88554657  1
  V  V1  1  0.49185047  0.22445928  0.75316219  1
  V  V2  1  0.25154727  0.87204213  0.11884027  1
  V  V3  1  0.00266638  0.25004051  0.24836836  1
  V  V4  1  0.86986502  0.36714667  -0.00120760  1
  V  V5  1  0.12718766  0.01068017  0.09847999  1
  V  V6  1  0.00575017  0.51086420  0.00641647  1
  V  V7  1  0.62304859  0.62818568  0.49550181  1
  V  V8  1  0.25170099  0.12456270  0.34046508  1
  V  V9  1  0.50100309  0.62663886  0.63695676  1
  V  V10  1  0.00839243  0.74867657  0.73479038  1
  V  V11  1  0.00504240  0.87189452  0.88544648  1
  V  V12  1  0.52485182  0.50390370  -0.00014972  1
  V  V13  1  0.49777170  0.48842473  0.50564442  1
  V  V14  1  0.12143260  0.25708272  0.37630021  1
  V  V15  1  0.13185573  0.12426163  0.49796331  1
  V  V16  1  0.12510077  0.37301852  0.74866540  1
  V  V17  1  0.37338326  0.21477954  0.62921658  1
  V  V18  1  -0.00316764  0.11981389  0.61968200  1
  V  V19  1  0.86846681  0.24513986  0.13272758  1
  V  V20  1  0.13292097  0.63326787  0.50003676  1
  V  V21  1  0.87979411  0.73653602  0.13342705  1
  V  V22  1  0.36646143  0.76147442  0.61229171  1
  V  V23  1  0.26538397  0.37910031  0.12827267  1
  V  V24  1  -0.00638838  -0.00045119  0.49565256  1
  V  V25  1  0.37399846  0.64118262  0.25712650  1
  V  V26  1  -0.00275677  0.24740267  0.74299832  1
  V  V27  1  0.75651078  0.72184391  -0.01274327  1
  V  V28  1  0.37175780  0.86325623  -0.00846531  1
  V  V29  1  0.11438519  0.50835753  0.62783850  1
  V  V30  1  0.74770282  0.12548489  0.88041421  1
  V  V31  1  0.37058822  0.02072832  0.87894883  1
  V  V32  1  0.74694194  0.49504598  0.74187787  1
  V  V33  1  0.26762302  0.25070152  0.00103374  1
  V  V34  1  0.88310186  -0.00412114  0.88558200  1
  V  V35  1  -0.00443563  0.87026603  0.36236744  1
  V  V36  1  0.50311964  0.00523580  0.00668842  1
  V  V37  1  0.36466264  0.50755916  0.89162029  1
  V  V38  1  0.26304161  0.36583802  0.62334410  1
  V  V39  1  0.75058353  0.87681404  0.10543755  1
  V  V40  1  0.63012901  0.51903404  0.14787949  1
  V  V41  1  0.87496663  0.51736243  0.87642956  1
  V  V42  1  0.13025766  0.87750604  0.73745140  1
  V  V43  1  0.14366514  0.63786406  -0.00793053  1
  V  V44  1  0.72053416  -0.00678420  0.23972885  1
  V  V45  1  0.49367824  0.14529373  0.14047499  1
  V  V46  1  0.88096992  0.63226655  0.73052005  1
  V  V47  1  0.00001224  0.37503369  0.87632698  1
  V  V48  1  0.74955683  -0.00337485  0.74548791  1
  V  V49  1  -0.00328754  0.49753572  0.48516774  1
  V  V50  1  0.87431116  0.86217227  0.49512810  1
  V  V51  1  0.75529226  0.86426542  0.62878772  1
  V  V52  1  0.48522298  0.37709391  0.87057641  1
  V  V53  1  0.86207214  0.37384515  0.51175228  1
  V  V54  1  0.25516840  0.50833571  0.75363958  1
  V  V55  1  -0.00070613  0.12028460  0.11207769  1
  V  V56  1  0.61594916  0.73896027  0.86388792  1
  V  V57  1  0.40558898  -0.02799057  0.37735533  1
  V  V58  1  0.75478870  0.23492044  0.52306704  1
  V  V59  1  0.74271106  0.37586176  0.13384884  1
  V  V60  1  0.12344058  0.90069602  0.24392909  1
  V  V61  1  0.24634260  0.01244372  0.74954520  1
  V  V62  1  0.63194956  0.26149898  0.87277417  1
  V  V63  1  0.36871996  0.48154946  0.37839411  1
  V  V64  1  0.86528751  0.00751714  0.35736109  1
  V  V65  1  0.61041572  0.11919293  0.50042506  1
  V  V66  1  0.87393595  0.12504966  0.74327059  1
  V  V67  1  0.12521226  0.49732635  0.14073964  1
  V  V68  1  0.13025304  0.74123310  0.35600970  1
  V  V69  1  0.61324257  -0.00258156  0.62444901  1
  Zn  Zn70  1  -0.02128102  0.37748881  0.36747411  1
  Zn  Zn71  1  0.38637288  0.64803673  0.76402112  1
  Zn  Zn72  1  0.75056115  0.15386238  0.34458189  1
  Zn  Zn73  1  0.74789318  0.74048023  0.50332418  1
  Zn  Zn74  1  0.62097867  0.24282603  0.37208970  1
  Zn  Zn75  1  0.62730934  0.12848845  0.00424623  1
  Zn  Zn76  1  0.18364535  0.19982627  0.17494077  1
  Zn  Zn77  1  0.18192918  0.18629485  0.68434622  1
  Zn  Zn78  1  0.18709858  0.68121004  0.17423360  1
  Zn  Zn79  1  0.22517254  0.72193024  0.72426120  1
  Zn  Zn80  1  0.67576258  0.18390499  0.18818301  1
  Zn  Zn81  1  0.67651934  0.18408191  0.69132150  1
  Zn  Zn82  1  0.64056621  0.73145077  0.12034948  1
  Zn  Zn83  1  0.68923969  0.67729572  0.70199556  1
  Zn  Zn84  1  0.29000464  0.33453893  0.32840075  1
  Zn  Zn85  1  0.30886167  0.30813328  0.81173672  1
  Zn  Zn86  1  0.30772190  0.81885190  0.31391693  1
  Zn  Zn87  1  0.35066757  0.85779042  0.77453201  1
  Zn  Zn88  1  0.77935608  0.32727209  0.33112014  1
  Zn  Zn89  1  0.81280958  0.31269736  0.80646102  1
  Zn  Zn90  1  0.81427368  0.82534130  0.29180603  1
  Zn  Zn91  1  0.81810343  0.80803675  0.81574038  1
  Zn  Zn92  1  0.18746639  0.43277351  0.44852129  1
  Zn  Zn93  1  0.18898209  0.43255184  0.94259559  1
  Zn  Zn94  1  0.17990995  0.94742533  0.41668404  1
  Zn  Zn95  1  0.19164499  0.93433369  0.92850160  1
  Zn  Zn96  1  0.67412505  0.43774076  0.57887173  1
  Zn  Zn97  1  0.69549642  0.43938845  0.93008971  1
  Zn  Zn98  1  0.68704296  0.93659181  0.44068218  1
  Zn  Zn99  1  0.69104205  0.93641527  0.92473148  1
  Zn  Zn100  1  0.31409297  0.06994531  0.06705512  1
  Zn  Zn101  1  0.28600372  -0.00478446  0.53478698  1
  Zn  Zn102  1  0.30353325  0.57484216  0.07733591  1
  Zn  Zn103  1  0.31348714  0.56251891  0.57435416  1
  Zn  Zn104  1  0.80839875  0.06093570  0.06589034  1
  Zn  Zn105  1  0.81411596  0.05155163  0.56093932  1
  Zn  Zn106  1  0.81230725  0.55881270  0.06858838  1
  Zn  Zn107  1  0.81457359  0.56302295  0.55772720  1
  Zn  Zn108  1  0.42656929  0.48592027  0.16988558  1
  Zn  Zn109  1  0.44442135  0.43916531  0.68972499  1
  Zn  Zn110  1  0.42994870  0.95706049  0.18621291  1
  Zn  Zn111  1  0.40123373  0.98970127  0.65670798  1
  Zn  Zn112  1  0.93928481  0.43982148  0.18917776  1
  Zn  Zn113  1  0.93174452  0.43711558  0.69041161  1
  Zn  Zn114  1  0.93537996  0.93217313  0.17277600  1
  Zn  Zn115  1  0.93872060  0.93243481  0.68575298  1
  Zn  Zn116  1  0.05052849  0.07417631  0.31037647  1
  Zn  Zn117  1  0.06460354  0.05788339  0.81070723  1
  Zn  Zn118  1  0.20030652  0.56311260  0.31513447  1
  Zn  Zn119  1  0.06488333  0.56887138  0.81535050  1
  Zn  Zn120  1  0.55459793  0.06351133  0.31698047  1
  Zn  Zn121  1  0.56326753  0.05169552  0.81951377  1
  Zn  Zn122  1  0.54900043  0.56132435  0.32159322  1
  Zn  Zn123  1  0.56581354  0.56126742  0.81812033  1
  Zn  Zn124  1  0.40153271  0.13967500  0.46145039  1
  Zn  Zn125  1  0.44075809  0.18880262  0.94182181  1
  Zn  Zn126  1  0.40793717  0.65101851  0.45635766  1
  Zn  Zn127  1  0.44162113  0.68401431  0.94598669  1
  Zn  Zn128  1  0.92572863  0.19095824  0.43613966  1
  Zn  Zn129  1  0.93697100  0.18630263  0.93223190  1
  Zn  Zn130  1  0.95279528  0.68449496  0.43572428  1
  Zn  Zn131  1  0.94520802  0.69864793  0.94337872  1
  Zn  Zn132  1  0.06132743  0.31838575  0.06476734  1
  Zn  Zn133  1  0.05800872  0.31443471  0.56035010  1
  Zn  Zn134  1  0.05953035  0.81147949  0.06534799  1
  Zn  Zn135  1  0.18855842  0.81897518  0.55569952  1
  Zn  Zn136  1  0.55673864  0.31427460  0.05678082  1
  Zn  Zn137  1  0.55326402  0.29905067  0.56991680  1
  Zn  Zn138  1  0.58487238  0.84311612  0.00609466  1
  Zn  Zn139  1  0.57814787  0.79157685  0.60106411  1
  O  O140  1  0.11216209  0.11864608  0.12098556  1
  O  O141  1  0.10997321  0.13048005  0.60819786  1
  O  O142  1  0.12929045  0.60517605  0.10605632  1
  O  O143  1  0.12389818  0.60842699  0.61762223  1
  O  O144  1  0.60897617  0.13464441  0.11564017  1
  O  O145  1  0.62432090  0.10618583  0.61873669  1
  O  O146  1  0.63489450  0.61736188  0.13858917  1
  O  O147  1  0.60712814  0.63084255  0.63013165  1
  O  O148  1  0.36391198  0.38116463  0.39965987  1
  O  O149  1  0.38122984  0.38627052  0.87183244  1
  O  O150  1  0.37876653  0.87452441  0.38304095  1
  O  O151  1  0.36595837  0.87602825  0.89151914  1
  O  O152  1  0.86775592  0.36475219  0.39833113  1
  O  O153  1  0.88407129  0.37508846  0.88388734  1
  O  O154  1  0.87922755  0.88051879  0.37350254  1
  O  O155  1  0.88476610  0.89027274  0.86821738  1
  O  O156  1  0.24271534  0.02524666  0.36273906  1
  O  O157  1  0.25883578  0.00246623  0.86496949  1
  O  O158  1  0.25527466  0.48577590  0.37629099  1
  O  O159  1  0.25736452  0.49030351  0.86575055  1
  O  O160  1  0.75757930  -0.01331038  0.35688235  1
  O  O161  1  0.76079922  0.00544819  0.86370826  1
  O  O162  1  0.67052319  0.41661491  0.37581756  1
  O  O163  1  0.77299850  0.49795453  0.86746936  1
  O  O164  1  0.23319886  0.48727134  0.11720004  1
  O  O165  1  0.24080194  0.48657525  0.63911147  1
  O  O166  1  0.22999579  0.99912230  0.11626141  1
  O  O167  1  0.27708086  0.99354395  0.64996936  1
  O  O168  1  0.73380137  0.48843774  0.11815604  1
  O  O169  1  0.75012486  0.50539199  0.63648149  1
  O  O170  1  0.74658454  0.98946459  0.12912046  1
  O  O171  1  0.74683889  0.98943672  0.63216921  1
  O  O172  1  -0.01080129  0.35749960  0.25182946  1
  O  O173  1  0.00294770  0.36670539  0.75729968  1
  O  O174  1  0.00988443  0.88094566  0.25148927  1
  O  O175  1  0.00705967  0.86695433  0.75159095  1
  O  O176  1  0.51439230  0.31139260  0.27096836  1
  O  O177  1  0.50293044  0.38394956  0.77006957  1
  O  O178  1  0.50632192  0.86457423  0.21757289  1
  O  O179  1  0.53731352  0.89509405  0.79389339  1
  O  O180  1  0.51402051  0.13779151  0.24154676  1
  O  O181  1  0.49318533  0.12596741  0.76103548  1
  O  O182  1  0.47709035  0.62771470  0.26731945  1
  O  O183  1  0.49479592  0.60921395  0.74130544  1
  O  O184  1  0.99571764  0.13991412  0.23278828  1
  O  O185  1  0.99529367  0.12697784  0.74009157  1
  O  O186  1  0.92106148  0.58129135  0.28987465  1
  O  O187  1  0.99507699  0.63850407  0.75610400  1
  O  O188  1  0.36647189  0.26052264  -0.01167850  1
  O  O189  1  0.37859085  0.22989273  0.53050089  1
  O  O190  1  0.38223545  0.76465088  0.00338953  1
  O  O191  1  0.38030999  0.74778708  0.51276425  1
  O  O192  1  0.88213875  0.26384587  0.00377662  1
  O  O193  1  0.86232309  0.25463843  0.51092107  1
  O  O194  1  0.86143371  0.74463679  0.00464607  1
  O  O195  1  0.87212529  0.75691388  0.48280191  1
  O  O196  1  0.10940047  0.23520649  0.48623668  1
  O  O197  1  0.11494717  0.25342041  0.98532636  1
  O  O198  1  0.12389782  0.73429000  0.50235794  1
  O  O199  1  0.12055054  0.73535761  1.00711050  1
  O  O200  1  0.62624242  0.22803078  0.51146458  1
  O  O201  1  0.61479912  0.24668390  0.97419941  1
  O  O202  1  0.62535193  0.73611947  0.51025336  1
  O  O203  1  0.64446287  0.73907865  0.99728298  1
  O  O204  1  0.49173924  0.24466125  0.11690456  1
  O  O205  1  0.48515634  0.24014367  0.64575657  1
  O  O206  1  0.48733933  0.80443795  0.16924949  1
  O  O207  1  0.48587669  0.73690074  0.63611968  1
  O  O208  1  0.99368089  0.24570337  0.13072024  1
  O  O209  1  1.00442100  0.24072240  0.63713369  1
  O  O210  1  0.97925250  0.75590638  0.11975798  1
  O  O211  1  1.00215356  0.75032691  0.63954752  1
  O  O212  1  0.00131876  0.24228312  0.36142672  1
  O  O213  1  0.00774934  0.25630394  0.86598109  1
  O  O214  1  0.01615069  0.76403254  0.37770970  1
  O  O215  1  -0.00626117  0.76855743  0.86727368  1
  O  O216  1  0.50425927  0.24750430  0.38801641  1
  O  O217  1  0.50015374  0.26277191  0.86665932  1
  O  O218  1  0.54561879  0.77134298  0.33894625  1
  O  O219  1  0.51334569  0.74037889  0.87829466  1
  O  O220  1  0.22935662  0.11489725  0.50667450  1
  O  O221  1  0.25234608  0.15012352  1.01021631  1
  O  O222  1  0.23009455  0.60990815  0.50549316  1
  O  O223  1  0.24535491  0.63177171  1.00077424  1
  O  O224  1  0.74943188  0.13148545  0.51132139  1
  O  O225  1  0.74993280  0.12109827  0.98444362  1
  O  O226  1  0.73244498  0.62326060  0.50818995  1
  O  O227  1  0.75463155  0.62232588  0.99159621  1
  O  O228  1  0.24257059  0.36343569  0.01155913  1
  O  O229  1  0.24207825  0.36827377  0.52599950  1
  O  O230  1  0.25691227  0.87916758  0.00825544  1
  O  O231  1  0.23630399  0.90123177  0.49893188  1
  O  O232  1  0.76655521  0.38025643  0.00335867  1
  O  O233  1  0.75922376  0.37704871  0.51771869  1
  O  O234  1  0.75879620  0.88983007  0.00554553  1
  O  O235  1  0.75773908  0.86679791  0.50781639  1
  O  O236  1  0.12196934  0.51261397  0.23868877  1
  O  O237  1  0.12786000  0.49246951  0.74448011  1
  O  O238  1  0.11828972  1.00037842  0.24427411  1
  O  O239  1  0.13611421  0.99304970  0.74815876  1
  O  O240  1  0.61735236  0.50413172  0.24517396  1
  O  O241  1  0.64961082  0.50269165  0.76385796  1
  O  O242  1  0.62230838  0.99278933  0.24915553  1
  O  O243  1  0.63891785  1.00511874  0.73943570  1
  O  O244  1  0.38555190  0.00005452  0.28019196  1
  O  O245  1  0.36641991  -0.01705653  0.77072473  1
  O  O246  1  0.39114630  0.47844462  0.27895084  1
  O  O247  1  0.35885934  0.50074119  0.75525996  1
  O  O248  1  0.87928713  -0.00373692  0.25854492  1
  O  O249  1  0.86897994  0.00892805  0.75288465  1
  O  O250  1  0.88238445  0.51451857  0.26386270  1
  O  O251  1  0.88363332  0.51461898  0.76160898  1
  O  O252  1  0.11832425  0.35781911  0.38566236  1
  O  O253  1  0.11418999  0.37280686  0.86564538  1
  O  O254  1  0.11438001  0.87595521  0.35329802  1
  O  O255  1  0.10807087  0.88690668  0.86325289  1
  O  O256  1  0.60595530  0.38092844  0.36785670  1
  O  O257  1  0.62776247  0.36382303  0.87148414  1
  O  O258  1  0.64446774  0.85625385  0.36553354  1
  O  O259  1  0.62207702  0.85304761  0.89485511  1
  O  O260  1  0.39343954  0.11900798  0.13191471  1
  O  O261  1  0.37535595  0.11640816  0.63695197  1
  O  O262  1  0.38164930  0.59295371  0.15443831  1
  O  O263  1  0.37921358  0.63931506  0.63353258  1
  O  O264  1  0.88105433  0.13911977  0.11574156  1
  O  O265  1  0.88171421  0.12011857  0.63477240  1
  O  O266  1  0.87154474  0.63394873  0.12612297  1
  O  O267  1  0.88540050  0.62256522  0.63211029  1
  O  O268  1  0.24974850  0.26581650  0.11143243  1
  O  O269  1  0.26502471  0.25529640  0.64326780  1
  O  O270  1  0.23834075  0.77385238  0.12451860  1
  O  O271  1  0.25852584  0.75062554  0.61561255  1
  O  O272  1  0.76517313  0.26034626  0.12196479  1
  O  O273  1  0.73958154  0.25004022  0.62276119  1
  O  O274  1  0.75886590  0.75639985  0.10361350  1
  O  O275  1  0.74634573  0.76289622  0.63063046  1
  O  O276  1  0.22598914  0.24380138  0.36481114  1
  O  O277  1  0.23401662  0.25898642  0.88613042  1
  O  O278  1  0.22466979  0.76788258  0.37738347  1
  O  O279  1  0.33969237  0.74809745  0.74674441  1
  O  O280  1  0.73775961  0.25554290  0.41536716  1
  O  O281  1  0.73839472  0.24263012  0.86278931  1
  O  O282  1  0.74958163  0.72791520  0.35990983  1
  O  O283  1  0.74945202  0.75100674  0.88559306  1
  O  O284  1  -0.00361371  0.13196127  0.01293628  1
  O  O285  1  -0.01032050  0.11870126  0.50531472  1
  O  O286  1  0.00269089  0.61149458  -0.00404033  1
  O  O287  1  0.01367619  0.60715851  0.49549013  1
  O  O288  1  0.50025147  0.11638536  0.00398215  1
  O  O289  1  0.51224704  0.11991422  0.49708320  1
  O  O290  1  0.49445190  0.59966266  0.00316066  1
  O  O291  1  0.50738873  0.62292136  0.51587822  1
  O  O292  1  0.49754916  0.38936174  0.51606574  1
  O  O293  1  0.50863463  0.38985502  0.98131715  1
  O  O294  1  0.57054713  0.82403309  0.38542698  1
  O  O295  1  0.47907227  0.89252895  1.00980952  1
  O  O296  1  0.99351394  0.38329511  0.49655155  1
  O  O297  1  0.99150968  0.38432350  0.99173892  1
  O  O298  1  0.98923942  0.88744780  0.48017125  1
  O  O299  1  1.00585248  0.87626342  0.98464002  1
  O  O300  1  0.48821691  0.49633135  0.39734925  1
  O  O301  1  0.48855160  0.49444441  0.88392484  1
  O  O302  1  0.50778122  0.98121771  0.38199762  1
  O  O303  1  0.48104973  1.00545143  0.88653822  1
  O  O304  1  1.00865668  0.49178491  0.38713443  1
  O  O305  1  0.99216732  0.49177949  0.88052831  1
  O  O306  1  0.98428998  0.99776716  0.37518512  1
  O  O307  1  0.98781191  0.99563411  0.86846369  1
  O  O308  1  0.00454601  0.01382260  0.12316851  1
  O  O309  1  -0.00901020  0.00796595  0.60992154  1
  O  O310  1  0.00558830  0.49758943  0.11204089  1
  O  O311  1  0.01356635  0.49414357  0.62810822  1
  O  O312  1  0.49824295  0.01116661  0.11077753  1
  O  O313  1  0.51462905  -0.01438932  0.63358494  1
  O  O314  1  0.52889505  0.48559469  0.11063224  1
  O  O315  1  0.48091736  0.51643987  0.61611159  1
  O  O316  1  0.25120566  0.36463962  0.22888344  1
  O  O317  1  0.23954601  0.38039646  0.74675220  1
  O  O318  1  0.22843468  0.88063835  0.23749854  1
  O  O319  1  0.23156605  0.87832512  0.75918044  1
  O  O320  1  0.76471971  0.38377617  0.23096709  1
  O  O321  1  0.77050665  0.39595209  0.74730412  1
  O  O322  1  0.74271480  0.88662291  0.23201261  1
  O  O323  1  0.76562556  0.88277782  0.73682426  1
  O  O324  1  0.24225300  0.13011543  0.24123501  1
  O  O325  1  0.24023870  0.11209985  0.74933666  1
  O  O326  1  0.25965640  0.62448439  0.24200351  1
  O  O327  1  0.23981106  0.60680676  0.75047019  1
  O  O328  1  0.74554944  0.09610050  0.24110215  1
  O  O329  1  0.75769887  0.11769470  0.75528226  1
  O  O330  1  0.74121502  0.66335340  0.32421185  1
  O  O331  1  0.77474166  0.61494057  0.74760810  1
  O  O332  1  0.34787544  0.15115666  0.36169919  1
  O  O333  1  0.37014842  0.11946174  0.87518595  1
  O  O334  1  0.35856372  0.60951017  0.36291635  1
  O  O335  1  0.37738505  0.60982472  0.87525206  1
  O  O336  1  0.86110546  0.11153327  0.37522455  1
  O  O337  1  0.87006891  0.11628455  0.86493489  1
  O  O338  1  0.88799939  0.61099987  0.35432997  1
  O  O339  1  0.88390992  0.61633142  0.87687701  1
  O  O340  1  0.11998775  0.39190001  0.12779126  1
  O  O341  1  0.12875837  0.37419026  0.63807688  1
  O  O342  1  0.12191991  0.89373544  0.12808087  1
  O  O343  1  0.12387438  0.87560830  0.63817965  1
  O  O344  1  0.64238929  0.36395800  0.12273456  1
  O  O345  1  0.60877424  0.37017616  0.63589103  1
  O  O346  1  0.64367128  0.85375701  0.10992349  1
  O  O347  1  0.64265175  0.88510030  0.62030840  1
  O  O348  1  0.10927300  0.24935982  0.25717169  1
  O  O349  1  0.11718120  0.25553454  0.75939827  1
  O  O350  1  0.12420423  0.74346125  0.25514433  1
  O  O351  1  0.11838749  0.76192508  0.75186438  1
  O  O352  1  0.69266841  0.24385415  0.28037078  1
  O  O353  1  0.60407823  0.23979108  0.76380300  1
  O  O354  1  0.53037933  0.74028674  0.17461247  1
  O  O355  1  0.63090794  0.75432976  0.76258694  1
  O  O356  1  0.46905273  0.29091537  0.32728588  1
  O  O357  1  0.38587796  0.24774278  0.75193640  1
  O  O358  1  0.36671599  0.74215550  0.25356788  1
  O  O359  1  0.49228927  0.85275002  0.75460648  1
  O  O360  1  0.88014874  0.24952521  0.23376199  1
  O  O361  1  0.88686342  0.23676225  0.75965423  1
  O  O362  1  0.86719228  0.74548527  0.23569888  1
  O  O363  1  0.88619233  0.73836255  0.75022854  1
  O  O364  1  0.38349711  0.51856535  0.49183074  1
  O  O365  1  0.36476873  0.50250374  0.99010196  1
  O  O366  1  0.37468068  1.02433516  0.46926361  1
  O  O367  1  0.37500771  1.00072377  0.98942224  1
  O  O368  1  0.88876450  0.49187594  0.50379139  1
  O  O369  1  0.88561466  0.49305726  0.99075179  1
  O  O370  1  0.87537537  0.98839753  0.48345070  1
  O  O371  1  0.87467359  1.00720419  0.98360982  1
  O  O372  1  0.12231514  0.00102733  0.00092514  1
  O  O373  1  0.10303137  0.01823232  0.48242879  1
  O  O374  1  0.11068397  0.50139204  -0.00392750  1
  O  O375  1  0.11388217  0.49571951  0.51453222  1
  O  O376  1  0.60529883  -0.00221262  -0.01325864  1
  O  O377  1  0.63179634  0.00571471  0.51401175  1
  O  O378  1  0.62481636  0.50774767  -0.01129231  1
  O  O379  1  0.60697497  0.51152762  0.51318103  1
  O  O380  1  0.36379064  0.39731741  0.12157108  1
  O  O381  1  0.36279411  0.37588727  0.63375519  1
  O  O382  1  0.35411257  0.88980709  0.12172853  1
  O  O383  1  0.38312941  0.86143426  0.63591095  1
  O  O384  1  0.87287114  0.37067007  0.11259416  1
  O  O385  1  0.88681780  0.37231912  0.61140088  1
  O  O386  1  0.85901757  0.86293404  0.12658300  1
  O  O387  1  0.86511603  0.87870341  0.60963031  1
  O  O388  1  0.12837108  0.13381124  0.37978787  1
  O  O389  1  0.11820293  0.13811833  0.87282297  1
  O  O390  1  0.12907045  0.63543533  0.38321625  1
  O  O391  1  0.12812287  0.62102345  0.89189830  1
  O  O392  1  0.63393280  0.11770888  0.39350003  1
  O  O393  1  0.63685929  0.12621889  0.87398661  1
  O  O394  1  0.61402182  0.62196792  0.39643955  1
  O  O395  1  0.63195212  0.63732611  0.86996082  1
