# generated using pymatgen
data_V35Zn35O128
_symmetry_space_group_name_H-M   'P 1'
_cell_length_a   16.86250434
_cell_length_b   16.86105834
_cell_length_c   16.88369475
_cell_angle_alpha   90.09521658
_cell_angle_beta   90.11638233
_cell_angle_gamma   90.10205184
_symmetry_Int_Tables_number   1
_chemical_formula_structural   V35Zn35O128
_chemical_formula_sum   'V70 Zn70 O256'
_cell_volume   4800.34233721
_cell_formula_units_Z   2
loop_
 _symmetry_equiv_pos_site_id
 _symmetry_equiv_pos_as_xyz
  1  'x, y, z'
loop_
 _atom_site_type_symbol
 _atom_site_label
 _atom_site_symmetry_multiplicity
 _atom_site_fract_x
 _atom_site_fract_y
 _atom_site_fract_z
 _atom_site_occupancy
  V  V0  1  0.11889849  0.87640681  0.73429519  1
  V  V1  1  0.62327709  0.75641172  0.87637337  1
  V  V2  1  0.39427846  0.24158753  0.63687851  1
  V  V3  1  0.37979008  0.00312692  0.38293806  1
  V  V4  1  0.87143964  0.85555136  0.49756645  1
  V  V5  1  0.37185342  0.74649926  0.61292345  1
  V  V6  1  0.79388924  0.17667257  0.82919657  1
  V  V7  1  0.87583592  0.89132544  0.00361119  1
  V  V8  1  0.88185720  0.12645725  0.23527642  1
  V  V9  1  0.37919466  0.24949101  0.14346021  1
  V  V10  1  0.38864622  0.37161842  0.49329782  1
  V  V11  1  0.24535647  -0.00713330  0.24554365  1
  V  V12  1  0.62133314  0.62899565  0.01033361  1
  V  V13  1  0.49575091  0.61963382  0.63015135  1
  V  V14  1  0.39265150  0.74829932  0.13730355  1
  V  V15  1  0.00084668  0.62587849  0.59743581  1
  V  V16  1  0.77701789  0.33678696  0.11321950  1
  V  V17  1  0.25920539  0.14681346  0.88442301  1
  V  V18  1  0.49264110  0.11906335  0.13989530  1
  V  V19  1  0.23769785  0.87018168  0.13029716  1
  V  V20  1  0.25622470  0.00488764  0.76453127  1
  V  V21  1  0.22840538  0.74724987  0.49176872  1
  V  V22  1  0.60485767  0.11667151  0.50979280  1
  V  V23  1  0.01341558  0.87170557  0.36227221  1
  V  V24  1  0.24827738  0.13087774  0.36358343  1
  V  V25  1  0.25616581  0.88792656  0.61787191  1
  V  V26  1  0.37062077  0.51363750  0.86125139  1
  V  V27  1  -0.00265003  0.46417911  0.49640325  1
  V  V28  1  0.62452557  0.12915880  0.00525237  1
  V  V29  1  0.90217229  0.50228758  0.87860915  1
  V  V30  1  0.49618024  0.50676066  0.01116142  1
  V  V31  1  0.74542181  0.00110622  0.24124082  1
  V  V32  1  0.75255957  0.87099330  0.12878950  1
  V  V33  1  0.61549778  0.25263180  0.37008350  1
  V  V34  1  0.25193207  0.38618376  0.12303045  1
  V  V35  1  0.76009723  0.36085580  0.63079725  1
  V  V36  1  0.61013259  0.87226598  0.24179898  1
  V  V37  1  0.01512628  0.25009444  0.24616393  1
  V  V38  1  0.37473188  0.36571322  -0.00324456  1
  V  V39  1  0.37567423  0.87750477  -0.00718165  1
  V  V40  1  0.63288218  0.63136548  0.49981397  1
  V  V41  1  0.00171021  0.00892364  0.51125497  1
  V  V42  1  0.75140816  0.13264103  0.38707313  1
  V  V43  1  0.75480368  0.86576451  0.61932469  1
  V  V44  1  0.00530386  0.87982225  0.87713001  1
  V  V45  1  0.25784532  0.39635464  0.62913410  1
  V  V46  1  0.10657160  0.50819975  0.11911927  1
  V  V47  1  0.85227069  -0.00654025  0.85836259  1
  V  V48  1  0.75962084  0.74891634  0.00309852  1
  V  V49  1  0.01428885  0.36524329  0.89030162  1
  V  V50  1  0.12343805  0.63397309  -0.02246886  1
  V  V51  1  0.86316001  0.48311079  0.37254069  1
  V  V52  1  0.49280439  0.00196783  -0.01500908  1
  V  V53  1  0.49529490  0.87544129  0.40034983  1
  V  V54  1  0.63349807  0.49400759  0.13602221  1
  V  V55  1  0.87315654  -0.00288321  0.37813423  1
  V  V56  1  0.11713900  0.10146845  -0.00994649  1
  V  V57  1  0.63324216  0.88046126  0.74369516  1
  V  V58  1  0.75055443  0.61484928  0.87137649  1
  V  V59  1  0.24869732  0.24502135  0.50518101  1
  V  V60  1  0.63680696  0.49462440  0.64160982  1
  V  V61  1  -0.01181662  0.74468228  0.74428275  1
  V  V62  1  0.12911917  0.37696401  0.26131449  1
  V  V63  1  0.12204819  0.38713247  0.74790887  1
  V  V64  1  0.61944138  0.24679130  0.86850444  1
  V  V65  1  0.49311910  0.75159199  0.75718758  1
  V  V66  1  0.50678215  0.37446550  0.86461765  1
  V  V67  1  0.87209933  0.63638477  0.24080962  1
  V  V68  1  0.36469839  0.58894036  0.31161830  1
  V  V69  1  0.50762061  0.49360207  0.49348531  1
  Zn  Zn70  1  0.12146256  0.12690789  0.50173471  1
  Zn  Zn71  1  0.75175659  0.63019539  0.37412685  1
  Zn  Zn72  1  0.62327900  0.75243522  0.37378262  1
  Zn  Zn73  1  0.50717959  0.37372812  0.34618730  1
  Zn  Zn74  1  0.85967805  0.62348263  0.73253932  1
  Zn  Zn75  1  0.25370521  0.74460667  0.00766377  1
  Zn  Zn76  1  0.19947808  0.19756041  0.18204659  1
  Zn  Zn77  1  0.20430112  0.20093342  0.70188009  1
  Zn  Zn78  1  0.23835323  0.65200270  0.17312911  1
  Zn  Zn79  1  0.17310469  0.69735948  0.67400828  1
  Zn  Zn80  1  0.68298204  0.18452951  0.18543162  1
  Zn  Zn81  1  0.67741684  0.18984016  0.68337538  1
  Zn  Zn82  1  0.69068483  0.68821693  0.19427473  1
  Zn  Zn83  1  0.68292868  0.68896818  0.68559995  1
  Zn  Zn84  1  0.31059591  0.31917529  0.31388010  1
  Zn  Zn85  1  0.31364078  0.32000255  0.80935924  1
  Zn  Zn86  1  0.31586077  0.81129408  0.31476054  1
  Zn  Zn87  1  0.31136378  0.81870844  0.80218181  1
  Zn  Zn88  1  0.79907923  0.30951055  0.29607782  1
  Zn  Zn89  1  0.83942360  0.35262524  0.77607231  1
  Zn  Zn90  1  0.80983671  0.80494850  0.31489621  1
  Zn  Zn91  1  0.81108852  0.80698329  0.81560435  1
  Zn  Zn92  1  0.18177093  0.42482500  0.45606345  1
  Zn  Zn93  1  0.18852237  0.45057432  0.93801372  1
  Zn  Zn94  1  0.18647349  0.94353184  0.43864234  1
  Zn  Zn95  1  0.18916726  0.93390275  0.94218954  1
  Zn  Zn96  1  0.69787369  0.43074622  0.44584460  1
  Zn  Zn97  1  0.68639821  0.43280417  0.94775230  1
  Zn  Zn98  1  0.68314584  0.93482310  0.43137781  1
  Zn  Zn99  1  0.68059983  0.94071436  0.94675184  1
  Zn  Zn100  1  0.31043400  0.06500408  0.06094185  1
  Zn  Zn101  1  0.32219582  0.06478195  0.56313127  1
  Zn  Zn102  1  0.31547213  0.56625283  0.05078803  1
  Zn  Zn103  1  0.31923141  0.57080054  0.52862784  1
  Zn  Zn104  1  0.82510835  0.15807809  0.04093835  1
  Zn  Zn105  1  0.76820560  0.03187933  0.54764515  1
  Zn  Zn106  1  0.81851792  0.55662402  0.06215353  1
  Zn  Zn107  1  0.81983356  0.55609247  0.55851666  1
  Zn  Zn108  1  0.42757082  0.44860086  0.19299541  1
  Zn  Zn109  1  0.43934750  0.43305051  0.68381863  1
  Zn  Zn110  1  0.42114457  0.94279570  0.18597033  1
  Zn  Zn111  1  0.43511124  0.93026219  0.69855202  1
  Zn  Zn112  1  0.93260370  0.43070303  0.18488128  1
  Zn  Zn113  1  0.93972672  0.45350629  0.68478459  1
  Zn  Zn114  1  0.94192777  0.94529033  0.18371960  1
  Zn  Zn115  1  0.92806871  0.93807279  0.68218292  1
  Zn  Zn116  1  0.06415933  0.05677432  0.31353275  1
  Zn  Zn117  1  0.07221890  0.06025951  0.80769864  1
  Zn  Zn118  1  0.02465720  0.52949306  0.29314459  1
  Zn  Zn119  1  0.07475480  0.56183953  0.79620843  1
  Zn  Zn120  1  0.56574501  0.05896264  0.31814267  1
  Zn  Zn121  1  0.56679966  0.05809510  0.81758270  1
  Zn  Zn122  1  0.55321983  0.57099656  0.31178187  1
  Zn  Zn123  1  0.55833222  0.56563672  0.81938588  1
  Zn  Zn124  1  0.43753377  0.18565410  0.43704805  1
  Zn  Zn125  1  0.44013934  0.18441537  0.93370079  1
  Zn  Zn126  1  0.44247572  0.68573425  0.43415459  1
  Zn  Zn127  1  0.43295931  0.69113172  0.94248083  1
  Zn  Zn128  1  0.95298187  0.17816959  0.41105464  1
  Zn  Zn129  1  0.95939914  0.17066168  0.89691748  1
  Zn  Zn130  1  0.96277882  0.66923354  0.39361057  1
  Zn  Zn131  1  0.94194042  0.69087229  0.93339000  1
  Zn  Zn132  1  -0.04523487  0.28837161  0.05056538  1
  Zn  Zn133  1  0.07229335  0.31126643  0.57715360  1
  Zn  Zn134  1  0.06971291  0.81289930  0.04635359  1
  Zn  Zn135  1  0.05011943  0.81497752  0.55795798  1
  Zn  Zn136  1  0.55814957  0.31255276  0.06829556  1
  Zn  Zn137  1  0.57994128  0.30375487  0.56239361  1
  Zn  Zn138  1  0.56205877  0.81886832  0.06287164  1
  Zn  Zn139  1  0.56187026  0.81291346  0.57031316  1
  O  O140  1  0.12545807  0.15044264  0.09998175  1
  O  O141  1  0.11082485  0.15698631  0.62846421  1
  O  O142  1  0.13802373  0.60351297  0.14470670  1
  O  O143  1  0.09860415  0.62417263  0.63328330  1
  O  O144  1  0.60390536  0.12951087  0.11547654  1
  O  O145  1  0.61804508  0.12956240  0.60932450  1
  O  O146  1  0.62809550  0.62633105  0.11285069  1
  O  O147  1  0.61412829  0.61836125  0.61801705  1
  O  O148  1  0.38525494  0.36612550  0.39047046  1
  O  O149  1  0.38697180  0.38167779  0.88464270  1
  O  O150  1  0.39030451  0.88327473  0.37601922  1
  O  O151  1  0.36246418  0.86221146  0.89346741  1
  O  O152  1  0.85166123  0.38283954  0.36483780  1
  O  O153  1  0.90519190  0.39206787  0.86397546  1
  O  O154  1  0.87238698  0.88193841  0.38413972  1
  O  O155  1  0.87186003  0.88023776  0.88528646  1
  O  O156  1  0.25658374  0.00836254  0.36834222  1
  O  O157  1  0.25123582  -0.00964301  0.86412878  1
  O  O158  1  0.21846929  0.53091347  0.38214761  1
  O  O159  1  0.27207652  0.49510161  0.87416519  1
  O  O160  1  0.75738620  0.00656663  0.36778470  1
  O  O161  1  0.75316522  -0.01387827  0.87302662  1
  O  O162  1  0.75894410  0.50658202  0.38205365  1
  O  O163  1  0.73620662  0.51519773  0.88129592  1
  O  O164  1  0.27784299  0.48465241  0.12969468  1
  O  O165  1  0.26593046  0.49175783  0.60082973  1
  O  O166  1  0.26225832  0.98951551  0.13878722  1
  O  O167  1  0.25500953  0.99067156  0.62920763  1
  O  O168  1  0.73333072  0.50331552  0.12074114  1
  O  O169  1  0.73644873  0.51620167  0.63410825  1
  O  O170  1  0.75032748  0.98901940  0.14015439  1
  O  O171  1  0.75633023  0.97073599  0.63740439  1
  O  O172  1  0.01992626  0.36313411  0.23846861  1
  O  O173  1  0.02003256  0.38278220  0.73821535  1
  O  O174  1  -0.00870933  0.88133421  0.26364169  1
  O  O175  1  0.00596355  0.87271996  0.74760072  1
  O  O176  1  0.49684825  0.37366613  0.23662544  1
  O  O177  1  0.50211721  0.37726667  0.76646028  1
  O  O178  1  0.51177641  0.88656976  0.23837995  1
  O  O179  1  0.51397867  0.85903810  0.74090937  1
  O  O180  1  0.50373455  0.11718464  0.23885236  1
  O  O181  1  0.50057791  0.08743633  0.71688275  1
  O  O182  1  0.45738313  0.62820682  0.28856659  1
  O  O183  1  0.50690425  0.64039491  0.73969710  1
  O  O184  1  0.98967356  0.12910397  0.25903337  1
  O  O185  1  0.99300430  0.13377742  0.79283791  1
  O  O186  1  0.98480670  0.63331777  0.27922819  1
  O  O187  1  1.00035866  0.64371735  0.75825097  1
  O  O188  1  0.38043356  0.26586059  -0.00139458  1
  O  O189  1  0.37561597  0.25814640  0.50777749  1
  O  O190  1  0.37252614  0.76089955  0.00996633  1
  O  O191  1  0.37363896  0.75478674  0.51336557  1
  O  O192  1  0.89705979  0.21922973  -0.01798712  1
  O  O193  1  0.89903490  0.21987714  0.57540821  1
  O  O194  1  0.86212221  0.75660564  -0.00614562  1
  O  O195  1  0.87773409  0.76025731  0.48978775  1
  O  O196  1  0.14665890  0.25622740  0.50031214  1
  O  O197  1  0.11761140  0.20778732  1.04186530  1
  O  O198  1  0.12901401  0.76018905  0.49906539  1
  O  O199  1  0.13807016  0.74405302  0.98924273  1
  O  O200  1  0.62227656  0.22715117  0.48536458  1
  O  O201  1  0.61275813  0.23478004  0.99842025  1
  O  O202  1  0.61563504  0.73261535  0.50702223  1
  O  O203  1  0.62953532  0.74814632  0.99465337  1
  O  O204  1  0.48579761  0.23784403  0.12101020  1
  O  O205  1  0.49378986  0.25771933  0.62477762  1
  O  O206  1  0.49198382  0.74728601  0.11794050  1
  O  O207  1  0.48828698  0.74304916  0.63042484  1
  O  O208  1  0.99095708  0.24076196  0.14786101  1
  O  O209  1  1.05111753  0.20915010  0.63639763  1
  O  O210  1  1.00541611  0.75006987  0.13638404  1
  O  O211  1  0.99846101  0.74359318  0.63497429  1
  O  O212  1  -0.01340848  0.25987384  0.34743823  1
  O  O213  1  0.01735888  0.26949078  0.86839633  1
  O  O214  1  0.00296102  0.77385870  0.38207275  1
  O  O215  1  -0.01114517  0.77018024  0.85782539  1
  O  O216  1  0.51037357  0.25056915  0.37383015  1
  O  O217  1  0.50393180  0.26622304  0.88276055  1
  O  O218  1  0.50256324  0.76984330  0.38664005  1
  O  O219  1  0.50505492  0.74502230  0.86325820  1
  O  O220  1  0.24831406  0.13590250  0.49958800  1
  O  O221  1  0.24647952  0.12532048  0.98889939  1
  O  O222  1  0.23811637  0.64853428  0.51304036  1
  O  O223  1  0.23417518  0.63053957  1.00723022  1
  O  O224  1  0.76311966  0.12900917  0.48727862  1
  O  O225  1  0.72282895  0.11212685  1.00574190  1
  O  O226  1  0.73353792  0.61980432  0.50467724  1
  O  O227  1  0.74181885  0.63345696  0.99392289  1
  O  O228  1  0.26758056  0.38476676  0.00703624  1
  O  O229  1  0.26789978  0.36577217  0.50161076  1
  O  O230  1  0.25946556  0.87388649  0.01401224  1
  O  O231  1  0.24238565  0.87267544  0.51611996  1
  O  O232  1  0.73763360  0.36993832  0.02482915  1
  O  O233  1  0.76068584  0.39497434  0.53211320  1
  O  O234  1  0.75717298  0.87145610  0.00819488  1
  O  O235  1  0.75870838  0.87621139  0.50595174  1
  O  O236  1  0.11700363  0.48163187  0.23958272  1
  O  O237  1  0.14212045  0.48993808  0.74423877  1
  O  O238  1  0.14557161  1.00841458  0.25043447  1
  O  O239  1  0.13504312  0.98446435  0.75059397  1
  O  O240  1  0.61311850  0.52120938  0.23195258  1
  O  O241  1  0.61463338  0.50712515  0.73881713  1
  O  O242  1  0.63979846  0.98872709  0.25695169  1
  O  O243  1  0.62338098  0.97803412  0.76241901  1
  O  O244  1  0.35849033  -0.00360503  0.26720828  1
  O  O245  1  0.35550531  -0.00943757  0.75039989  1
  O  O246  1  0.36407969  0.49206182  0.27744098  1
  O  O247  1  0.39105444  0.50103655  0.76282584  1
  O  O248  1  0.86527491  0.00406727  0.25912972  1
  O  O249  1  0.86413734  -0.01141780  0.75953076  1
  O  O250  1  0.89265126  0.50160640  0.26526851  1
  O  O251  1  0.88327902  0.51427377  0.76965433  1
  O  O252  1  0.13993464  0.37678323  0.35936300  1
  O  O253  1  0.11708966  0.39564980  0.86520519  1
  O  O254  1  0.11293445  0.88859439  0.37151816  1
  O  O255  1  0.10874162  0.88089701  0.87223329  1
  O  O256  1  0.62963258  0.35584350  0.38705806  1
  O  O257  1  0.61419846  0.36284487  0.88611939  1
  O  O258  1  0.60691282  0.88030996  0.36404407  1
  O  O259  1  0.63036885  0.86097959  0.86984344  1
  O  O260  1  0.37786656  0.13997108  0.12515060  1
  O  O261  1  0.37709785  0.14168204  0.62187720  1
  O  O262  1  0.35707210  0.64806988  0.12490624  1
  O  O263  1  0.38219072  0.63695384  0.61797193  1
  O  O264  1  0.87401708  0.10824052  0.13751085  1
  O  O265  1  0.88879021  0.17093969  0.62768831  1
  O  O266  1  0.87789179  0.61289696  0.14165759  1
  O  O267  1  0.89195508  0.62320188  0.62265587  1
  O  O268  1  0.27029620  0.26621430  0.12305632  1
  O  O269  1  0.26333092  0.25700802  0.61257886  1
  O  O270  1  0.25371341  0.76519472  0.13343980  1
  O  O271  1  0.25885945  0.75925393  0.62130072  1
  O  O272  1  0.76050602  0.23247573  0.11275439  1
  O  O273  1  0.73944286  0.26132523  0.62125325  1
  O  O274  1  0.74528139  0.76137192  0.11582460  1
  O  O275  1  0.74537039  0.76233884  0.62588478  1
  O  O276  1  0.26355131  0.23685167  0.38651467  1
  O  O277  1  0.25394918  0.24704877  0.87620912  1
  O  O278  1  0.25499965  0.76336865  0.39556547  1
  O  O279  1  0.25139716  0.71452837  0.82998421  1
  O  O280  1  0.74778434  0.23406414  0.37161030  1
  O  O281  1  0.72701078  0.24086669  0.88288972  1
  O  O282  1  0.73702835  0.74610879  0.37677338  1
  O  O283  1  0.74123750  0.74203105  0.88610906  1
  O  O284  1  0.01826401  0.10196820  -0.02621703  1
  O  O285  1  0.00072748  0.11609177  0.49079883  1
  O  O286  1  0.02169314  0.64268038  -0.00140314  1
  O  O287  1  0.00464878  0.63809129  0.49874979  1
  O  O288  1  0.49584999  0.11253653  0.00649710  1
  O  O289  1  0.50559962  0.10967329  0.49309748  1
  O  O290  1  0.50858902  0.61473729  -0.00797190  1
  O  O291  1  0.50518035  0.60958477  0.50882406  1
  O  O292  1  0.49924397  0.38026523  0.50617856  1
  O  O293  1  0.48986217  0.38877185  0.99972880  1
  O  O294  1  0.50636336  0.88518260  0.49909317  1
  O  O295  1  0.48798074  0.88835477  1.00358521  1
  O  O296  1  0.99200958  0.36501072  0.51853837  1
  O  O297  1  1.01373219  0.36826440  0.99032441  1
  O  O298  1  0.98463118  0.88892321  0.49483287  1
  O  O299  1  0.98559333  0.86745172  0.98814474  1
  O  O300  1  0.51442485  0.48798270  0.39172678  1
  O  O301  1  0.49979278  0.48891266  0.88582503  1
  O  O302  1  0.48806680  0.99246902  0.37173407  1
  O  O303  1  0.48804619  1.00414012  0.88540993  1
  O  O304  1  0.98546755  0.47793423  0.38827724  1
  O  O305  1  1.00248095  0.51034770  0.88074093  1
  O  O306  1  0.98874450  0.99436718  0.38217965  1
  O  O307  1  0.98152204  0.97948333  0.86395106  1
  O  O308  1  0.01326150  0.00790933  0.12681400  1
  O  O309  1  -0.01336514  0.00489364  0.61009124  1
  O  O310  1  0.00759269  0.50171732  0.12431276  1
  O  O311  1  -0.00909242  0.51205291  0.59973810  1
  O  O312  1  0.48261581  0.01633234  0.11798150  1
  O  O313  1  0.49614146  0.03320502  0.66370830  1
  O  O314  1  0.49329449  0.50839731  0.11249681  1
  O  O315  1  0.50745417  0.50561521  0.62005199  1
  O  O316  1  0.23888438  0.36824746  0.23672120  1
  O  O317  1  0.26842718  0.39351704  0.73049473  1
  O  O318  1  0.24763003  0.88290321  0.24335100  1
  O  O319  1  0.23759159  0.87975685  0.73896520  1
  O  O320  1  0.74847281  0.36280890  0.20769438  1
  O  O321  1  0.73684909  0.37893684  0.73477984  1
  O  O322  1  0.74834913  0.88237323  0.24482393  1
  O  O323  1  0.73849864  0.86249108  0.74375979  1
  O  O324  1  0.25077348  0.12388955  0.25947163  1
  O  O325  1  0.24262926  0.11239889  0.76480738  1
  O  O326  1  0.28413355  0.64061176  0.27526649  1
  O  O327  1  0.24685503  0.66267979  0.77436566  1
  O  O328  1  0.75415636  0.11027834  0.25251165  1
  O  O329  1  0.74114906  0.12930784  0.75848390  1
  O  O330  1  0.76299368  0.62445114  0.25314328  1
  O  O331  1  0.74551225  0.63463043  0.76827967  1
  O  O332  1  0.36435032  0.11312355  0.37949613  1
  O  O333  1  0.35946662  0.12801939  0.87698961  1
  O  O334  1  0.36328181  0.60406670  0.41709520  1
  O  O335  1  0.38302154  0.61351439  0.87657981  1
  O  O336  1  0.86362271  0.11585388  0.36456392  1
  O  O337  1  0.85510110  0.10310723  0.87947162  1
  O  O338  1  0.86810985  0.61181727  0.36393449  1
  O  O339  1  0.85978777  0.62172307  0.87812434  1
  O  O340  1  0.14756645  0.39773923  0.11757455  1
  O  O341  1  0.15003910  0.37917075  0.62944752  1
  O  O342  1  0.13861287  0.87225428  0.11874154  1
  O  O343  1  0.13205173  0.87514435  0.63086498  1
  O  O344  1  0.61063412  0.39500070  0.12700747  1
  O  O345  1  0.63251897  0.39077644  0.62209362  1
  O  O346  1  0.63569198  0.87687040  0.13459474  1
  O  O347  1  0.63398078  0.87361806  0.63555066  1
  O  O348  1  0.12265070  0.25663628  0.24643136  1
  O  O349  1  0.15464659  0.28738625  0.75442048  1
  O  O350  1  0.04446528  0.72731982  0.19433668  1
  O  O351  1  0.11231652  0.76948282  0.74826732  1
  O  O352  1  0.63084476  0.23993568  0.26995749  1
  O  O353  1  0.61327098  0.23906937  0.76983257  1
  O  O354  1  0.62330104  0.76824089  0.24979619  1
  O  O355  1  0.61492640  0.75576614  0.75806980  1
  O  O356  1  0.37822409  0.25683091  0.24246746  1
  O  O357  1  0.37415718  0.25611642  0.73551863  1
  O  O358  1  0.38529299  0.76841093  0.23596679  1
  O  O359  1  0.38947411  0.75666617  0.74222324  1
  O  O360  1  0.86625347  0.22639535  0.24721395  1
  O  O361  1  0.85842586  0.23882689  0.78489282  1
  O  O362  1  0.87289241  0.73877666  0.24594740  1
  O  O363  1  0.88310982  0.74842745  0.74719808  1
  O  O364  1  0.39551452  0.48143503  0.50651231  1
  O  O365  1  0.38769688  0.49860694  0.99007708  1
  O  O366  1  0.36478631  0.99557322  0.48299133  1
  O  O367  1  0.37798274  0.98690447  1.00227528  1
  O  O368  1  0.88505005  0.49862989  0.48353075  1
  O  O369  1  0.87019311  0.50327578  0.97620920  1
  O  O370  1  0.87686289  1.00016636  0.48811570  1
  O  O371  1  0.87365255  0.98842378  0.98953976  1
  O  O372  1  0.13825846  0.00444354  0.01369283  1
  O  O373  1  0.10672185  0.00307392  0.50348920  1
  O  O374  1  0.12912881  0.51790924  0.01319682  1
  O  O375  1  0.09799098  0.48554766  0.49432662  1
  O  O376  1  0.60249246  0.00782535  -0.00374307  1
  O  O377  1  0.64854801  0.01935072  0.50081419  1
  O  O378  1  0.61188571  0.50822718  0.01104178  1
  O  O379  1  0.61677228  0.50591818  0.51282583  1
  O  O380  1  0.37633530  0.36664520  0.11385705  1
  O  O381  1  0.37226214  0.36586069  0.61412523  1
  O  O382  1  0.36857091  0.86503772  0.11512457  1
  O  O383  1  0.36313184  0.86544178  0.62990702  1
  O  O384  1  0.87986989  0.36088746  0.11128656  1
  O  O385  1  0.86542119  0.37036192  0.65503788  1
  O  O386  1  0.86847913  0.88193441  0.11172585  1
  O  O387  1  0.86851078  0.86782097  0.60893412  1
  O  O388  1  0.14463833  0.12027527  0.38027832  1
  O  O389  1  0.14472263  0.11452668  0.88491432  1
  O  O390  1  0.16547864  0.58119492  0.37259081  1
  O  O391  1  0.12955167  0.61958950  0.87977327  1
  O  O392  1  0.63855944  0.12580267  0.38158243  1
  O  O393  1  0.60399556  0.13697914  0.88956150  1
  O  O394  1  0.61940220  0.62566015  0.39202231  1
  O  O395  1  0.63117700  0.63550125  0.88566442  1
