# generated using pymatgen
data_V35Zn35O128
_symmetry_space_group_name_H-M   'P 1'
_cell_length_a   16.95194675
_cell_length_b   16.98866516
_cell_length_c   16.94949821
_cell_angle_alpha   90.23019286
_cell_angle_beta   89.86010388
_cell_angle_gamma   89.67591534
_symmetry_Int_Tables_number   1
_chemical_formula_structural   V35Zn35O128
_chemical_formula_sum   'V70 Zn70 O256'
_cell_volume   4881.16973773
_cell_formula_units_Z   2
loop_
 _symmetry_equiv_pos_site_id
 _symmetry_equiv_pos_as_xyz
  1  'x, y, z'
loop_
 _atom_site_type_symbol
 _atom_site_label
 _atom_site_symmetry_multiplicity
 _atom_site_fract_x
 _atom_site_fract_y
 _atom_site_fract_z
 _atom_site_occupancy
  V  V0  1  0.12253769  0.23588463  0.37334808  1
  V  V1  1  0.01289375  -0.01577681  0.53732065  1
  V  V2  1  0.00156832  0.36363381  0.87851125  1
  V  V3  1  0.75711873  0.25725309  0.46858754  1
  V  V4  1  0.63367995  0.12928755  -0.01101996  1
  V  V5  1  0.87353165  0.11271030  0.23518363  1
  V  V6  1  0.49153123  0.23741097  0.74302804  1
  V  V7  1  0.87665260  0.88474702  0.00460018  1
  V  V8  1  0.62871708  0.63641324  0.00858334  1
  V  V9  1  0.00372073  0.26454253  0.23544237  1
  V  V10  1  0.51124346  0.47900963  0.51297205  1
  V  V11  1  0.12858829  0.11810069  -0.01963815  1
  V  V12  1  0.74858226  0.49130350  0.24473985  1
  V  V13  1  0.38506372  0.50212850  0.37939004  1
  V  V14  1  0.49128520  0.38228547  0.86557328  1
  V  V15  1  0.87584351  0.50298173  0.87904672  1
  V  V16  1  0.63611246  0.87860904  0.76371650  1
  V  V17  1  0.00215217  0.50121115  0.00252049  1
  V  V18  1  0.48739399  0.00698046  -0.00280641  1
  V  V19  1  0.63503098  0.12738877  0.52737193  1
  V  V20  1  0.49696422  0.87914519  0.87626030  1
  V  V21  1  0.75203633  -0.00140256  0.80330742  1
  V  V22  1  0.75623121  0.89732529  0.60141682  1
  V  V23  1  0.51606311  0.74349370  0.76254707  1
  V  V24  1  0.01175554  0.10969147  0.12611381  1
  V  V25  1  0.37423549  0.37266123  0.00626858  1
  V  V26  1  0.62431333  0.49015520  0.11456924  1
  V  V27  1  0.22245979  0.75432018  0.49050266  1
  V  V28  1  0.74517260  0.62270759  0.37691903  1
  V  V29  1  -0.00458182  0.49908242  0.49986585  1
  V  V30  1  0.36614661  0.62533891  0.75822975  1
  V  V31  1  0.86330574  0.11962113  0.75863352  1
  V  V32  1  0.87527205  0.49078198  0.37388257  1
  V  V33  1  0.12564810  0.63467692  -0.01193601  1
  V  V34  1  0.24312059  0.24663800  -0.00975534  1
  V  V35  1  0.74969069  0.26365073  0.00588199  1
  V  V36  1  0.74506420  0.74386357  0.50379095  1
  V  V37  1  0.62458029  0.36263878  0.25707671  1
  V  V38  1  0.87080822  0.63697953  0.24794789  1
  V  V39  1  0.24008428  0.23700048  0.49982038  1
  V  V40  1  -0.00296132  0.63793504  0.13145748  1
  V  V41  1  0.00152847  0.62683316  0.61854953  1
  V  V42  1  0.48015433  0.14264078  0.11243405  1
  V  V43  1  0.48129941  0.25106954  0.25086425  1
  V  V44  1  0.24226433  0.86715558  0.14038762  1
  V  V45  1  0.26209705  0.75246949  -0.01468441  1
  V  V46  1  0.86789177  0.74833193  0.62461634  1
  V  V47  1  0.62401461  0.62004845  0.50577219  1
  V  V48  1  0.75045790  0.63427583  0.87674772  1
  V  V49  1  -0.02009037  0.85870143  0.35319748  1
  V  V50  1  0.51417947  0.61320376  0.64011514  1
  V  V51  1  0.63855342  0.00727924  0.11781360  1
  V  V52  1  0.00816630  0.74778691  0.76054497  1
  V  V53  1  0.35546888  0.50427324  0.87319439  1
  V  V54  1  0.24806581  0.50406449  0.26461373  1
  V  V55  1  0.13108087  0.37636709  0.74885866  1
  V  V56  1  0.14602081  0.88007323  0.74285333  1
  V  V57  1  0.36493272  0.01644102  0.85820350  1
  V  V58  1  0.36991118  0.24466322  0.62501108  1
  V  V59  1  0.76583231  0.74887365  0.02244138  1
  V  V60  1  0.62610119  0.25579711  0.86398230  1
  V  V61  1  0.12922423  0.49184912  0.12994657  1
  V  V62  1  -0.00922390  0.24360765  0.72580151  1
  V  V63  1  0.35606948  -0.00199725  0.36626437  1
  V  V64  1  0.00569453  0.88523525  0.87342389  1
  V  V65  1  0.01349861  0.38071668  0.37147322  1
  V  V66  1  0.34798721  0.37964561  0.50994445  1
  V  V67  1  0.13483227  0.50077222  0.62423003  1
  V  V68  1  0.87287431  0.62290982  0.75359952  1
  V  V69  1  0.60883581  0.83592850  0.29097553  1
  Zn  Zn70  1  0.46511159  0.57643694  0.06420559  1
  Zn  Zn71  1  0.25786882  0.36448390  0.13513955  1
  Zn  Zn72  1  0.38282616  0.73379859  0.12773678  1
  Zn  Zn73  1  0.86913553  0.37335456  0.00848833  1
  Zn  Zn74  1  0.00568097  0.00097682  -0.00290268  1
  Zn  Zn75  1  0.35883028  0.87321570  0.50323477  1
  Zn  Zn76  1  0.17737664  0.20173272  0.17329170  1
  Zn  Zn77  1  0.18442647  0.20797484  0.69236345  1
  Zn  Zn78  1  0.20103157  0.67504372  0.17220401  1
  Zn  Zn79  1  0.18645896  0.69036752  0.68192667  1
  Zn  Zn80  1  0.68173760  0.18082953  0.18011450  1
  Zn  Zn81  1  0.68464623  0.17196331  0.70763807  1
  Zn  Zn82  1  0.67985857  0.68443307  0.19243304  1
  Zn  Zn83  1  0.68281547  0.68481270  0.69154576  1
  Zn  Zn84  1  0.30654483  0.32225815  0.32114097  1
  Zn  Zn85  1  0.31255147  0.30935188  0.81437133  1
  Zn  Zn86  1  0.30198311  0.80373042  0.32849706  1
  Zn  Zn87  1  0.32119047  0.80548711  0.81551527  1
  Zn  Zn88  1  0.81785832  0.31031033  0.18635252  1
  Zn  Zn89  1  0.82119055  0.31814066  0.81005797  1
  Zn  Zn90  1  0.79604862  0.82367483  0.31624159  1
  Zn  Zn91  1  0.82238141  0.80919281  0.82427380  1
  Zn  Zn92  1  0.18032708  0.44636686  0.43990525  1
  Zn  Zn93  1  0.18466978  0.43505280  0.93882033  1
  Zn  Zn94  1  0.18078898  0.94674032  0.44111377  1
  Zn  Zn95  1  0.19103917  0.92785352  0.93302436  1
  Zn  Zn96  1  0.69038189  0.42850069  0.43628107  1
  Zn  Zn97  1  0.68092169  0.44283935  0.92008111  1
  Zn  Zn98  1  0.57699555  0.95430077  0.43352783  1
  Zn  Zn99  1  0.67158332  0.91673548  0.96891459  1
  Zn  Zn100  1  0.30163287  0.05309753  0.06168630  1
  Zn  Zn101  1  0.35995709  0.08757393  0.50801236  1
  Zn  Zn102  1  0.30228866  0.56296598  0.05439540  1
  Zn  Zn103  1  0.32603411  0.56127061  0.57977321  1
  Zn  Zn104  1  0.82275005  0.07434260  0.05494413  1
  Zn  Zn105  1  0.83556751  0.10187539  0.55172177  1
  Zn  Zn106  1  0.81397006  0.55921887  0.06655957  1
  Zn  Zn107  1  0.81583572  0.55655140  0.56453600  1
  Zn  Zn108  1  0.44144443  0.43917170  0.19340589  1
  Zn  Zn109  1  0.43022529  0.43506103  0.68918744  1
  Zn  Zn110  1  0.40965224  0.88932607  0.23996976  1
  Zn  Zn111  1  0.41409299  0.92853204  0.69153407  1
  Zn  Zn112  1  0.93791643  0.44410565  0.18504983  1
  Zn  Zn113  1  0.96212370  0.44941263  0.70276984  1
  Zn  Zn114  1  0.94288767  0.93149465  0.18639404  1
  Zn  Zn115  1  0.92380783  0.93537618  0.69759615  1
  Zn  Zn116  1  0.00373187  0.08589327  0.36764858  1
  Zn  Zn117  1  0.06770613  0.06254951  0.79713904  1
  Zn  Zn118  1  0.05846465  0.56478004  0.30543610  1
  Zn  Zn119  1  0.06107327  0.56091900  0.81107523  1
  Zn  Zn120  1  0.50992612  0.02391746  0.25625595  1
  Zn  Zn121  1  0.56052496  0.06390324  0.81060071  1
  Zn  Zn122  1  0.56467212  0.55328118  0.31669223  1
  Zn  Zn123  1  0.57146388  0.55249928  0.82452656  1
  Zn  Zn124  1  0.48924481  0.13013125  0.39849155  1
  Zn  Zn125  1  0.42870799  0.19248770  0.93143860  1
  Zn  Zn126  1  0.41759141  0.67546441  0.46298386  1
  Zn  Zn127  1  0.47722585  0.73420819  0.98164151  1
  Zn  Zn128  1  0.88313345  0.23226740  0.37682835  1
  Zn  Zn129  1  0.93577189  0.18196361  0.94118820  1
  Zn  Zn130  1  0.93259987  0.68707593  0.43486642  1
  Zn  Zn131  1  0.94010138  0.68841907  0.94300795  1
  Zn  Zn132  1  0.07018338  0.31229926  0.05401293  1
  Zn  Zn133  1  0.06091081  0.31853691  0.55848556  1
  Zn  Zn134  1  0.06668536  0.81704008  0.06367971  1
  Zn  Zn135  1  0.05766317  0.81456597  0.56456195  1
  Zn  Zn136  1  0.56032585  0.31744255  0.05554584  1
  Zn  Zn137  1  0.54009963  0.27088143  0.52649827  1
  Zn  Zn138  1  0.54066798  0.84355788  0.11729304  1
  Zn  Zn139  1  0.47944059  0.79853972  0.57582730  1
  O  O140  1  0.11404809  0.12965528  0.11008617  1
  O  O141  1  0.16038196  0.10139613  0.63698298  1
  O  O142  1  0.11181027  0.61557829  0.11914839  1
  O  O143  1  0.11080934  0.61112120  0.63778937  1
  O  O144  1  0.61528832  0.12724712  0.10050955  1
  O  O145  1  0.62934572  0.12054186  0.62815498  1
  O  O146  1  0.62861438  0.61592281  0.11262330  1
  O  O147  1  0.62389164  0.61005503  0.62353090  1
  O  O148  1  0.36450883  0.39077824  0.40036665  1
  O  O149  1  0.37640223  0.38357292  0.87789833  1
  O  O150  1  0.37646751  0.88616896  0.35592354  1
  O  O151  1  0.39441312  0.88718361  0.86195742  1
  O  O152  1  0.89359316  0.39076717  0.36721115  1
  O  O153  1  0.88776580  0.38505637  0.88198910  1
  O  O154  1  0.87999020  0.87617981  0.36782031  1
  O  O155  1  0.89642890  0.86348796  0.89132781  1
  O  O156  1  0.25503829  -0.00505101  0.37015441  1
  O  O157  1  0.27002442  -0.01151512  0.87744953  1
  O  O158  1  0.24776863  0.50406625  0.36795238  1
  O  O159  1  0.25622137  0.49582607  0.87266366  1
  O  O160  1  0.72402250  0.04664390  0.34668678  1
  O  O161  1  0.75062337  0.00126508  0.90001964  1
  O  O162  1  0.75820772  0.50191795  0.36784974  1
  O  O163  1  0.77291152  0.51681350  0.89288047  1
  O  O164  1  0.23337690  0.49663591  0.12079977  1
  O  O165  1  0.23321534  0.50988914  0.62405155  1
  O  O166  1  0.26754174  0.96589083  0.12076264  1
  O  O167  1  0.22510604  1.06878497  0.66946042  1
  O  O168  1  0.73863712  0.50669193  0.13688267  1
  O  O169  1  0.76081333  0.48215837  0.63633536  1
  O  O170  1  0.73711296  1.02010741  0.10584542  1
  O  O171  1  0.77564581  0.99196516  0.59152413  1
  O  O172  1  0.00325466  0.36957242  0.25357868  1
  O  O173  1  -0.00557406  0.36137895  0.76268834  1
  O  O174  1  -0.01048588  0.85502214  0.25272766  1
  O  O175  1  -0.00850115  0.85843329  0.76096225  1
  O  O176  1  0.51297741  0.35988630  0.23962370  1
  O  O177  1  0.49005336  0.36712487  0.76161242  1
  O  O178  1  0.53103159  0.87987998  0.23040425  1
  O  O179  1  0.51663125  0.86796582  0.75967479  1
  O  O180  1  0.49724526  0.14157780  0.21958138  1
  O  O181  1  0.49867890  0.13902210  0.74661912  1
  O  O182  1  0.48777688  0.62596826  0.25603052  1
  O  O183  1  0.51820447  0.62570006  0.75757640  1
  O  O184  1  1.00203121  0.13524904  0.22991086  1
  O  O185  1  1.00926829  0.14431594  0.74108374  1
  O  O186  1  0.98764709  0.62396309  0.23854739  1
  O  O187  1  0.99310209  0.63452672  0.74348104  1
  O  O188  1  0.36281432  0.26536542  -0.00361001  1
  O  O189  1  0.35419973  0.26866985  0.50469390  1
  O  O190  1  0.36215072  0.74356770  -0.01155435  1
  O  O191  1  0.43076665  0.78100890  0.47631005  1
  O  O192  1  0.85124706  0.24975021  -0.01599146  1
  O  O193  1  0.85835249  0.23300688  0.49123892  1
  O  O194  1  0.86919541  0.75000912  0.00703589  1
  O  O195  1  0.86228406  0.73740487  0.51716327  1
  O  O196  1  0.13200246  0.25511201  0.49165893  1
  O  O197  1  0.13517825  0.24235667  0.99273456  1
  O  O198  1  0.12306720  0.74439217  0.49873713  1
  O  O199  1  0.11706271  0.73494749  0.99715737  1
  O  O200  1  0.64882390  0.24321827  0.50278286  1
  O  O201  1  0.63158241  0.24667761  0.98824336  1
  O  O202  1  0.63453113  0.72367391  0.50917332  1
  O  O203  1  0.64703897  0.73639034  1.00473493  1
  O  O204  1  0.49618801  0.24608817  0.11927449  1
  O  O205  1  0.48482958  0.26045640  0.63602977  1
  O  O206  1  0.49543092  0.74814982  0.09217443  1
  O  O207  1  0.51676046  0.72638123  0.65083520  1
  O  O208  1  1.01207078  0.25654772  0.13517178  1
  O  O209  1  0.99090823  0.26064126  0.62789211  1
  O  O210  1  1.00280378  0.73477742  0.12043355  1
  O  O211  1  0.98721355  0.74221008  0.63436441  1
  O  O212  1  0.01114775  0.26396329  0.36744249  1
  O  O213  1  -0.00020887  0.26535147  0.88443477  1
  O  O214  1  -0.00300562  0.76308481  0.38593092  1
  O  O215  1  -0.00129612  0.74506082  0.86171391  1
  O  O216  1  0.50325523  0.23307560  0.34603852  1
  O  O217  1  0.49159587  0.25669590  0.85693969  1
  O  O218  1  0.45442970  0.68377031  0.30057232  1
  O  O219  1  0.50510773  0.77235738  0.87734334  1
  O  O220  1  0.24887944  0.14049273  0.49636557  1
  O  O221  1  0.23735688  0.13322051  1.00260312  1
  O  O222  1  0.27829091  0.66396976  0.53871419  1
  O  O223  1  0.23121608  0.63599825  1.00077578  1
  O  O224  1  0.74215556  0.14332311  0.50579541  1
  O  O225  1  0.73754282  0.14154274  0.99259248  1
  O  O226  1  0.74385538  0.61888058  0.49699762  1
  O  O227  1  0.75407221  0.63388058  0.99846769  1
  O  O228  1  0.25550535  0.36617304  -0.00107856  1
  O  O229  1  0.24720417  0.38178823  0.50901534  1
  O  O230  1  0.23995032  0.85376721  0.00610273  1
  O  O231  1  0.24142069  0.85734189  0.49157942  1
  O  O232  1  0.74374937  0.36519808  -0.01380049  1
  O  O233  1  0.75420234  0.35833949  0.49361803  1
  O  O234  1  0.76817526  0.85881339  -0.00263568  1
  O  O235  1  0.74094007  0.85394609  0.50729014  1
  O  O236  1  0.13453777  0.50482663  0.24008267  1
  O  O237  1  0.10750685  0.48741122  0.73710288  1
  O  O238  1  0.19678465  1.04595297  0.23837031  1
  O  O239  1  0.13133799  0.97926489  0.75362235  1
  O  O240  1  0.62982918  0.48952647  0.24206519  1
  O  O241  1  0.64668595  0.47237058  0.81556266  1
  O  O242  1  0.61946663  1.01633174  0.21510729  1
  O  O243  1  0.64838943  0.99927826  0.76889876  1
  O  O244  1  0.39391733  0.00479187  0.26393981  1
  O  O245  1  0.38474594  0.00804071  0.75773407  1
  O  O246  1  0.37514604  0.49439620  0.27503481  1
  O  O247  1  0.37543316  0.50885804  0.76167458  1
  O  O248  1  0.87400066  0.01323676  0.22733411  1
  O  O249  1  0.85444174  0.00501751  0.76065073  1
  O  O250  1  0.86564636  0.50728174  0.25547029  1
  O  O251  1  0.89174353  0.51625189  0.76482999  1
  O  O252  1  0.11622878  0.37675785  0.37454676  1
  O  O253  1  0.10813386  0.38710998  0.86099078  1
  O  O254  1  0.08544879  0.91721468  0.36621182  1
  O  O255  1  0.11075997  0.86882743  0.86184998  1
  O  O256  1  0.62413764  0.37669565  0.35537813  1
  O  O257  1  0.59720440  0.35694804  0.88883614  1
  O  O258  1  0.58828890  0.85121479  0.38961619  1
  O  O259  1  0.61417307  0.88624798  0.87213510  1
  O  O260  1  0.38282503  0.12753532  0.10550987  1
  O  O261  1  0.37960090  0.14792123  0.60283089  1
  O  O262  1  0.37711851  0.61949384  0.11436189  1
  O  O263  1  0.40072983  0.61194237  0.65167724  1
  O  O264  1  0.90021357  0.13051414  0.12064057  1
  O  O265  1  0.87143645  0.12418014  0.65693792  1
  O  O266  1  0.88846025  0.61843072  0.13267414  1
  O  O267  1  0.88081252  0.62794863  0.63596437  1
  O  O268  1  0.24613965  0.25620898  0.10665901  1
  O  O269  1  0.25564159  0.25104833  0.61198917  1
  O  O270  1  0.25536991  0.75029764  0.11141503  1
  O  O271  1  0.26240105  0.72769883  0.59703800  1
  O  O272  1  0.74565700  0.25728072  0.10808494  1
  O  O273  1  0.73468512  0.27437644  0.65482766  1
  O  O274  1  0.75226365  0.74341553  0.12066506  1
  O  O275  1  0.75564269  0.73811503  0.61958263  1
  O  O276  1  0.23190001  0.25650178  0.38431237  1
  O  O277  1  0.25356802  0.24909106  0.88910139  1
  O  O278  1  0.25570398  0.72944930  0.39726709  1
  O  O279  1  0.24728462  0.75270505  0.88539493  1
  O  O280  1  0.76199991  0.25296586  0.36832890  1
  O  O281  1  0.72746427  0.26699871  0.86107811  1
  O  O282  1  0.75689483  0.73045139  0.39165690  1
  O  O283  1  0.75972891  0.73594042  0.88927189  1
  O  O284  1  0.01116774  0.12391203  0.00620950  1
  O  O285  1  -0.01140703  0.08714668  0.48991476  1
  O  O286  1  0.00490082  0.61762054  0.01098052  1
  O  O287  1  -0.00569765  0.61857211  0.51204340  1
  O  O288  1  0.50402934  0.12844455  -0.00219134  1
  O  O289  1  0.53077756  0.15754591  0.50095029  1
  O  O290  1  0.52750166  0.62526393  -0.01767819  1
  O  O291  1  0.50781331  0.61092812  0.51981039  1
  O  O292  1  0.50298384  0.37900655  0.50726382  1
  O  O293  1  0.47952719  0.36604609  0.98560573  1
  O  O294  1  0.53940910  0.91613868  0.55559115  1
  O  O295  1  0.50436828  0.89953913  0.98444638  1
  O  O296  1  1.00317978  0.39144045  0.48866687  1
  O  O297  1  1.00561096  0.38458411  0.98894029  1
  O  O298  1  0.98622837  0.88669603  0.51416748  1
  O  O299  1  1.00268779  0.87848114  0.98685249  1
  O  O300  1  0.49063009  0.49958388  0.39487168  1
  O  O301  1  0.48780234  0.48413294  0.87464988  1
  O  O302  1  0.52091834  1.02547831  0.36825852  1
  O  O303  1  0.49217974  1.00128522  0.87843829  1
  O  O304  1  0.99895656  0.50165795  0.37959216  1
  O  O305  1  0.99322154  0.49758029  0.88608746  1
  O  O306  1  1.01717703  0.96682200  0.38186431  1
  O  O307  1  1.00234590  0.98565975  0.86680383  1
  O  O308  1  0.00973449  0.00811172  0.12324013  1
  O  O309  1  -0.00258727  -0.00551957  0.63735071  1
  O  O310  1  0.01127059  0.50697544  0.11934399  1
  O  O311  1  -0.00363813  0.50860755  0.61562305  1
  O  O312  1  0.50614095  0.02002334  0.10121656  1
  O  O313  1  0.52252446  -0.02845082  0.60418592  1
  O  O314  1  0.51834962  0.50079441  0.12986506  1
  O  O315  1  0.50345766  0.49602187  0.61933419  1
  O  O316  1  0.25880692  0.39657036  0.24496340  1
  O  O317  1  0.22888076  0.36775298  0.75636675  1
  O  O318  1  0.24485302  0.84863703  0.24166407  1
  O  O319  1  0.24469031  0.86007857  0.75087844  1
  O  O320  1  0.73866468  0.38288749  0.24273214  1
  O  O321  1  0.77272983  0.40366587  0.74143909  1
  O  O322  1  0.70316926  0.87065193  0.27338441  1
  O  O323  1  0.75064856  0.89033586  0.78611124  1
  O  O324  1  0.23606012  0.10769511  0.23821472  1
  O  O325  1  0.25172885  0.11368922  0.72965887  1
  O  O326  1  0.25960980  0.60005471  0.23758421  1
  O  O327  1  0.26941958  0.63905543  0.74369913  1
  O  O328  1  0.77790886  0.14249435  0.22531505  1
  O  O329  1  0.75672915  0.11549588  0.77460077  1
  O  O330  1  0.75043540  0.61247239  0.25996040  1
  O  O331  1  0.75899820  0.63044506  0.76755378  1
  O  O332  1  0.37615301  0.10306275  0.39114733  1
  O  O333  1  0.36987696  0.11600775  0.87293931  1
  O  O334  1  0.36567248  0.59875879  0.40321162  1
  O  O335  1  0.37331720  0.60796385  0.86720461  1
  O  O336  1  0.89834490  0.12098240  0.34053304  1
  O  O337  1  0.89923143  0.12107563  0.85528047  1
  O  O338  1  0.86680529  0.61360480  0.36734901  1
  O  O339  1  0.87310644  0.62262593  0.87162026  1
  O  O340  1  0.12200441  0.39128589  0.12069803  1
  O  O341  1  0.11793420  0.38961938  0.63547349  1
  O  O342  1  0.13988148  0.86739839  0.12828950  1
  O  O343  1  0.12487884  0.85970767  0.64604657  1
  O  O344  1  0.62507678  0.38694829  0.12321561  1
  O  O345  1  0.68161384  0.32223889  0.63632436  1
  O  O346  1  0.62866483  0.90712395  0.08569035  1
  O  O347  1  0.66828247  0.88360516  0.65670013  1
  O  O348  1  0.11616564  0.24641846  0.26275889  1
  O  O349  1  0.10535804  0.26946825  0.74198751  1
  O  O350  1  0.13382543  0.71302392  0.27823476  1
  O  O351  1  0.10993866  0.74866907  0.74825840  1
  O  O352  1  0.62681461  0.26217235  0.23847216  1
  O  O353  1  0.60686814  0.24850600  0.75864249  1
  O  O354  1  0.61335487  0.73644141  0.26746571  1
  O  O355  1  0.62563024  0.76064249  0.75983887  1
  O  O356  1  0.38240170  0.26676791  0.25228342  1
  O  O357  1  0.37470269  0.25094652  0.73426803  1
  O  O358  1  0.40270615  0.73038760  0.26140950  1
  O  O359  1  0.39994280  0.72947692  0.76777997  1
  O  O360  1  0.89823249  0.24951336  0.25074364  1
  O  O361  1  0.88569886  0.24079357  0.75536640  1
  O  O362  1  0.85250581  0.73357902  0.25581297  1
  O  O363  1  0.88003762  0.73873884  0.74516706  1
  O  O364  1  0.38473445  0.48776197  0.50873134  1
  O  O365  1  0.36887900  0.49003704  0.98483590  1
  O  O366  1  0.38082945  0.98071703  0.47556246  1
  O  O367  1  0.38673732  1.00941665  0.98712901  1
  O  O368  1  0.88548434  0.50605935  0.48717967  1
  O  O369  1  0.88943673  0.50055637  0.99809478  1
  O  O370  1  0.91724109  1.03964310  0.49455277  1
  O  O371  1  0.88136573  0.98826000  0.99938370  1
  O  O372  1  0.12841680  0.01406319  -0.01126744  1
  O  O373  1  0.11316560  -0.01052267  0.51983609  1
  O  O374  1  0.11777167  0.50797645  0.00853023  1
  O  O375  1  0.11302500  0.50137946  0.51700958  1
  O  O376  1  0.61513185  0.02449037  -0.01205020  1
  O  O377  1  0.63421041  0.03321259  0.49086014  1
  O  O378  1  0.63663436  0.50634831  0.01250040  1
  O  O379  1  0.61380643  0.49780417  0.49790358  1
  O  O380  1  0.37585545  0.39115958  0.10792903  1
  O  O381  1  0.37140427  0.36852355  0.61436431  1
  O  O382  1  0.36856550  0.84676395  0.14442075  1
  O  O383  1  0.39015320  0.85810446  0.61584309  1
  O  O384  1  0.87753770  0.37801815  0.11965538  1
  O  O385  1  0.80566499  0.42488316  0.67180000  1
  O  O386  1  0.89443972  0.87089217  0.10165081  1
  O  O387  1  0.85052770  0.86023798  0.64239819  1
  O  O388  1  0.10948336  0.13830978  0.37826586  1
  O  O389  1  0.11644174  0.12718410  0.88210842  1
  O  O390  1  0.12455556  0.66333502  0.33376006  1
  O  O391  1  0.11597555  0.61697477  0.89007706  1
  O  O392  1  0.68147475  0.10460851  0.34466868  1
  O  O393  1  0.61358749  0.14543734  0.88128427  1
  O  O394  1  0.63730404  0.60878840  0.38880987  1
  O  O395  1  0.64854385  0.61992656  0.89072572  1
