# generated using pymatgen
data_V35Zn35O128
_symmetry_space_group_name_H-M   'P 1'
_cell_length_a   16.88669498
_cell_length_b   16.98416535
_cell_length_c   16.99598051
_cell_angle_alpha   90.16638201
_cell_angle_beta   89.95281624
_cell_angle_gamma   89.46209655
_symmetry_Int_Tables_number   1
_chemical_formula_structural   V35Zn35O128
_chemical_formula_sum   'V70 Zn70 O256'
_cell_volume   4874.31918636
_cell_formula_units_Z   2
loop_
 _symmetry_equiv_pos_site_id
 _symmetry_equiv_pos_as_xyz
  1  'x, y, z'
loop_
 _atom_site_type_symbol
 _atom_site_label
 _atom_site_symmetry_multiplicity
 _atom_site_fract_x
 _atom_site_fract_y
 _atom_site_fract_z
 _atom_site_occupancy
  V  V0  1  0.75455790  0.00272102  0.73974889  1
  V  V1  1  0.10532541  0.13634681  0.49341655  1
  V  V2  1  0.49301641  -0.01316637  0.49245939  1
  V  V3  1  0.36883165  0.12168883  0.25967338  1
  V  V4  1  0.37154674  0.24397172  0.11897723  1
  V  V5  1  0.72235046  0.25760326  0.00739765  1
  V  V6  1  0.49885477  0.62677116  0.61830827  1
  V  V7  1  0.11748394  0.87852034  0.74283003  1
  V  V8  1  0.77272394  0.87837570  0.61060216  1
  V  V9  1  0.49397487  0.09787181  0.11922190  1
  V  V10  1  0.60771882  0.51194632  0.14255143  1
  V  V11  1  0.51925543  0.24202331  0.24826969  1
  V  V12  1  0.12510466  0.23803809  0.87757344  1
  V  V13  1  0.11829414  0.87685922  0.26388261  1
  V  V14  1  0.74273793  0.87596966  0.12276922  1
  V  V15  1  0.24913562  -0.01062397  0.72757571  1
  V  V16  1  0.13723614  0.38576706  0.23168372  1
  V  V17  1  0.86761273  0.50468604  0.36920959  1
  V  V18  1  0.87191282  0.13491827  0.71403203  1
  V  V19  1  -0.00171703  0.24682151  0.72986394  1
  V  V20  1  0.36132272  0.60075244  0.23897739  1
  V  V21  1  0.36848652  0.26034338  0.62127801  1
  V  V22  1  0.25207209  0.86812385  0.11338542  1
  V  V23  1  0.13016502  0.72235094  0.38782194  1
  V  V24  1  0.50129862  0.40459961  0.40301447  1
  V  V25  1  0.09673089  0.74894225  0.87402788  1
  V  V26  1  0.25372566  0.76736789  0.50800224  1
  V  V27  1  0.12280414  -0.00025467  0.11192994  1
  V  V28  1  0.74872536  0.39939614  0.13264462  1
  V  V29  1  -0.02017535  0.62290096  0.64843002  1
  V  V30  1  0.87987383  0.37219172  0.00085049  1
  V  V31  1  0.75902667  0.73174376  0.01141477  1
  V  V32  1  0.24973158  0.24929723  0.47750734  1
  V  V33  1  0.00880669  0.24249843  0.25117513  1
  V  V34  1  0.00216059  -0.02253181  0.52229328  1
  V  V35  1  0.49295020  0.74421725  0.26693411  1
  V  V36  1  0.62634514  -0.00099082  0.61573078  1
  V  V37  1  0.89248695  -0.00243646  0.36937583  1
  V  V38  1  0.00350533  0.50657888  0.49740915  1
  V  V39  1  0.86061649  0.36931611  0.50147172  1
  V  V40  1  0.89087857  0.75560856  0.13009531  1
  V  V41  1  0.62480911  0.38722584  0.78802963  1
  V  V42  1  0.50293796  0.24641901  0.75969185  1
  V  V43  1  0.63100430  0.13390683  0.48022791  1
  V  V44  1  -0.01298306  0.90921249  0.89003949  1
  V  V45  1  0.75745946  0.60940492  0.86837090  1
  V  V46  1  0.12587833  0.62364739  0.01061085  1
  V  V47  1  0.49234462  0.12461836  0.61535758  1
  V  V48  1  0.37014080  -0.02047611  0.37633530  1
  V  V49  1  0.25440147  0.24380527  -0.00097483  1
  V  V50  1  0.74802342  -0.00414734  0.26080941  1
  V  V51  1  0.61185454  0.09165751  0.00239572  1
  V  V52  1  0.62032400  0.86583256  0.27358001  1
  V  V53  1  0.75382754  0.74829508  0.49544738  1
  V  V54  1  0.63172975  0.75748072  0.86890400  1
  V  V55  1  0.87340915  0.24358650  0.12447930  1
  V  V56  1  0.12645318  0.37181533  0.74831880  1
  V  V57  1  0.73748526  0.63419289  0.37046749  1
  V  V58  1  0.12537977  0.50832942  0.62405038  1
  V  V59  1  0.24707676  -0.00127569  0.25614602  1
  V  V60  1  0.00109207  0.11780665  0.10981616  1
  V  V61  1  0.87542984  0.49304969  0.86646385  1
  V  V62  1  0.25589001  0.50539811  0.76028027  1
  V  V63  1  0.61112210  0.61839852  0.00685458  1
  V  V64  1  0.00928529  0.37648837  0.36966756  1
  V  V65  1  0.38348182  0.49487094  0.88188044  1
  V  V66  1  0.76797066  0.08911793  0.91994798  1
  V  V67  1  0.40589562  0.87917636  -0.01363349  1
  V  V68  1  0.88783642  0.62657673  0.25114266  1
  V  V69  1  0.25751464  0.64640251  0.87097233  1
  Zn  Zn70  1  0.25910312  0.39017897  0.61867166  1
  Zn  Zn71  1  0.24724567  0.10929596  0.87192079  1
  Zn  Zn72  1  0.00440722  0.75608327  0.26668912  1
  Zn  Zn73  1  0.01579418  0.49708131  0.01105356  1
  Zn  Zn74  1  0.38506735  0.74593509  0.11615199  1
  Zn  Zn75  1  0.00129323  0.37102257  0.87335203  1
  Zn  Zn76  1  0.18509073  0.18418352  0.18729472  1
  Zn  Zn77  1  0.18438624  0.17328174  0.68007814  1
  Zn  Zn78  1  0.19282877  0.68933477  0.19587062  1
  Zn  Zn79  1  0.17614627  0.69534140  0.69437983  1
  Zn  Zn80  1  0.70032235  0.17478058  0.30445452  1
  Zn  Zn81  1  0.68281965  0.18494981  0.67288076  1
  Zn  Zn82  1  0.68689481  0.68761583  0.19445083  1
  Zn  Zn83  1  0.75549638  0.72103356  0.71503292  1
  Zn  Zn84  1  0.33020310  0.32682256  0.30010259  1
  Zn  Zn85  1  0.31248841  0.31544949  0.81325758  1
  Zn  Zn86  1  0.30439232  0.80532539  0.30948131  1
  Zn  Zn87  1  0.36153329  0.98560422  0.86997812  1
  Zn  Zn88  1  0.82284899  0.31604468  0.30509795  1
  Zn  Zn89  1  0.80447195  0.29856803  0.82082368  1
  Zn  Zn90  1  0.81704890  0.81751788  0.31583444  1
  Zn  Zn91  1  0.84637127  0.80188543  0.83905002  1
  Zn  Zn92  1  0.18034791  0.42086946  0.44550923  1
  Zn  Zn93  1  0.20408777  0.43661051  1.05613684  1
  Zn  Zn94  1  0.18000807  0.94518701  0.44921201  1
  Zn  Zn95  1  0.18611218  0.92719602  0.92684540  1
  Zn  Zn96  1  0.68268168  0.32009943  0.41740588  1
  Zn  Zn97  1  0.53737697  0.44014367  0.95560516  1
  Zn  Zn98  1  0.68858651  0.94082713  0.43981320  1
  Zn  Zn99  1  0.71584765  0.92956630  0.93970171  1
  Zn  Zn100  1  0.30696530  0.05742209  0.05592231  1
  Zn  Zn101  1  0.30561673  0.06533336  0.55476688  1
  Zn  Zn102  1  0.31099048  0.58372443  0.05426286  1
  Zn  Zn103  1  0.29200358  0.61297324  0.59128705  1
  Zn  Zn104  1  0.77223871  0.09346275  0.11706542  1
  Zn  Zn105  1  0.81927716  0.06298023  0.54213176  1
  Zn  Zn106  1  0.84905503  0.55406344  0.07502890  1
  Zn  Zn107  1  0.81987054  0.57019164  0.54703199  1
  Zn  Zn108  1  0.40585753  0.44987635  0.10808108  1
  Zn  Zn109  1  0.44461724  0.43112044  0.69862883  1
  Zn  Zn110  1  0.46469107  0.89413298  0.16232524  1
  Zn  Zn111  1  0.37004125  1.11503883  0.74820597  1
  Zn  Zn112  1  0.94773182  0.43662332  0.18432028  1
  Zn  Zn113  1  0.93542016  0.43047724  0.68023554  1
  Zn  Zn114  1  0.93481518  0.93876362  0.18716040  1
  Zn  Zn115  1  0.93893904  0.93509907  0.69967706  1
  Zn  Zn116  1  0.07121912  0.06929094  0.31804463  1
  Zn  Zn117  1  0.05758251  0.06192511  0.79906681  1
  Zn  Zn118  1  0.06628380  0.55804264  0.30612230  1
  Zn  Zn119  1  0.06278696  0.55800060  0.82178500  1
  Zn  Zn120  1  0.55696472  0.04954394  0.30537608  1
  Zn  Zn121  1  0.59496733  0.10469162  0.79800444  1
  Zn  Zn122  1  0.54817262  0.56730396  0.31432781  1
  Zn  Zn123  1  0.57178243  0.57225408  0.81482155  1
  Zn  Zn124  1  0.43510524  0.19584623  0.43369318  1
  Zn  Zn125  1  0.42983657  0.16935711  0.93423483  1
  Zn  Zn126  1  0.39800841  0.68090107  0.42892881  1
  Zn  Zn127  1  0.43649899  0.70224097  0.92575019  1
  Zn  Zn128  1  0.91866797  0.18569736  0.42390745  1
  Zn  Zn129  1  0.94163069  0.18598721  0.93284035  1
  Zn  Zn130  1  0.93888896  0.69652266  0.44320651  1
  Zn  Zn131  1  0.93761214  0.67676229  0.94424573  1
  Zn  Zn132  1  0.06465136  0.30459590  0.06180544  1
  Zn  Zn133  1  0.06718020  0.31693116  0.55509022  1
  Zn  Zn134  1  0.06848748  0.81750728  0.05533309  1
  Zn  Zn135  1  0.05890848  0.79127522  0.56157104  1
  Zn  Zn136  1  0.54993245  0.32706625  0.10078716  1
  Zn  Zn137  1  0.55399824  0.30414827  0.55360215  1
  Zn  Zn138  1  0.57047492  0.80194220  0.06304531  1
  Zn  Zn139  1  0.57211341  0.81319768  0.55699361  1
  O  O140  1  0.11301882  0.11037574  0.12888579  1
  O  O141  1  0.12840268  0.12957328  0.59480172  1
  O  O142  1  0.13517059  0.64501999  0.10690471  1
  O  O143  1  0.11081436  0.60822188  0.63707902  1
  O  O144  1  0.60042223  0.11150997  0.11022017  1
  O  O145  1  0.61251804  0.12241185  0.60283727  1
  O  O146  1  0.63297608  0.61944654  0.11525766  1
  O  O147  1  0.59012623  0.59919888  0.57881892  1
  O  O148  1  0.41203463  0.37337971  0.35816796  1
  O  O149  1  0.37547139  0.39438268  0.86934778  1
  O  O150  1  0.37345230  0.88285519  0.37006903  1
  O  O151  1  0.40469172  0.87784294  0.88582928  1
  O  O152  1  0.88655453  0.39338280  0.36873683  1
  O  O153  1  0.87243965  0.37101549  0.88788797  1
  O  O154  1  0.86957471  0.89612945  0.37604503  1
  O  O155  1  0.88389489  0.89452408  0.88167504  1
  O  O156  1  0.25971860  -0.00760375  0.37118620  1
  O  O157  1  0.24207051  -0.00668980  0.85861190  1
  O  O158  1  0.26379875  0.50120430  0.39359473  1
  O  O159  1  0.25972055  0.50759648  0.86203495  1
  O  O160  1  0.74926173  0.00053501  0.36198709  1
  O  O161  1  0.74221055  0.00932899  0.84414965  1
  O  O162  1  0.76788553  0.51887254  0.37512668  1
  O  O163  1  0.76331491  0.50626388  0.87794791  1
  O  O164  1  0.29390507  0.48261876  0.10088809  1
  O  O165  1  0.23867871  0.51239251  0.63115881  1
  O  O166  1  0.23533724  0.99391824  0.13319816  1
  O  O167  1  0.24920994  0.99936079  0.62707263  1
  O  O168  1  0.76113299  0.49808128  0.12624765  1
  O  O169  1  0.73522832  0.50769116  0.62163335  1
  O  O170  1  0.75903996  0.97742755  0.13245227  1
  O  O171  1  0.74793447  0.99676451  0.61419308  1
  O  O172  1  0.01185419  0.36993759  0.25010772  1
  O  O173  1  0.00406592  0.36005196  0.74891178  1
  O  O174  1  0.01637561  0.87462814  0.24335746  1
  O  O175  1  0.00599308  0.88799382  0.77594579  1
  O  O176  1  0.51387235  0.33712403  0.21804550  1
  O  O177  1  0.52264456  0.35384270  0.74099553  1
  O  O178  1  0.51566559  0.87346174  0.26589768  1
  O  O179  1  0.53508366  0.92314533  0.79010831  1
  O  O180  1  0.48460099  0.11701636  0.23688767  1
  O  O181  1  0.49578676  0.12602457  0.72838470  1
  O  O182  1  0.50263806  0.64529748  0.24159813  1
  O  O183  1  0.53114478  0.62779491  0.71762059  1
  O  O184  1  1.00751652  0.14061943  0.24682515  1
  O  O185  1  0.98514598  0.13699342  0.74330033  1
  O  O186  1  0.99152962  0.63239996  0.25429879  1
  O  O187  1  0.99456090  0.61300737  0.74683227  1
  O  O188  1  0.36744277  0.23894331  0.00767975  1
  O  O189  1  0.36709418  0.24927446  0.51344526  1
  O  O190  1  0.38417638  0.77336129  0.00096545  1
  O  O191  1  0.35496222  0.77253708  0.49082423  1
  O  O192  1  0.88301823  0.25677152  0.01141542  1
  O  O193  1  0.88149395  0.27254403  0.48611195  1
  O  O194  1  0.87113854  0.73742293  0.02089161  1
  O  O195  1  0.85903835  0.74923658  0.50125241  1
  O  O196  1  0.13715264  0.24866477  0.49219607  1
  O  O197  1  0.12895441  0.24480274  0.98255580  1
  O  O198  1  0.13532783  0.73268109  0.49236154  1
  O  O199  1  0.11879957  0.74288449  0.98020643  1
  O  O200  1  0.62115042  0.23743208  0.48552394  1
  O  O201  1  0.62490473  0.26630264  1.02569297  1
  O  O202  1  0.64971622  0.76044274  0.49699398  1
  O  O203  1  0.64406802  0.73509058  1.00073375  1
  O  O204  1  0.48114415  0.22244826  0.12897650  1
  O  O205  1  0.49006228  0.23848696  0.62534370  1
  O  O206  1  0.49340102  0.78130163  0.14397086  1
  O  O207  1  0.51631542  0.72835907  0.61597434  1
  O  O208  1  0.99918549  0.23428231  0.12753461  1
  O  O209  1  1.00204185  0.25618023  0.63250002  1
  O  O210  1  0.99138543  0.75866026  0.12537530  1
  O  O211  1  0.99693934  0.71781433  0.62034871  1
  O  O212  1  -0.01024993  0.26241186  0.35418772  1
  O  O213  1  0.01217822  0.24930601  0.86730612  1
  O  O214  1  0.02396729  0.74396677  0.38291507  1
  O  O215  1  -0.00426572  0.74701971  0.87330304  1
  O  O216  1  0.49544344  0.23612257  0.34742461  1
  O  O217  1  0.48773645  0.23599277  0.85687130  1
  O  O218  1  0.48572640  0.74279936  0.36691737  1
  O  O219  1  0.53069646  0.74368886  0.87324132  1
  O  O220  1  0.25338426  0.14666729  0.49523977  1
  O  O221  1  0.25136821  0.13290648  0.98711965  1
  O  O222  1  0.29863110  0.64085160  0.48307485  1
  O  O223  1  0.23709746  0.62962748  0.97834484  1
  O  O224  1  0.72915293  0.11821245  0.49629170  1
  O  O225  1  0.72482322  0.13803939  1.01876801  1
  O  O226  1  0.75114221  0.63640858  0.48590247  1
  O  O227  1  0.75696108  0.62822987  1.00824385  1
  O  O228  1  0.24507602  0.34379072  -0.00132538  1
  O  O229  1  0.24574323  0.35665287  0.51040264  1
  O  O230  1  0.23521358  0.87191548  0.01492724  1
  O  O231  1  0.22637401  0.86437756  0.51481275  1
  O  O232  1  0.76060894  0.35889150  0.02229674  1
  O  O233  1  0.76200425  0.37878751  0.48000069  1
  O  O234  1  0.75420975  0.85339674  0.01853050  1
  O  O235  1  0.75654221  0.87605651  0.50662257  1
  O  O236  1  0.12258759  0.48526215  0.24018049  1
  O  O237  1  0.13062305  0.49067890  0.74486929  1
  O  O238  1  0.13157270  0.99338521  0.24704497  1
  O  O239  1  0.12597807  0.98788878  0.74548570  1
  O  O240  1  0.62522366  0.51986227  0.23982225  1
  O  O241  1  0.62521187  0.48421792  0.76322155  1
  O  O242  1  0.63402673  0.97804837  0.25459913  1
  O  O243  1  0.64750925  1.02964935  0.72390638  1
  O  O244  1  0.36535679  0.00450145  0.26471306  1
  O  O245  1  0.35162131  -0.01144203  0.74619584  1
  O  O246  1  0.38153559  0.50365422  0.22624434  1
  O  O247  1  0.35944222  0.49661738  0.74992659  1
  O  O248  1  0.85901381  -0.00830988  0.25580744  1
  O  O249  1  0.86452125  0.02467232  0.73348991  1
  O  O250  1  0.88483719  0.51567802  0.26069328  1
  O  O251  1  0.87856827  0.47820715  0.76895217  1
  O  O252  1  0.11426350  0.38108377  0.36115248  1
  O  O253  1  0.12362618  0.35564374  0.85361508  1
  O  O254  1  0.12494494  0.88696665  0.36188016  1
  O  O255  1  0.10742427  0.86174298  0.87276098  1
  O  O256  1  0.59239827  0.36959605  0.37176289  1
  O  O257  1  0.60617251  0.38073585  0.88529995  1
  O  O258  1  0.63417298  0.86698984  0.37158330  1
  O  O259  1  0.65007783  0.85499591  0.88671580  1
  O  O260  1  0.37849392  0.11753107  0.12803972  1
  O  O261  1  0.38470895  0.12919806  0.62081898  1
  O  O262  1  0.37279722  0.63557675  0.13269579  1
  O  O263  1  0.39419415  0.63522646  0.64454341  1
  O  O264  1  0.88725976  0.13441199  0.12287291  1
  O  O265  1  0.87267436  0.13843956  0.61625328  1
  O  O266  1  0.86966929  0.64305659  0.14743372  1
  O  O267  1  0.88016026  0.60445329  0.63322712  1
  O  O268  1  0.25654505  0.22876679  0.10841633  1
  O  O269  1  0.26742202  0.24790880  0.63432932  1
  O  O270  1  0.25000849  0.76907657  0.13441595  1
  O  O271  1  0.24390065  0.72265173  0.60715291  1
  O  O272  1  0.77012861  0.24269941  0.11964882  1
  O  O273  1  0.71178965  0.28553299  0.61710891  1
  O  O274  1  0.75793609  0.75211694  0.12267389  1
  O  O275  1  0.74774267  0.77360873  0.61417074  1
  O  O276  1  0.26696142  0.26243564  0.38156471  1
  O  O277  1  0.24054485  0.24488336  0.87587740  1
  O  O278  1  0.23342579  0.76079281  0.38868219  1
  O  O279  1  0.25077249  0.74216325  0.86453212  1
  O  O280  1  0.75476848  0.25091048  0.36211013  1
  O  O281  1  0.74315977  0.24811216  0.90975664  1
  O  O282  1  0.75659062  0.74291667  0.38267474  1
  O  O283  1  0.76161284  0.73251390  0.89851273  1
  O  O284  1  0.00033204  0.12329901  0.01213300  1
  O  O285  1  0.00508437  0.14649076  0.49218444  1
  O  O286  1  0.02092665  0.61975278  -0.00574186  1
  O  O287  1  -0.00808484  0.60714859  0.50312816  1
  O  O288  1  0.50287104  0.10881826  0.00351334  1
  O  O289  1  0.50208235  0.12588491  0.50292980  1
  O  O290  1  0.51491806  0.63907498  -0.00250598  1
  O  O291  1  0.46122619  0.63009309  0.51978780  1
  O  O292  1  0.49676742  0.38432319  0.50416279  1
  O  O293  1  0.48064877  0.39035775  1.03707455  1
  O  O294  1  0.50117572  0.88978854  0.50542199  1
  O  O295  1  0.50323906  0.88434821  1.01419500  1
  O  O296  1  0.99878090  0.38561641  0.48631082  1
  O  O297  1  0.98949628  0.37244945  1.00017515  1
  O  O298  1  1.01197602  0.87961376  0.50663370  1
  O  O299  1  1.00364500  0.88212372  0.98703987  1
  O  O300  1  0.50436589  0.50610327  0.39387890  1
  O  O301  1  0.48754646  0.51184406  0.86657927  1
  O  O302  1  0.48524700  1.00015138  0.38460475  1
  O  O303  1  0.52186873  0.98239879  0.83029413  1
  O  O304  1  0.99882554  0.49522525  0.37966044  1
  O  O305  1  0.98814040  0.49076588  0.88534697  1
  O  O306  1  0.99226109  0.99761986  0.35631696  1
  O  O307  1  1.00104911  1.00836893  0.88408462  1
  O  O308  1  0.00679581  0.01009557  0.13038559  1
  O  O309  1  -0.00418315  -0.00433616  0.61949881  1
  O  O310  1  -0.04375279  0.51274673  0.10644748  1
  O  O311  1  0.00739553  0.50325825  0.61973818  1
  O  O312  1  0.48821688  0.00094536  0.13195557  1
  O  O313  1  0.50523908  0.01552645  0.60532235  1
  O  O314  1  0.51030431  0.50852792  0.13476534  1
  O  O315  1  0.48143045  0.52173104  0.63109609  1
  O  O316  1  0.23428760  0.36828393  0.25186753  1
  O  O317  1  0.24349588  0.38822794  0.74350798  1
  O  O318  1  0.23897515  0.88511417  0.24254940  1
  O  O319  1  0.22530239  0.88336910  0.74427257  1
  O  O320  1  0.76289717  0.37655464  0.22787055  1
  O  O321  1  0.71830282  0.34927430  0.76967888  1
  O  O322  1  0.74086450  0.87518862  0.24506223  1
  O  O323  1  0.75447246  0.90235252  0.72713900  1
  O  O324  1  0.25802394  0.10952527  0.24266135  1
  O  O325  1  0.24693329  0.10598789  0.74762845  1
  O  O326  1  0.25869204  0.61402071  0.24514794  1
  O  O327  1  0.24017083  0.61452093  0.75936471  1
  O  O328  1  0.73855476  0.09554699  0.22962373  1
  O  O329  1  0.76575430  0.13214217  0.73274798  1
  O  O330  1  0.76708623  0.63820815  0.26653157  1
  O  O331  1  0.75198354  0.61769712  0.77075358  1
  O  O332  1  0.37510445  0.12183566  0.35955683  1
  O  O333  1  0.37282144  0.10287125  0.86371272  1
  O  O334  1  0.38825040  0.61664019  0.33870106  1
  O  O335  1  0.36259075  0.62627870  0.87277954  1
  O  O336  1  0.86680287  0.10125360  0.37436637  1
  O  O337  1  0.85212019  0.13221404  0.88521763  1
  O  O338  1  0.87970401  0.61874169  0.36820181  1
  O  O339  1  0.87002548  0.60331079  0.88546565  1
  O  O340  1  0.12822512  0.37525853  0.12542721  1
  O  O341  1  0.12482068  0.38711953  0.63464351  1
  O  O342  1  0.12889178  0.88652982  0.13356325  1
  O  O343  1  0.10140526  0.85619966  0.64802575  1
  O  O344  1  0.64108050  0.40439754  0.12477981  1
  O  O345  1  0.65067731  0.33271392  0.62484983  1
  O  O346  1  0.64134973  0.86815807  0.13238337  1
  O  O347  1  0.62533316  0.89697681  0.61877054  1
  O  O348  1  0.11323007  0.26059268  0.23863894  1
  O  O349  1  0.11355258  0.24973180  0.74644764  1
  O  O350  1  0.12950538  0.76319490  0.26606276  1
  O  O351  1  0.12187523  0.76099184  0.76829673  1
  O  O352  1  0.61613823  0.21817957  0.23718949  1
  O  O353  1  0.60631274  0.21953248  0.75449303  1
  O  O354  1  0.61497922  0.75946141  0.25123875  1
  O  O355  1  0.65549303  0.74526187  0.77169902  1
  O  O356  1  0.36482283  0.22614227  0.23739254  1
  O  O357  1  0.38733618  0.24624079  0.73815928  1
  O  O358  1  0.38490061  0.75593274  0.24609107  1
  O  O359  1  0.42065782  0.79974494  0.74440300  1
  O  O360  1  0.89501606  0.26066675  0.22851162  1
  O  O361  1  0.88450273  0.24251198  0.74992375  1
  O  O362  1  0.88545310  0.74597773  0.24899370  1
  O  O363  1  0.85761171  0.74745664  0.74778719  1
  O  O364  1  0.33332116  0.48976213  0.41482306  1
  O  O365  1  0.37855451  0.51294273  0.97944478  1
  O  O366  1  0.38095855  1.00279946  0.48639203  1
  O  O367  1  0.36316409  0.97811187  0.99487727  1
  O  O368  1  0.88293706  0.49359096  0.48279395  1
  O  O369  1  0.86493453  0.47545014  0.98801205  1
  O  O370  1  0.90197913  1.00523292  0.48730154  1
  O  O371  1  0.79964080  1.01620090  0.97793907  1
  O  O372  1  0.12791925  -0.00410066  0.01537773  1
  O  O373  1  0.09839095  0.01533222  0.49114796  1
  O  O374  1  0.13225604  0.51552371  0.00814825  1
  O  O375  1  0.12018402  0.49435625  0.51653642  1
  O  O376  1  0.63002036  -0.00444481  0.00043226  1
  O  O377  1  0.60916462  0.00920544  0.49645897  1
  O  O378  1  0.61561584  0.51614899  0.00833481  1
  O  O379  1  0.68220683  0.46968405  0.58863272  1
  O  O380  1  0.36797153  0.33894371  0.14029947  1
  O  O381  1  0.37714557  0.36354238  0.63221600  1
  O  O382  1  0.35601572  0.88228890  0.11709655  1
  O  O383  1  0.37935523  0.82102795  0.68877923  1
  O  O384  1  0.87251474  0.36520408  0.11468207  1
  O  O385  1  0.86947481  0.38643488  0.60104230  1
  O  O386  1  0.86537369  0.85759785  0.13835985  1
  O  O387  1  0.87059448  0.88183549  0.62220954  1
  O  O388  1  0.13240969  0.12523774  0.39160844  1
  O  O389  1  0.12386914  0.13812451  0.85947835  1
  O  O390  1  0.13564314  0.62507452  0.36843792  1
  O  O391  1  0.12970730  0.63907508  0.87363258  1
  O  O392  1  0.62126377  0.11606558  0.37795699  1
  O  O393  1  0.64380496  0.11484662  0.90096631  1
  O  O394  1  0.64039141  0.62693871  0.36570094  1
  O  O395  1  0.64429070  0.62685494  0.89203939  1
