# generated using pymatgen
data_V35Zn35O128
_symmetry_space_group_name_H-M   'P 1'
_cell_length_a   17.06493685
_cell_length_b   17.31196861
_cell_length_c   17.29916772
_cell_angle_alpha   88.94448973
_cell_angle_beta   89.43224399
_cell_angle_gamma   90.09894338
_symmetry_Int_Tables_number   1
_chemical_formula_structural   V35Zn35O128
_chemical_formula_sum   'V70 Zn70 O256'
_cell_volume   5109.52510934
_cell_formula_units_Z   2
loop_
 _symmetry_equiv_pos_site_id
 _symmetry_equiv_pos_as_xyz
  1  'x, y, z'
loop_
 _atom_site_type_symbol
 _atom_site_label
 _atom_site_symmetry_multiplicity
 _atom_site_fract_x
 _atom_site_fract_y
 _atom_site_fract_z
 _atom_site_occupancy
  V  V0  1  0.61451099  -0.00437184  0.11781417  1
  V  V1  1  0.37626583  0.61683789  0.25520166  1
  V  V2  1  0.37687660  0.74994601  0.13283407  1
  V  V3  1  0.63243774  0.65115332  -0.00352821  1
  V  V4  1  0.24964651  0.74825481  0.49751231  1
  V  V5  1  0.27106052  0.39199624  0.56505925  1
  V  V6  1  0.48986526  0.12834104  0.13074653  1
  V  V7  1  0.89175154  0.31358266  0.00744588  1
  V  V8  1  0.01391686  0.45821430  0.54562538  1
  V  V9  1  0.24571471  0.87361046  0.13225156  1
  V  V10  1  0.29329309  0.50422083  0.77252249  1
  V  V11  1  0.41036905  0.68621453  0.78559114  1
  V  V12  1  0.14133696  0.50855888  0.67291517  1
  V  V13  1  0.12581522  0.74321197  0.37428609  1
  V  V14  1  0.63801976  0.87144115  0.25087019  1
  V  V15  1  0.86529432  0.62645847  0.74277650  1
  V  V16  1  0.36801500  0.88780848  0.47696957  1
  V  V17  1  0.52368728  0.39330524  0.33515714  1
  V  V18  1  0.75527030  0.86541453  0.11112014  1
  V  V19  1  0.65627049  0.59916916  0.50060091  1
  V  V20  1  0.00070917  0.00864512  0.49053578  1
  V  V21  1  0.24764551  0.74255751  0.01145893  1
  V  V22  1  0.84583254  0.74608505  0.60213543  1
  V  V23  1  0.60156940  0.11642181  0.47850921  1
  V  V24  1  0.61952244  0.35742407  0.70755470  1
  V  V25  1  0.54401434  0.02186032  0.61972400  1
  V  V26  1  0.77649109  0.32499617  0.12209625  1
  V  V27  1  0.88174064  -0.05048186  0.86353565  1
  V  V28  1  0.38139966  0.87886121  0.00476394  1
  V  V29  1  0.87067040  0.50512734  0.36237730  1
  V  V30  1  0.39837621  0.27203879  0.61546734  1
  V  V31  1  0.36030174  0.15109739  0.75229058  1
  V  V32  1  0.85188423  0.51362810  0.87396944  1
  V  V33  1  0.77058211  0.91740762  0.61896887  1
  V  V34  1  0.24315976  0.49569826  0.24479729  1
  V  V35  1  0.38468028  0.75289273  0.60610396  1
  V  V36  1  0.57879114  0.87913767  0.72903040  1
  V  V37  1  0.29550859  0.62672904  0.89650498  1
  V  V38  1  0.69778722  0.47534680  0.10184985  1
  V  V39  1  0.10780919  0.24571222  0.33307940  1
  V  V40  1  0.63395551  0.75177259  0.39345350  1
  V  V41  1  0.25574808  0.00161806  0.79412499  1
  V  V42  1  0.34919707  0.29080096  0.13392597  1
  V  V43  1  0.49106939  0.88684953  0.36483838  1
  V  V44  1  0.38846379  0.03405501  0.91064009  1
  V  V45  1  -0.01994622  0.77937648  0.72794143  1
  V  V46  1  0.39329442  0.40606684  0.00171982  1
  V  V47  1  0.09206529  0.62216981  0.01074850  1
  V  V48  1  0.85174046  -0.01386182  0.35953814  1
  V  V49  1  0.11984263  0.87300565  0.24625016  1
  V  V50  1  0.75177979  0.22257830  0.51642194  1
  V  V51  1  -0.00654813  0.38827855  0.32966109  1
  V  V52  1  0.02654003  -0.01988214  0.00199469  1
  V  V53  1  -0.01043237  0.73601504  0.25241550  1
  V  V54  1  0.87206231  0.73627024  0.12448466  1
  V  V55  1  0.74141910  0.13020316  0.35188202  1
  V  V56  1  -0.00390533  0.87132273  0.38121037  1
  V  V57  1  0.25319768  0.00811347  0.25398120  1
  V  V58  1  0.72602358  0.51632873  0.72658072  1
  V  V59  1  0.49507554  0.61476003  0.58896384  1
  V  V60  1  0.72671556  0.12401870  0.85902678  1
  V  V61  1  0.24864676  0.23726793  0.47033180  1
  V  V62  1  0.62174050  0.25358183  0.90948667  1
  V  V63  1  0.16467976  -0.01776836  0.59184582  1
  V  V64  1  0.14391318  0.74365782  0.84942284  1
  V  V65  1  0.50728780  0.62113883  0.12192991  1
  V  V66  1  0.50089222  0.74562121  0.25765471  1
  V  V67  1  0.54585810  0.24797199  0.24565784  1
  V  V68  1  0.25307049  0.61614220  0.37561285  1
  V  V69  1  0.01365550  0.62940682  0.62949121  1
  Zn  Zn70  1  0.50994751  0.38397198  0.86670450  1
  Zn  Zn71  1  0.05300110  0.24591583  0.77414507  1
  Zn  Zn72  1  0.07927310  0.50520670  0.15329254  1
  Zn  Zn73  1  0.01345946  0.84217522  0.89545054  1
  Zn  Zn74  1  0.12712278  0.60629415  0.50386443  1
  Zn  Zn75  1  0.72444923  0.65733051  0.84696360  1
  Zn  Zn76  1  0.18961484  0.19408381  0.18019428  1
  Zn  Zn77  1  0.15155321  0.13456416  0.71065978  1
  Zn  Zn78  1  0.18027167  0.67601104  0.18710189  1
  Zn  Zn79  1  0.22696710  0.66767609  0.68770476  1
  Zn  Zn80  1  0.75130982  0.12032068  0.14402746  1
  Zn  Zn81  1  0.66168368  0.16416746  0.68173155  1
  Zn  Zn82  1  0.68923230  0.68653425  0.19227688  1
  Zn  Zn83  1  0.66447393  0.69718979  0.67038516  1
  Zn  Zn84  1  0.33682838  0.32699491  0.31606677  1
  Zn  Zn85  1  0.31776742  0.33079139  0.84061439  1
  Zn  Zn86  1  0.30725772  0.80563438  0.31005593  1
  Zn  Zn87  1  0.38870588  0.85439387  0.79983377  1
  Zn  Zn88  1  0.82950707  0.30481229  0.31688856  1
  Zn  Zn89  1  0.75324605  0.34510235  0.84402063  1
  Zn  Zn90  1  0.81432986  0.80583962  0.31580376  1
  Zn  Zn91  1  0.72236139  0.85815670  0.80739287  1
  Zn  Zn92  1  0.16302258  0.43175024  0.41435488  1
  Zn  Zn93  1  0.21223745  0.38784362  1.08185688  1
  Zn  Zn94  1  0.18648265  0.93356914  0.42372937  1
  Zn  Zn95  1  0.19307270  0.92475236  0.94057629  1
  Zn  Zn96  1  0.71113904  0.41583252  0.46032441  1
  Zn  Zn97  1  0.65281989  0.47771207  0.91781259  1
  Zn  Zn98  1  0.66229589  0.94404552  0.44380396  1
  Zn  Zn99  1  0.59919457  0.97503870  0.91449706  1
  Zn  Zn100  1  0.31912483  0.05379021  0.08875917  1
  Zn  Zn101  1  0.34257151  0.08482260  0.56309160  1
  Zn  Zn102  1  0.32138516  0.55868879  0.07665675  1
  Zn  Zn103  1  0.30934226  0.57418967  0.57055791  1
  Zn  Zn104  1  0.76394084  0.00719284  0.00664860  1
  Zn  Zn105  1  0.82108721  0.06649917  0.52751764  1
  Zn  Zn106  1  0.90873948  0.57051611  0.05354828  1
  Zn  Zn107  1  0.83592426  0.55309398  0.55853774  1
  Zn  Zn108  1  0.45363009  0.43802732  0.19314457  1
  Zn  Zn109  1  0.44778465  0.43564298  0.68233583  1
  Zn  Zn110  1  0.43532660  0.93805197  0.19118443  1
  Zn  Zn111  1  0.35924982  0.94648561  0.65334908  1
  Zn  Zn112  1  0.89160393  0.44618866  0.17952807  1
  Zn  Zn113  1  0.96506586  0.39403766  0.84947057  1
  Zn  Zn114  1  0.88959822  0.99667616  0.14834471  1
  Zn  Zn115  1  0.92660341  0.98035712  0.68202805  1
  Zn  Zn116  1  0.05689115  0.05276002  0.29526507  1
  Zn  Zn117  1  0.02313532  0.05836208  0.84253106  1
  Zn  Zn118  1  0.06413418  0.56458874  0.32087180  1
  Zn  Zn119  1  0.04238669  0.58008658  0.83100111  1
  Zn  Zn120  1  0.56656737  0.05615780  0.29499261  1
  Zn  Zn121  1  0.53848203  0.09237623  0.80976235  1
  Zn  Zn122  1  0.64305450  0.54804860  0.29393817  1
  Zn  Zn123  1  0.55252080  0.56741447  0.81426379  1
  Zn  Zn124  1  0.44238152  0.22708532  0.42421045  1
  Zn  Zn125  1  0.45288778  0.21220696  0.96908892  1
  Zn  Zn126  1  0.43770514  0.68724250  0.42840226  1
  Zn  Zn127  1  0.46694394  0.71651556  0.95459056  1
  Zn  Zn128  1  0.92129870  0.16380197  0.42269406  1
  Zn  Zn129  1  0.89166010  0.10990961  0.98277630  1
  Zn  Zn130  1  0.94192514  0.68071479  0.44308014  1
  Zn  Zn131  1  0.81530077  0.78843346  0.94058808  1
  Zn  Zn132  1  0.03308174  0.43497268  0.02555788  1
  Zn  Zn133  1  0.10261458  0.28472337  0.59163600  1
  Zn  Zn134  1  0.05903927  0.79991135  0.07379837  1
  Zn  Zn135  1  0.07628731  0.81844128  0.56268806  1
  Zn  Zn136  1  0.57158471  0.31775629  0.07348865  1
  Zn  Zn137  1  0.56931530  0.29949518  0.53170211  1
  Zn  Zn138  1  0.56718331  0.81380182  0.06621892  1
  Zn  Zn139  1  0.54839086  0.83116604  0.55457548  1
  O  O140  1  0.09175194  0.12240572  0.14633808  1
  O  O141  1  0.11959222  0.04781460  0.64690205  1
  O  O142  1  0.12032570  0.61278496  0.11319242  1
  O  O143  1  0.12999893  0.61370947  0.63161709  1
  O  O144  1  0.63898929  0.09048200  0.11366210  1
  O  O145  1  0.59101084  0.11519363  0.60120291  1
  O  O146  1  0.61066367  0.65189543  0.11439386  1
  O  O147  1  0.60604337  0.63699505  0.58987591  1
  O  O148  1  0.42476722  0.40379476  0.34085163  1
  O  O149  1  0.39690645  0.37978602  0.89833907  1
  O  O150  1  0.38208686  0.86630222  0.36957708  1
  O  O151  1  0.37392082  0.88317715  0.90664291  1
  O  O152  1  0.89286466  0.38638031  0.36711677  1
  O  O153  1  0.84256252  0.41017343  0.86335878  1
  O  O154  1  0.89201716  0.87408949  0.36979547  1
  O  O155  1  0.89736366  0.84701537  0.87356923  1
  O  O156  1  0.23533626  0.00322373  0.35129343  1
  O  O157  1  0.27309701  -0.00034246  0.89802116  1
  O  O158  1  0.23435036  0.51668204  0.37074785  1
  O  O159  1  0.26222278  0.53449312  0.87140222  1
  O  O160  1  0.75496486  -0.03138349  0.37481128  1
  O  O161  1  0.79025618  -0.05454741  0.82604961  1
  O  O162  1  0.77846335  0.48119115  0.39844859  1
  O  O163  1  0.74195522  0.52711103  0.84670241  1
  O  O164  1  0.25133247  0.49769843  0.14386101  1
  O  O165  1  0.25285892  0.54813787  0.68092928  1
  O  O166  1  0.24633684  0.97481989  0.13352790  1
  O  O167  1  0.26749590  1.00034645  0.59782403  1
  O  O168  1  0.79827038  0.46725998  0.10744769  1
  O  O169  1  0.75319585  0.51110379  0.63190042  1
  O  O170  1  0.72444071  0.96871534  0.11642289  1
  O  O171  1  0.82053254  1.00799273  0.62707329  1
  O  O172  1  -0.01424547  0.39098439  0.23354994  1
  O  O173  1  0.00185884  0.33724419  0.76980692  1
  O  O174  1  0.01623118  0.85616089  0.26293331  1
  O  O175  1  -0.02428832  0.87395753  0.71344359  1
  O  O176  1  0.53246504  0.36245164  0.23114613  1
  O  O177  1  0.53398704  0.39818373  0.74869877  1
  O  O178  1  0.49703749  0.86024534  0.25494577  1
  O  O179  1  0.47968913  0.88558655  0.73983772  1
  O  O180  1  0.52131284  0.14076789  0.24080941  1
  O  O181  1  0.45797063  0.15808264  0.76891775  1
  O  O182  1  0.49218248  0.64094568  0.24628078  1
  O  O183  1  0.48837909  0.63689023  0.74989341  1
  O  O184  1  0.98074851  0.09732501  0.21363431  1
  O  O185  1  1.07554264  0.14250803  0.79838209  1
  O  O186  1  1.00471050  0.63994595  0.25891084  1
  O  O187  1  0.98360773  0.62779914  0.73575622  1
  O  O188  1  0.38427978  0.25271175  0.04873634  1
  O  O189  1  0.45950064  0.26747843  0.53318734  1
  O  O190  1  0.36868892  0.75902765  0.01749715  1
  O  O191  1  0.36486295  0.74978997  0.49289400  1
  O  O192  1  0.90323876  0.22265365  -0.02275596  1
  O  O193  1  0.85171899  0.18275695  0.50981142  1
  O  O194  1  0.87835980  0.75522279  0.02857732  1
  O  O195  1  0.88032719  0.74581968  0.50990437  1
  O  O196  1  0.15329196  0.23252399  0.50754525  1
  O  O197  1  0.08632529  0.24891840  1.03076904  1
  O  O198  1  0.13778398  0.75418808  0.48711143  1
  O  O199  1  0.14257857  0.73125635  1.01935426  1
  O  O200  1  0.63703110  0.21784067  0.49455578  1
  O  O201  1  0.62930071  0.24292519  1.00549052  1
  O  O202  1  0.62120605  0.78160047  0.48602056  1
  O  O203  1  0.57923587  0.74294965  0.98325252  1
  O  O204  1  0.51865149  0.23816216  0.13999204  1
  O  O205  1  0.46266809  0.27989526  0.68461325  1
  O  O206  1  0.48782912  0.74809156  0.13860436  1
  O  O207  1  0.48738088  0.73928823  0.59337258  1
  O  O208  1  1.01887901  0.14371957  0.16139570  1
  O  O209  1  0.92702848  0.17451798  0.65515260  1
  O  O210  1  0.98480587  0.75242355  0.14703995  1
  O  O211  1  1.02684847  0.74581307  0.64033519  1
  O  O212  1  -0.00656385  0.27616684  0.35560556  1
  O  O213  1  0.08426580  0.19933023  0.98094594  1
  O  O214  1  0.00540494  0.75286130  0.37016882  1
  O  O215  1  0.03190939  0.76152084  0.81690835  1
  O  O216  1  0.51000808  0.26931783  0.34205396  1
  O  O217  1  0.51710383  0.27034265  0.89524218  1
  O  O218  1  0.50696550  0.75571502  0.36796477  1
  O  O219  1  0.44392888  0.75796795  0.84745629  1
  O  O220  1  0.28825527  0.14770405  0.48970513  1
  O  O221  1  0.23049998  0.13262605  1.04952527  1
  O  O222  1  0.24412529  0.63102953  0.49133086  1
  O  O223  1  0.26946261  0.63012633  1.00079617  1
  O  O224  1  0.72750308  0.11321800  0.47550939  1
  O  O225  1  0.69447555  0.04062008  0.92268493  1
  O  O226  1  0.75306487  0.61386643  0.50632025  1
  O  O227  1  0.72397491  0.67869764  1.00036397  1
  O  O228  1  0.29177563  0.37936064  0.00717028  1
  O  O229  1  0.22888451  0.36589761  0.47558527  1
  O  O230  1  0.25618237  0.85677042  0.01794033  1
  O  O231  1  0.26139289  0.85994524  0.47561576  1
  O  O232  1  0.79321587  0.34087109  0.00696178  1
  O  O233  1  0.75746439  0.32030216  0.49676812  1
  O  O234  1  0.74928354  0.85849006  0.01349216  1
  O  O235  1  0.72389182  0.91610236  0.53373071  1
  O  O236  1  0.13760566  0.51040856  0.25135839  1
  O  O237  1  0.11998167  0.51528786  0.76796723  1
  O  O238  1  0.12713811  0.97376840  0.24691031  1
  O  O239  1  0.16136334  0.98045582  0.79645460  1
  O  O240  1  0.66368373  0.50731633  0.18510603  1
  O  O241  1  0.63174694  0.54800742  0.73033031  1
  O  O242  1  0.61958381  0.97236488  0.23484827  1
  O  O243  1  0.56276633  1.02426496  0.71803111  1
  O  O244  1  0.35170692  -0.00906993  0.24396667  1
  O  O245  1  0.36978525  0.05058462  0.80625816  1
  O  O246  1  0.36657646  0.51717468  0.24524942  1
  O  O247  1  0.39084789  0.50008144  0.76160779  1
  O  O248  1  0.87379514  -0.01265087  0.26285878  1
  O  O249  1  0.92564945  0.01369383  0.78625879  1
  O  O250  1  0.86079380  0.51444514  0.26585195  1
  O  O251  1  0.85056011  0.52634458  0.74275005  1
  O  O252  1  0.09354429  0.36150864  0.36203944  1
  O  O253  1  0.14250233  0.31567616  0.87927526  1
  O  O254  1  0.12175824  0.85707330  0.36285001  1
  O  O255  1  0.14374178  0.83664059  0.88599730  1
  O  O256  1  0.62330444  0.36518534  0.39522189  1
  O  O257  1  0.64684178  0.35893214  0.89177949  1
  O  O258  1  0.60793916  0.87404038  0.36300308  1
  O  O259  1  0.61327636  0.90503860  0.82320770  1
  O  O260  1  0.39018119  0.12219057  0.13864520  1
  O  O261  1  0.36126425  0.17006462  0.64595951  1
  O  O262  1  0.38498983  0.63578726  0.13790199  1
  O  O263  1  0.38810775  0.64055406  0.61280351  1
  O  O264  1  0.83147926  0.07486684  0.07953673  1
  O  O265  1  0.88912779  0.16362747  0.71526700  1
  O  O266  1  0.86459150  0.63995638  0.13046993  1
  O  O267  1  0.88709646  0.63818404  0.62368752  1
  O  O268  1  0.24514118  0.28221925  0.13285761  1
  O  O269  1  0.29232382  0.28291533  0.56511026  1
  O  O270  1  0.26020117  0.74756757  0.12810756  1
  O  O271  1  0.26752768  0.73708482  0.60357566  1
  O  O272  1  0.75220191  0.23257590  0.12718629  1
  O  O273  1  0.73997630  0.21111182  0.61298792  1
  O  O274  1  0.76529783  0.75945233  0.14500322  1
  O  O275  1  0.74834671  0.73819063  0.60156216  1
  O  O276  1  0.20459952  0.24294208  0.36837258  1
  O  O277  1  0.20765940  0.29588669  0.90551869  1
  O  O278  1  0.24234865  0.73546261  0.37766727  1
  O  O279  1  0.24913392  0.72627841  0.89573236  1
  O  O280  1  0.75762200  0.22705003  0.36205193  1
  O  O281  1  0.72668176  0.23468486  0.87036106  1
  O  O282  1  0.73150323  0.76424778  0.37926248  1
  O  O283  1  0.74524627  0.76498032  0.85930491  1
  O  O284  1  -0.00051751  0.07723342  -0.03903381  1
  O  O285  1  0.00361088  0.10534472  0.47677719  1
  O  O286  1  -0.00364275  0.64216208  0.01268485  1
  O  O287  1  0.01429504  0.63795476  0.52637043  1
  O  O288  1  0.50791276  0.13213625  0.03417863  1
  O  O289  1  0.50732934  0.13788708  0.45552824  1
  O  O290  1  0.49600448  0.62459884  0.02360367  1
  O  O291  1  0.48555437  0.60557947  0.49232540  1
  O  O292  1  0.55416240  0.37828618  0.44305485  1
  O  O293  1  0.49192327  0.37901950  1.02420470  1
  O  O294  1  0.48231711  0.87611574  0.46997764  1
  O  O295  1  0.47771778  0.86816610  1.01999669  1
  O  O296  1  1.02670730  0.36159597  0.55925963  1
  O  O297  1  0.96836262  0.37259732  0.96327145  1
  O  O298  1  1.01026915  0.86800774  0.47998558  1
  O  O299  1  1.01447980  0.86893081  1.00285244  1
  O  O300  1  0.55766846  0.48685278  0.32115992  1
  O  O301  1  0.54521297  0.48634904  0.88604138  1
  O  O302  1  0.49443491  0.98233779  0.34994434  1
  O  O303  1  0.49058779  1.01835259  0.89335721  1
  O  O304  1  0.99318343  0.48737309  0.36078648  1
  O  O305  1  0.95952470  0.50932346  0.86061947  1
  O  O306  1  1.01235803  0.97590312  0.37319573  1
  O  O307  1  1.00839023  0.95611319  0.89055377  1
  O  O308  1  -0.01140923  -0.01108339  0.09384149  1
  O  O309  1  -0.01537231  -0.00758983  0.58624344  1
  O  O310  1  -0.02897544  0.49480077  0.10802732  1
  O  O311  1  0.03013304  0.50814437  0.63401871  1
  O  O312  1  0.50742516  0.01568266  0.14601187  1
  O  O313  1  0.44082110  0.02641077  0.61141124  1
  O  O314  1  0.50580621  0.52619103  0.14399276  1
  O  O315  1  0.49237304  0.52347631  0.62361222  1
  O  O316  1  0.26052850  0.40324854  0.27290949  1
  O  O317  1  0.26506529  0.41061627  0.77682536  1
  O  O318  1  0.23629883  0.86937540  0.24750680  1
  O  O319  1  0.30738103  0.92040462  0.74996842  1
  O  O320  1  0.80018788  0.35119074  0.21717827  1
  O  O321  1  0.70829556  0.40767063  0.74399095  1
  O  O322  1  0.73680643  0.86778030  0.25360640  1
  O  O323  1  0.70702134  0.89519211  0.69535640  1
  O  O324  1  0.23748362  0.10188917  0.22244398  1
  O  O325  1  0.25611950  0.09489316  0.74146733  1
  O  O326  1  0.25659684  0.61778263  0.25733886  1
  O  O327  1  0.30882470  0.64403945  0.78233508  1
  O  O328  1  0.73711468  0.11165014  0.25623581  1
  O  O329  1  0.71684790  0.10610567  0.76238049  1
  O  O330  1  0.71456663  0.62530027  0.27796494  1
  O  O331  1  0.75219082  0.63855128  0.73117916  1
  O  O332  1  0.34091039  0.26981960  0.41108881  1
  O  O333  1  0.38017065  0.12546473  0.93841839  1
  O  O334  1  0.36283413  0.62929277  0.36457828  1
  O  O335  1  0.39633375  0.63018052  0.89404666  1
  O  O336  1  0.84295448  0.09440248  0.36626116  1
  O  O337  1  0.82252907  0.11797452  0.88453509  1
  O  O338  1  0.88977987  0.59630571  0.39968289  1
  O  O339  1  0.86268463  0.63347933  0.84258769  1
  O  O340  1  0.10923804  0.40965014  0.10154157  1
  O  O341  1  0.18809941  0.41987504  0.62297921  1
  O  O342  1  0.13329382  0.85228647  0.14407138  1
  O  O343  1  0.14168107  0.88881134  0.61922256  1
  O  O344  1  0.67372338  0.37171515  0.10220072  1
  O  O345  1  0.61173534  0.36545462  0.60943152  1
  O  O346  1  0.63349608  0.85404144  0.14471839  1
  O  O347  1  0.57104748  0.91650987  0.62167972  1
  O  O348  1  0.11879749  0.26069142  0.23743626  1
  O  O349  1  0.12883433  0.24110629  0.68621158  1
  O  O350  1  0.11920049  0.74631162  0.26129725  1
  O  O351  1  0.17290932  0.73524066  0.75718027  1
  O  O352  1  0.64042893  0.25006965  0.25026483  1
  O  O353  1  0.62884079  0.26257518  0.73180543  1
  O  O354  1  0.61537013  0.76019617  0.26767629  1
  O  O355  1  0.60108998  0.78243909  0.71516213  1
  O  O356  1  0.37556111  0.26395050  0.22648903  1
  O  O357  1  0.32223212  0.23070106  0.79574785  1
  O  O358  1  0.37842740  0.74097026  0.24654273  1
  O  O359  1  0.38012814  0.75996878  0.71243856  1
  O  O360  1  0.92670394  0.23090518  0.33152919  1
  O  O361  1  0.84294518  0.29490570  0.73087469  1
  O  O362  1  0.88687514  0.74748086  0.25418813  1
  O  O363  1  0.88087536  0.74449398  0.71759557  1
  O  O364  1  0.31578933  0.47456486  0.53047962  1
  O  O365  1  0.38961384  0.50413965  1.00742994  1
  O  O366  1  0.36309940  0.98200284  0.47756202  1
  O  O367  1  0.37095466  0.98634917  1.01346731  1
  O  O368  1  0.91880838  0.48331442  0.52316137  1
  O  O369  1  0.84513382  0.53663068  0.96783707  1
  O  O370  1  0.89354950  0.99683254  0.46388004  1
  O  O371  1  0.86628405  0.98173741  0.95767496  1
  O  O372  1  0.12688703  -0.01416679  0.00592609  1
  O  O373  1  0.11927843  -0.00919985  0.49564670  1
  O  O374  1  0.09565492  0.52844098  -0.01714717  1
  O  O375  1  0.09503512  0.49449439  0.48778778  1
  O  O376  1  0.59827371  -0.04081826  0.02766119  1
  O  O377  1  0.59205579  0.01338693  0.50595807  1
  O  O378  1  0.66027242  0.53035928  0.02061315  1
  O  O379  1  0.64332904  0.50318693  0.49453841  1
  O  O380  1  0.37736031  0.38972212  0.12714025  1
  O  O381  1  0.36522043  0.37530647  0.63148592  1
  O  O382  1  0.36376275  0.86371852  0.12903635  1
  O  O383  1  0.38093356  0.85946639  0.58603179  1
  O  O384  1  0.89336781  0.31564293  0.10822671  1
  O  O385  1  0.85896325  0.32608259  0.66833721  1
  O  O386  1  0.85152158  0.88226578  0.13188597  1
  O  O387  1  0.85079681  0.85224410  0.61671135  1
  O  O388  1  0.07927981  0.14951066  0.34065888  1
  O  O389  1  0.21561480  0.15012803  0.98020233  1
  O  O390  1  0.12970968  0.63398464  0.38325234  1
  O  O391  1  0.10944725  0.65131974  0.89239412  1
  O  O392  1  0.63524480  0.09884318  0.37371678  1
  O  O393  1  0.61063236  0.15310109  0.87096671  1
  O  O394  1  0.62382198  0.64758718  0.41104738  1
  O  O395  1  0.62161563  0.62576810  0.89581636  1
