# generated using pymatgen
data_V35Zn35O128
_symmetry_space_group_name_H-M   'P 1'
_cell_length_a   16.89947201
_cell_length_b   16.91871926
_cell_length_c   16.95913559
_cell_angle_alpha   90.38202429
_cell_angle_beta   89.88154788
_cell_angle_gamma   90.18958061
_symmetry_Int_Tables_number   1
_chemical_formula_structural   V35Zn35O128
_chemical_formula_sum   'V70 Zn70 O256'
_cell_volume   4848.76786724
_cell_formula_units_Z   2
loop_
 _symmetry_equiv_pos_site_id
 _symmetry_equiv_pos_as_xyz
  1  'x, y, z'
loop_
 _atom_site_type_symbol
 _atom_site_label
 _atom_site_symmetry_multiplicity
 _atom_site_fract_x
 _atom_site_fract_y
 _atom_site_fract_z
 _atom_site_occupancy
  V  V0  1  0.73562575  0.12091666  0.37585643  1
  V  V1  1  0.88733445  0.13231100  0.73910188  1
  V  V2  1  0.12537034  -0.00529915  0.61085117  1
  V  V3  1  0.49717204  0.72460848  0.26376395  1
  V  V4  1  0.75497557  0.48968736  0.75369789  1
  V  V5  1  0.13076115  0.88401458  0.75158197  1
  V  V6  1  -0.01134334  0.49463703  0.49693917  1
  V  V7  1  0.25051544  0.75136145  0.52881709  1
  V  V8  1  0.06968082  0.30059932  0.81738033  1
  V  V9  1  0.25020197  0.37097671  0.12475062  1
  V  V10  1  0.13834608  0.24309495  0.38776056  1
  V  V11  1  0.24904041  -0.01485376  0.24087273  1
  V  V12  1  0.36835689  0.13807658  0.75120766  1
  V  V13  1  0.62772631  0.00946225  0.61909524  1
  V  V14  1  0.50244691  0.12949394  0.61752706  1
  V  V15  1  0.49884457  0.88891136  0.88394958  1
  V  V16  1  0.36860151  0.11727986  0.25786051  1
  V  V17  1  0.00011809  0.12446452  0.59977750  1
  V  V18  1  -0.01821575  0.36836986  0.38281114  1
  V  V19  1  0.87464298  0.63518340  0.74019861  1
  V  V20  1  0.11854681  0.48793947  0.11087202  1
  V  V21  1  0.36442119  -0.01170678  0.38501807  1
  V  V22  1  0.74957088  0.14774001  0.87200198  1
  V  V23  1  0.76235589  0.59334704  0.38490504  1
  V  V24  1  -0.01512335  0.23073122  0.25344904  1
  V  V25  1  0.77274961  0.47774052  0.22849498  1
  V  V26  1  0.88909703  0.51404844  0.89988353  1
  V  V27  1  0.36063818  0.23402286  0.11934157  1
  V  V28  1  0.12563059  0.73035335  0.38801658  1
  V  V29  1  0.61324020  0.50655722  0.60866483  1
  V  V30  1  0.11850406  0.85387018  0.25334797  1
  V  V31  1  0.74743145  0.74550453  0.48129592  1
  V  V32  1  0.62022942  0.75682534  0.88150823  1
  V  V33  1  0.75480678  -0.01201329  0.25331973  1
  V  V34  1  0.00059102  0.75629154  0.74512604  1
  V  V35  1  0.50926689  0.12084514  0.11239949  1
  V  V36  1  0.72134586  0.25027189  0.50212580  1
  V  V37  1  0.13142999  0.74370132  0.87416534  1
  V  V38  1  0.12898324  0.37178528  0.26042034  1
  V  V39  1  0.88153057  -0.00036315  0.87476005  1
  V  V40  1  0.00927371  0.63031648  0.61833259  1
  V  V41  1  0.47028880  0.49821408  0.49618915  1
  V  V42  1  0.50035906  -0.01129877  0.50069797  1
  V  V43  1  0.50589178  0.87102706  0.36432461  1
  V  V44  1  0.40312203  0.74899364  0.64382424  1
  V  V45  1  0.12652846  0.49518630  0.62984334  1
  V  V46  1  0.10699493  0.00617280  0.12955374  1
  V  V47  1  0.25272866  0.00601835  0.74306565  1
  V  V48  1  0.75535239  0.86535248  0.62323366  1
  V  V49  1  0.13366834  0.14307628  -0.03427506  1
  V  V50  1  0.87369387  0.26738665  0.60752262  1
  V  V51  1  0.37280220  0.25556845  0.60211632  1
  V  V52  1  0.36247846  0.75665167  0.13793261  1
  V  V53  1  0.87922637  0.88202646  0.50071767  1
  V  V54  1  -0.00042302  0.88082670  0.38018586  1
  V  V55  1  0.51008625  0.24439641  0.25286646  1
  V  V56  1  0.37259150  0.37828410  -0.01977368  1
  V  V57  1  0.38745996  0.61744814  0.76807694  1
  V  V58  1  0.61942599  0.87564408  0.74494739  1
  V  V59  1  0.63161013  0.38616630  0.24204995  1
  V  V60  1  0.51091512  0.26619282  0.75437142  1
  V  V61  1  0.87868810  0.87586730  0.01846238  1
  V  V62  1  0.62240506  -0.02681968  0.12467248  1
  V  V63  1  0.75875168  0.64929529  0.88289401  1
  V  V64  1  0.37913558  0.00815729  0.87950089  1
  V  V65  1  0.24674677  0.36659976  0.61431427  1
  V  V66  1  0.88033021  0.64078910  0.24267964  1
  V  V67  1  0.75298299  0.00686634  0.74457047  1
  V  V68  1  0.55874897  0.54204282  0.02039035  1
  V  V69  1  0.27347126  0.77857194  -0.02144009  1
  Zn  Zn70  1  0.00430950  0.88614589  0.87520724  1
  Zn  Zn71  1  0.25177316  0.49516501  0.76307150  1
  Zn  Zn72  1  0.15777364  0.12558327  0.49597456  1
  Zn  Zn73  1  0.75062451  0.77246132  0.02249856  1
  Zn  Zn74  1  0.51062440  0.36489472  0.38962535  1
  Zn  Zn75  1  -0.04830140  0.57743124  0.08101170  1
  Zn  Zn76  1  0.18055133  0.17948412  0.20427633  1
  Zn  Zn77  1  0.18046650  0.18889220  0.68302386  1
  Zn  Zn78  1  0.17493811  0.68264528  0.07607522  1
  Zn  Zn79  1  0.19388742  0.67767788  0.70397337  1
  Zn  Zn80  1  0.69501095  0.17130267  0.18460998  1
  Zn  Zn81  1  0.69366389  0.19754577  0.68831489  1
  Zn  Zn82  1  0.67025535  0.65518928  0.24813533  1
  Zn  Zn83  1  0.68117662  0.68634866  0.69152353  1
  Zn  Zn84  1  0.31214944  0.30623488  0.30990620  1
  Zn  Zn85  1  0.27815330  0.31430773  0.80516600  1
  Zn  Zn86  1  0.30797141  0.80457384  0.32077697  1
  Zn  Zn87  1  0.32098396  0.82026493  0.79409017  1
  Zn  Zn88  1  0.80158977  0.29824950  0.32249564  1
  Zn  Zn89  1  0.86257764  0.32249516  0.81860486  1
  Zn  Zn90  1  0.81587921  0.81532250  0.30998304  1
  Zn  Zn91  1  0.81334629  0.81982807  0.80378550  1
  Zn  Zn92  1  0.17560624  0.44469162  0.44756284  1
  Zn  Zn93  1  0.18478886  0.39938326  0.93402488  1
  Zn  Zn94  1  0.19274054  0.92090551  0.43849805  1
  Zn  Zn95  1  0.19439200  0.96771815  0.94315327  1
  Zn  Zn96  1  0.68085788  0.42502587  0.43537686  1
  Zn  Zn97  1  0.67452347  0.46876775  0.91533452  1
  Zn  Zn98  1  0.68670842  0.93310083  0.43521060  1
  Zn  Zn99  1  0.69011512  0.94119025  0.93400549  1
  Zn  Zn100  1  0.30236164  0.06152875  0.06134795  1
  Zn  Zn101  1  0.31476012  0.06283023  0.56399809  1
  Zn  Zn102  1  0.25275864  0.60120888  -0.10733646  1
  Zn  Zn103  1  0.31110771  0.57927299  0.57274315  1
  Zn  Zn104  1  0.76679448  0.03648305  0.03815454  1
  Zn  Zn105  1  0.80947624  0.06897543  0.54795716  1
  Zn  Zn106  1  0.77442722  0.57166760  0.06492011  1
  Zn  Zn107  1  0.80861657  0.55800070  0.56875895  1
  Zn  Zn108  1  0.44780279  0.42507543  0.17182606  1
  Zn  Zn109  1  0.43461937  0.44290175  0.68134421  1
  Zn  Zn110  1  0.44218898  0.93120862  0.17707109  1
  Zn  Zn111  1  0.43595599  0.94088741  0.68523853  1
  Zn  Zn112  1  0.95111208  0.42003955  0.18914544  1
  Zn  Zn113  1  0.94408152  0.44319630  0.69976213  1
  Zn  Zn114  1  0.93649735  0.94084522  0.20285138  1
  Zn  Zn115  1  0.94101306  0.94241717  0.68029802  1
  Zn  Zn116  1  0.06644154  0.05883175  0.32234992  1
  Zn  Zn117  1  0.06646529  0.07221410  0.80570413  1
  Zn  Zn118  1  0.05569327  0.55547652  0.30799853  1
  Zn  Zn119  1  0.09091031  0.52023748  0.84716782  1
  Zn  Zn120  1  0.56514516  0.05652493  0.30824110  1
  Zn  Zn121  1  0.56220714  0.07850523  0.81017659  1
  Zn  Zn122  1  0.55048169  0.58257194  0.37200352  1
  Zn  Zn123  1  0.57171385  0.56318906  0.81938495  1
  Zn  Zn124  1  0.44266653  0.17810294  0.43236766  1
  Zn  Zn125  1  0.46569101  0.22663501  0.95429302  1
  Zn  Zn126  1  0.44056283  0.70222359  0.46579099  1
  Zn  Zn127  1  0.41281761  0.65574661  0.97571018  1
  Zn  Zn128  1  0.92620880  0.18112733  0.42517983  1
  Zn  Zn129  1  0.95044606  0.16622387  0.94004266  1
  Zn  Zn130  1  0.93154390  0.69522158  0.43678563  1
  Zn  Zn131  1  0.94341955  0.70697947  0.93810300  1
  Zn  Zn132  1  0.07086051  0.28077552  0.07719922  1
  Zn  Zn133  1  0.05837562  0.31187425  0.56584198  1
  Zn  Zn134  1  0.07653425  0.85024487  0.04537198  1
  Zn  Zn135  1  0.06566356  0.81155779  0.55893585  1
  Zn  Zn136  1  0.56654217  0.36993361  0.05421128  1
  Zn  Zn137  1  0.56216437  0.33308253  0.58065767  1
  Zn  Zn138  1  0.57629277  0.75573730  0.08646008  1
  Zn  Zn139  1  0.56980190  0.81086135  0.55897397  1
  O  O140  1  0.13579230  0.10429962  0.12999583  1
  O  O141  1  0.11396891  0.12064752  0.61090531  1
  O  O142  1  0.14026083  0.58513434  0.11750228  1
  O  O143  1  0.11174550  0.61907592  0.62852094  1
  O  O144  1  0.60886942  0.13429606  0.11948868  1
  O  O145  1  0.61537852  0.11636908  0.63523621  1
  O  O146  1  0.67085189  0.68620888  0.13275821  1
  O  O147  1  0.62376471  0.59858822  0.65586579  1
  O  O148  1  0.37822094  0.40391917  0.32649685  1
  O  O149  1  0.34996787  0.35302333  0.88518562  1
  O  O150  1  0.37958321  0.88640690  0.37158866  1
  O  O151  1  0.39196641  0.89621862  0.85625898  1
  O  O152  1  0.88447768  0.36616295  0.37858082  1
  O  O153  1  0.88130742  0.41456773  0.89319001  1
  O  O154  1  0.89019953  0.86817856  0.38602247  1
  O  O155  1  0.87815364  0.89460931  0.86191716  1
  O  O156  1  0.26192380  -0.00833408  0.37185089  1
  O  O157  1  0.27075109  0.00091857  0.85369265  1
  O  O158  1  0.22475565  0.50242584  0.35802021  1
  O  O159  1  0.20463061  0.49609913  0.87242923  1
  O  O160  1  0.73661388  0.00339811  0.36332240  1
  O  O161  1  0.76052969  0.00982612  0.85732463  1
  O  O162  1  0.76711569  0.49459987  0.39046080  1
  O  O163  1  0.76785494  0.53198846  0.87602936  1
  O  O164  1  0.24071785  0.46882106  0.13452036  1
  O  O165  1  0.23120658  0.50386326  0.61951066  1
  O  O166  1  0.25139317  0.98683787  0.14069004  1
  O  O167  1  0.23610649  1.00936590  0.63117719  1
  O  O168  1  0.77166901  0.47451067  0.13040457  1
  O  O169  1  0.74864471  0.50553255  0.65081864  1
  O  O170  1  0.73517128  1.00517305  0.14191754  1
  O  O171  1  0.74329873  0.99679441  0.62681927  1
  O  O172  1  0.00760005  0.35814164  0.26752431  1
  O  O173  1  -0.02800529  0.35377972  0.76501513  1
  O  O174  1  0.00585915  0.87457036  0.27071747  1
  O  O175  1  0.00833278  0.86923862  0.74197018  1
  O  O176  1  0.51314716  0.35513526  0.24052629  1
  O  O177  1  0.48638687  0.36330677  0.74466585  1
  O  O178  1  0.49704892  0.87567907  0.26445261  1
  O  O179  1  0.51941845  0.88706553  0.74909406  1
  O  O180  1  0.48735197  0.12458998  0.24357837  1
  O  O181  1  0.48838457  0.13616939  0.73405033  1
  O  O182  1  0.49070905  0.62580707  0.28017063  1
  O  O183  1  0.48886654  0.61135378  0.76571693  1
  O  O184  1  0.99341158  0.13335148  0.27940085  1
  O  O185  1  0.98931582  0.12346476  0.73536866  1
  O  O186  1  0.97744204  0.61344663  0.24905448  1
  O  O187  1  0.98959428  0.63963399  0.73682478  1
  O  O188  1  0.36119077  0.22933810  0.02000347  1
  O  O189  1  0.38279105  0.24867158  0.50480107  1
  O  O190  1  0.37080659  0.76846076  -0.04118875  1
  O  O191  1  0.37035725  0.75261489  0.53838921  1
  O  O192  1  0.87979244  0.21947951  0.03021734  1
  O  O193  1  0.87364134  0.25115689  0.50707470  1
  O  O194  1  0.87218297  0.77122178  0.00299408  1
  O  O195  1  0.85729120  0.76278757  0.49955247  1
  O  O196  1  0.12239672  0.25285228  0.48972158  1
  O  O197  1  0.14178277  0.23916561  1.00221017  1
  O  O198  1  0.13621685  0.74682630  0.49598955  1
  O  O199  1  0.12847835  0.77665341  0.97268386  1
  O  O200  1  0.62227634  0.25213691  0.52245176  1
  O  O201  1  0.71023917  0.31367142  0.99116988  1
  O  O202  1  0.64835504  0.74841071  0.50716740  1
  O  O203  1  0.63337263  0.76954167  0.98419498  1
  O  O204  1  0.47710034  0.23160615  0.14170096  1
  O  O205  1  0.48351323  0.24868037  0.62981795  1
  O  O206  1  0.49080979  0.74300786  0.15922561  1
  O  O207  1  0.50308508  0.74977281  0.62888742  1
  O  O208  1  1.00433127  0.23486586  0.15391536  1
  O  O209  1  0.98680241  0.23263437  0.61212720  1
  O  O210  1  1.04874967  0.71387671  0.08190221  1
  O  O211  1  1.00965130  0.73935063  0.63072496  1
  O  O212  1  0.00431810  0.25989869  0.37974159  1
  O  O213  1  0.00651902  0.24580845  0.87701198  1
  O  O214  1  0.01548905  0.76152118  0.39162429  1
  O  O215  1  0.01360487  0.76138474  0.86113584  1
  O  O216  1  0.48421638  0.25377761  0.35735117  1
  O  O217  1  0.50446828  0.24192989  0.85178364  1
  O  O218  1  0.47340716  0.76437003  0.37326157  1
  O  O219  1  0.51963912  0.77426736  0.87291463  1
  O  O220  1  0.26783843  0.13249448  0.49501746  1
  O  O221  1  0.21627081  0.08060344  0.99039081  1
  O  O222  1  0.26297474  0.65217840  0.49960263  1
  O  O223  1  0.24395332  0.66862414  0.98350040  1
  O  O224  1  0.73551770  0.13578895  0.49808228  1
  O  O225  1  0.75631344  0.12727950  0.97038680  1
  O  O226  1  0.76467651  0.63197677  0.48863602  1
  O  O227  1  0.75737483  0.65427380  0.98378887  1
  O  O228  1  0.26334944  0.36353490  0.01937065  1
  O  O229  1  0.24692905  0.38609820  0.51524168  1
  O  O230  1  0.25595471  0.87816092  -0.02098304  1
  O  O231  1  0.25659573  0.84884186  0.49352448  1
  O  O232  1  0.77335056  0.34948010  0.00132381  1
  O  O233  1  0.74333729  0.34950870  0.49244728  1
  O  O234  1  0.77136513  0.88549764  -0.00512077  1
  O  O235  1  0.75555409  0.86536522  0.50386420  1
  O  O236  1  0.11242696  0.47332020  0.24339975  1
  O  O237  1  0.11498880  0.50586568  0.72948921  1
  O  O238  1  0.13839057  0.99778641  0.24889616  1
  O  O239  1  0.13344613  1.00223875  0.73707361  1
  O  O240  1  0.64507089  0.48627054  0.23467146  1
  O  O241  1  0.65576574  0.48891743  0.79095103  1
  O  O242  1  0.62753495  0.99829818  0.23219501  1
  O  O243  1  0.63539038  0.99654871  0.73983760  1
  O  O244  1  0.36521570  -0.00302742  0.25470213  1
  O  O245  1  0.36692543  0.01817638  0.73596567  1
  O  O246  1  0.38031928  0.45722586  0.27035287  1
  O  O247  1  0.36870223  0.51388107  0.73916406  1
  O  O248  1  0.85486872  0.00251082  0.24985951  1
  O  O249  1  0.86858321  0.00940915  0.74684141  1
  O  O250  1  0.87170693  0.47306102  0.25041927  1
  O  O251  1  0.87436048  0.52378645  0.76417860  1
  O  O252  1  0.12110601  0.36710774  0.36942114  1
  O  O253  1  0.05867591  0.40352443  0.84109229  1
  O  O254  1  0.11634616  0.86447301  0.37099184  1
  O  O255  1  0.12134791  0.89748293  0.85661643  1
  O  O256  1  0.62065009  0.37518803  0.35101557  1
  O  O257  1  0.64185750  0.36618448  0.95977436  1
  O  O258  1  0.60406455  0.87102489  0.38277772  1
  O  O259  1  0.62133823  0.88251261  0.86174507  1
  O  O260  1  0.37376645  0.11980356  0.13583505  1
  O  O261  1  0.38154213  0.13939238  0.62969152  1
  O  O262  1  0.38075387  0.67066161  0.08652054  1
  O  O263  1  0.37187198  0.64124617  0.64842444  1
  O  O264  1  0.84150251  0.18262154  0.08816000  1
  O  O265  1  0.88761680  0.11504518  0.62563227  1
  O  O266  1  0.86069938  0.61948605  0.14018141  1
  O  O267  1  0.88017986  0.62562792  0.63778852  1
  O  O268  1  0.25743600  0.24297779  0.14031138  1
  O  O269  1  0.25673433  0.25831285  0.61989114  1
  O  O270  1  0.25845870  0.76695543  0.09682413  1
  O  O271  1  0.23491431  0.75320067  0.62874021  1
  O  O272  1  0.78027866  0.22538300  0.11698547  1
  O  O273  1  0.76416702  0.24553420  0.61109349  1
  O  O274  1  0.73249698  0.74288572  0.13372576  1
  O  O275  1  0.74551544  0.76423545  0.62957621  1
  O  O276  1  0.23787910  0.25608031  0.37790040  1
  O  O277  1  0.17296994  0.31195015  0.85896702  1
  O  O278  1  0.22665463  0.74365574  0.37025637  1
  O  O279  1  0.23702259  0.76763202  0.86455115  1
  O  O280  1  0.73493373  0.23512724  0.38945043  1
  O  O281  1  0.78070350  0.24370747  0.86055137  1
  O  O282  1  0.74707395  0.75066821  0.38109781  1
  O  O283  1  0.74382118  0.75650355  0.86903609  1
  O  O284  1  0.03855395  0.11168398  -0.01128067  1
  O  O285  1  -0.00570443  0.11782334  0.50161465  1
  O  O286  1  0.01280748  0.66339611  0.02777857  1
  O  O287  1  -0.01107475  0.61923872  0.51517091  1
  O  O288  1  0.49300237  0.13345863  0.01476565  1
  O  O289  1  0.49460099  0.11224858  0.51184380  1
  O  O290  1  0.52411402  0.63813478  0.01856572  1
  O  O291  1  0.49604081  0.60630532  0.47589187  1
  O  O292  1  0.49726596  0.38859237  0.50368305  1
  O  O293  1  0.47094585  0.33684090  0.99971665  1
  O  O294  1  0.49888829  0.88436398  0.49969499  1
  O  O295  1  0.50139172  0.89268419  0.97869268  1
  O  O296  1  0.99911281  0.38276982  0.49255506  1
  O  O297  1  0.96565678  0.34821186  1.03223706  1
  O  O298  1  0.98602617  0.87227931  0.50126985  1
  O  O299  1  0.98092785  0.88164021  0.98903338  1
  O  O300  1  0.49585465  0.48308454  0.39227619  1
  O  O301  1  0.55273213  0.50539340  0.92294793  1
  O  O302  1  0.49191496  0.98730179  0.38270285  1
  O  O303  1  0.49304294  1.00156365  0.86267081  1
  O  O304  1  1.00083561  0.48507445  0.38884244  1
  O  O305  1  0.98602285  0.54167195  0.88873387  1
  O  O306  1  1.01350780  0.98010063  0.38732147  1
  O  O307  1  0.98453530  1.00793009  0.86010842  1
  O  O308  1  0.00928642  0.00945494  0.14781050  1
  O  O309  1  0.01578796  0.01222434  0.62352801  1
  O  O310  1  0.01151568  0.49097757  0.12377727  1
  O  O311  1  0.00249569  0.50981842  0.62176291  1
  O  O312  1  0.51106114  0.01023989  0.12555867  1
  O  O313  1  0.50535547  0.00768219  0.61876766  1
  O  O314  1  0.51536555  0.47658362  0.09290129  1
  O  O315  1  0.50228257  0.50523174  0.60456601  1
  O  O316  1  0.23294081  0.36105050  0.24537628  1
  O  O317  1  0.25429357  0.38763905  0.72104833  1
  O  O318  1  0.23337635  0.88004194  0.26053036  1
  O  O319  1  0.23931998  0.89195229  0.74557412  1
  O  O320  1  0.74384856  0.37471268  0.25678515  1
  O  O321  1  0.78198838  0.39556927  0.76464491  1
  O  O322  1  0.74793980  0.88683117  0.25631497  1
  O  O323  1  0.74608122  0.88918590  0.73913587  1
  O  O324  1  0.26182022  0.10436471  0.25305928  1
  O  O325  1  0.26072021  0.12447403  0.73994334  1
  O  O326  1  0.31620449  0.59209595  0.32398288  1
  O  O327  1  0.25764128  0.61487735  0.76987331  1
  O  O328  1  0.74469155  0.11865696  0.26899493  1
  O  O329  1  0.76426448  0.12004371  0.74419313  1
  O  O330  1  0.76976907  0.59023223  0.25950059  1
  O  O331  1  0.76655942  0.63487448  0.75729463  1
  O  O332  1  0.38406002  0.10326511  0.36219009  1
  O  O333  1  0.38271039  0.11690231  0.85263532  1
  O  O334  1  0.28738357  0.55153050  0.37892338  1
  O  O335  1  0.37366041  0.61498088  0.87481259  1
  O  O336  1  0.84251758  0.11546073  0.39267402  1
  O  O337  1  0.87355790  0.11833403  0.85497502  1
  O  O338  1  0.86356222  0.62980561  0.36248280  1
  O  O339  1  0.86873331  0.64401042  0.86813972  1
  O  O340  1  0.13240524  0.36229414  0.13847027  1
  O  O341  1  0.13137725  0.38400004  0.62147726  1
  O  O342  1  0.10840567  0.87730387  0.15317978  1
  O  O343  1  0.11813522  0.89127511  0.63057314  1
  O  O344  1  0.63298798  0.35051109  0.14417770  1
  O  O345  1  0.62007137  0.41116327  0.64343756  1
  O  O346  1  0.61093607  0.87525747  0.12098007  1
  O  O347  1  0.63346267  0.88485900  0.63349954  1
  O  O348  1  0.11454790  0.25122291  0.26923091  1
  O  O349  1  0.10241309  0.25447838  0.73207393  1
  O  O350  1  0.11893693  0.75594062  0.25952274  1
  O  O351  1  0.12101555  0.76406787  0.75753224  1
  O  O352  1  0.60871220  0.23301420  0.24941186  1
  O  O353  1  0.60898464  0.25933146  0.73013732  1
  O  O354  1  0.59666375  0.73932299  0.27112360  1
  O  O355  1  0.63312350  0.77269005  0.75713921  1
  O  O356  1  0.37177496  0.22537831  0.25104190  1
  O  O357  1  0.36759367  0.24211963  0.74682147  1
  O  O358  1  0.36689918  0.74476879  0.24323793  1
  O  O359  1  0.38284606  0.73108476  0.75610815  1
  O  O360  1  0.88546584  0.25065030  0.26038165  1
  O  O361  1  0.87312867  0.23370385  0.72636709  1
  O  O362  1  0.87411597  0.74074508  0.24710263  1
  O  O363  1  0.88761032  0.74732096  0.75156482  1
  O  O364  1  0.37157167  0.50152536  0.50828133  1
  O  O365  1  0.38096900  0.47426839  0.98740533  1
  O  O366  1  0.38229496  0.99903164  0.48967376  1
  O  O367  1  0.37183533  1.01410091  0.97704540  1
  O  O368  1  0.88940401  0.49928570  0.51139029  1
  O  O369  1  0.87427662  0.53612581  1.00125835  1
  O  O370  1  0.86344392  0.98039309  0.49713706  1
  O  O371  1  0.86919053  1.00158115  0.97845627  1
  O  O372  1  0.11746259  -0.03453926  0.03342013  1
  O  O373  1  0.13701001  -0.00306678  0.50937417  1
  O  O374  1  0.12294598  0.45889306  0.01512976  1
  O  O375  1  0.10232420  0.50214829  0.51606297  1
  O  O376  1  0.64627988  -0.00074578  0.02287366  1
  O  O377  1  0.61716223  -0.00799047  0.51363502  1
  O  O378  1  0.66023429  0.53697965  0.03205538  1
  O  O379  1  0.63735801  0.50469573  0.50954727  1
  O  O380  1  0.36215232  0.35083183  0.13396779  1
  O  O381  1  0.36531088  0.36060318  0.61891611  1
  O  O382  1  0.38952479  0.85319570  0.11500456  1
  O  O383  1  0.37532903  0.84826112  0.66544020  1
  O  O384  1  0.91204088  0.36427510  0.08245749  1
  O  O385  1  0.88755446  0.36411000  0.62551618  1
  O  O386  1  0.88273030  0.88669543  0.11675173  1
  O  O387  1  0.86674906  0.88012115  0.61425920  1
  O  O388  1  0.12594700  0.13811781  0.38301393  1
  O  O389  1  0.13777113  0.13801177  0.86297979  1
  O  O390  1  0.10907511  0.63243558  0.37367479  1
  O  O391  1  0.12248497  0.64503362  0.87218940  1
  O  O392  1  0.62951409  0.11307048  0.38258812  1
  O  O393  1  0.64952215  0.13789456  0.85098659  1
  O  O394  1  0.66076100  0.61233931  0.36001751  1
  O  O395  1  0.64114936  0.65168979  0.86531959  1
