# generated using pymatgen
data_V35Zn35O128
_symmetry_space_group_name_H-M   'P 1'
_cell_length_a   16.86430951
_cell_length_b   17.02563866
_cell_length_c   16.84807776
_cell_angle_alpha   90.05862481
_cell_angle_beta   89.85443790
_cell_angle_gamma   90.04523767
_symmetry_Int_Tables_number   1
_chemical_formula_structural   V35Zn35O128
_chemical_formula_sum   'V70 Zn70 O256'
_cell_volume   4837.49546860
_cell_formula_units_Z   2
loop_
 _symmetry_equiv_pos_site_id
 _symmetry_equiv_pos_as_xyz
  1  'x, y, z'
loop_
 _atom_site_type_symbol
 _atom_site_label
 _atom_site_symmetry_multiplicity
 _atom_site_fract_x
 _atom_site_fract_y
 _atom_site_fract_z
 _atom_site_occupancy
  V  V0  1  0.74615470  -0.00864171  0.74914329  1
  V  V1  1  0.87404775  -0.01543584  0.88550982  1
  V  V2  1  -0.00270443  0.24382749  0.25091195  1
  V  V3  1  0.62423174  0.86315977  0.75786577  1
  V  V4  1  0.36278706  0.76084941  0.12414938  1
  V  V5  1  0.88356249  0.24612143  0.11654054  1
  V  V6  1  0.74413045  0.24154645  -0.00110077  1
  V  V7  1  0.73698509  0.11606135  0.87703667  1
  V  V8  1  -0.00507100  0.75703909  0.74164620  1
  V  V9  1  0.49040581  -0.00521859  -0.01124786  1
  V  V10  1  0.13387322  0.24518570  0.38752349  1
  V  V11  1  -0.01676924  0.48763265  0.00018340  1
  V  V12  1  0.85183782  0.24024964  0.60541558  1
  V  V13  1  0.75892136  0.50851729  0.25450551  1
  V  V14  1  0.49354310  0.25141091  0.73546381  1
  V  V15  1  0.49013084  0.49863767  0.50775406  1
  V  V16  1  0.21637433  0.50003928  0.72595130  1
  V  V17  1  0.37125110  0.73369453  0.61114558  1
  V  V18  1  0.74481987  0.10292726  0.38080564  1
  V  V19  1  -0.00978832  0.36923907  0.38033639  1
  V  V20  1  0.48503704  0.88006381  0.39784330  1
  V  V21  1  0.61897831  0.74736221  0.36924028  1
  V  V22  1  0.38347353  0.09924648  0.72810257  1
  V  V23  1  0.01935191  0.48904692  0.51068158  1
  V  V24  1  0.49535365  0.76296182  0.25093056  1
  V  V25  1  0.24814475  0.61479698  0.38636336  1
  V  V26  1  0.12924015  0.74408064  0.87181870  1
  V  V27  1  0.87255224  0.50045225  0.37617215  1
  V  V28  1  0.50248948  0.12776154  0.10753539  1
  V  V29  1  0.63213419  0.24629212  0.38484612  1
  V  V30  1  0.25202494  0.76100800  0.00585537  1
  V  V31  1  0.62387404  -0.00920190  0.13218806  1
  V  V32  1  -0.01288097  -0.00107571  0.49505673  1
  V  V33  1  0.49751877  0.23906472  0.25162674  1
  V  V34  1  0.49252102  0.73550794  0.74434446  1
  V  V35  1  0.36061726  0.12251948  0.26240762  1
  V  V36  1  0.86486955  0.11588831  0.25024820  1
  V  V37  1  0.00645453  0.12466081  0.62112918  1
  V  V38  1  0.24608452  0.86413481  0.62028478  1
  V  V39  1  -0.00636182  0.86931474  0.37760637  1
  V  V40  1  0.13968823  0.89856312  0.27079574  1
  V  V41  1  0.87218990  0.12484441  0.74653022  1
  V  V42  1  0.72056954  0.63234687  0.89728664  1
  V  V43  1  0.48919229  0.38586792  0.36697060  1
  V  V44  1  0.49037168  0.37148744  0.88136074  1
  V  V45  1  0.12412726  0.64301295  0.50181777  1
  V  V46  1  0.13950896  0.49749288  0.12644955  1
  V  V47  1  0.12893276  0.61632663  0.00735613  1
  V  V48  1  0.63070377  0.36947293  0.24772535  1
  V  V49  1  0.39625238  0.53778787  0.87614569  1
  V  V50  1  0.75460774  0.36994944  0.11652540  1
  V  V51  1  0.87836102  0.61963064  0.76736020  1
  V  V52  1  0.47841557  0.87399738  0.87106239  1
  V  V53  1  0.50774013  0.49218368  0.00768207  1
  V  V54  1  0.61244783  -0.00066945  0.61306902  1
  V  V55  1  0.76974987  0.87602249  0.12700569  1
  V  V56  1  0.31320095  0.32639523  0.57671646  1
  V  V57  1  0.61801723  0.62135293  0.51126229  1
  V  V58  1  0.36314444  0.61002105  0.24684114  1
  V  V59  1  0.50508718  0.62754165  0.12767094  1
  V  V60  1  0.63586361  0.51124389  0.12118797  1
  V  V61  1  0.62483558  0.25857283  0.87164346  1
  V  V62  1  0.76040661  0.86683178  0.61710262  1
  V  V63  1  0.25656752  0.09987120  0.85564233  1
  V  V64  1  0.12860373  0.38143892  0.24990279  1
  V  V65  1  0.25885063  0.27969580  -0.01219211  1
  V  V66  1  0.00652263  0.87502592  0.88903974  1
  V  V67  1  0.75677537  0.74727440  0.49414068  1
  V  V68  1  0.81847688  0.42311752  0.56365684  1
  V  V69  1  0.00072697  0.61800829  0.62586460  1
  Zn  Zn70  1  0.12588819  -0.01368245  0.63475422  1
  Zn  Zn71  1  0.71241948  0.75296135  0.02131372  1
  Zn  Zn72  1  0.31872138  -0.03623836  0.34966540  1
  Zn  Zn73  1  0.17113852  0.08500199  0.46392136  1
  Zn  Zn74  1  0.12847200  0.16638948  -0.05540251  1
  Zn  Zn75  1  -0.00699869  0.61488335  0.14995582  1
  Zn  Zn76  1  0.19751048  0.21603757  0.19015295  1
  Zn  Zn77  1  0.22208906  0.16660825  0.64110876  1
  Zn  Zn78  1  0.15666284  0.67728826  0.23325912  1
  Zn  Zn79  1  0.19254208  0.67813105  0.69158032  1
  Zn  Zn80  1  0.68291237  0.17882150  0.18669315  1
  Zn  Zn81  1  0.67606878  0.18066114  0.68634554  1
  Zn  Zn82  1  0.81747119  0.69549442  0.19201601  1
  Zn  Zn83  1  0.69346376  0.68572135  0.68730687  1
  Zn  Zn84  1  0.33476814  0.34277969  0.24997835  1
  Zn  Zn85  1  0.28388520  0.29912240  0.76448624  1
  Zn  Zn86  1  0.30203480  0.79066784  0.32235157  1
  Zn  Zn87  1  0.31074902  0.79723918  0.80419215  1
  Zn  Zn88  1  0.81131486  0.30804486  0.31119138  1
  Zn  Zn89  1  0.81006812  0.30558007  0.79765228  1
  Zn  Zn90  1  0.79445309  0.83429683  0.31535558  1
  Zn  Zn91  1  0.81203205  0.80342579  0.81672346  1
  Zn  Zn92  1  0.19786926  0.42865132  0.42986343  1
  Zn  Zn93  1  0.27021339  0.41470359  0.89294665  1
  Zn  Zn94  1  0.18108092  0.92290789  0.46265662  1
  Zn  Zn95  1  0.17976255  0.92968976  0.79499795  1
  Zn  Zn96  1  0.67792749  0.43777718  0.43540232  1
  Zn  Zn97  1  0.72899007  0.42810865  0.91396784  1
  Zn  Zn98  1  0.67536039  0.92713738  0.43351781  1
  Zn  Zn99  1  0.67814667  0.93429141  0.95133666  1
  Zn  Zn100  1  0.31785240  0.14057453  0.05798654  1
  Zn  Zn101  1  0.30897279  0.04109910  0.54925789  1
  Zn  Zn102  1  0.31667657  0.56544013  0.05629271  1
  Zn  Zn103  1  0.31113611  0.55564547  0.56891232  1
  Zn  Zn104  1  0.80995988  0.06023862  0.06663736  1
  Zn  Zn105  1  0.80314452  0.05322013  0.56067256  1
  Zn  Zn106  1  0.81814535  0.57232130  0.05797690  1
  Zn  Zn107  1  0.81584390  0.58548756  0.56036807  1
  Zn  Zn108  1  0.44451281  0.43684455  0.17923946  1
  Zn  Zn109  1  0.44451035  0.44179552  0.69772054  1
  Zn  Zn110  1  0.42710473  0.94982302  0.18300137  1
  Zn  Zn111  1  0.43201260  0.92125730  0.67503599  1
  Zn  Zn112  1  0.94109269  0.43252456  0.18302293  1
  Zn  Zn113  1  0.77411025  0.49504787  0.75057429  1
  Zn  Zn114  1  0.91655128  0.90866031  0.22786424  1
  Zn  Zn115  1  0.94156279  0.94084929  0.69146337  1
  Zn  Zn116  1  0.06149793  0.06327245  0.30927784  1
  Zn  Zn117  1  0.06120991  0.07391393  0.81766704  1
  Zn  Zn118  1  0.05476048  0.56141065  0.32209305  1
  Zn  Zn119  1  0.05626868  0.55803587  0.81662061  1
  Zn  Zn120  1  0.56255410  0.05511139  0.32048676  1
  Zn  Zn121  1  0.55621113  0.05939261  0.80155949  1
  Zn  Zn122  1  0.56871646  0.56701888  0.30733283  1
  Zn  Zn123  1  0.55655847  0.55497619  0.80745834  1
  Zn  Zn124  1  0.31436446  0.19841421  0.44844024  1
  Zn  Zn125  1  0.42509570  0.18583255  0.92100451  1
  Zn  Zn126  1  0.43529028  0.67741278  0.43357268  1
  Zn  Zn127  1  0.53195802  0.68819639  0.93432002  1
  Zn  Zn128  1  0.93312689  0.17658122  0.43361461  1
  Zn  Zn129  1  0.93236165  0.17393753  0.93557117  1
  Zn  Zn130  1  0.91241304  0.70601708  0.36097878  1
  Zn  Zn131  1  0.95687481  0.67731780  0.94243207  1
  Zn  Zn132  1  0.07025399  0.31762016  0.05782031  1
  Zn  Zn133  1  0.03945566  0.29747470  0.56094657  1
  Zn  Zn134  1  0.07572838  0.82065289  0.06341866  1
  Zn  Zn135  1  0.05788532  0.81703094  0.56106891  1
  Zn  Zn136  1  0.56654674  0.30747868  0.06323890  1
  Zn  Zn137  1  0.49605689  0.27991694  0.52616716  1
  Zn  Zn138  1  0.54944370  0.82089493  0.06405958  1
  Zn  Zn139  1  0.56413263  0.81211742  0.56626561  1
  O  O140  1  0.04472713  0.08934085  0.09916218  1
  O  O141  1  0.10456958  0.13864289  0.63540877  1
  O  O142  1  0.12747952  0.60915509  0.12314710  1
  O  O143  1  0.11626751  0.63034077  0.61295733  1
  O  O144  1  0.60949804  0.11470652  0.12498294  1
  O  O145  1  0.62423454  0.09839227  0.63283432  1
  O  O146  1  0.62566377  0.60955103  0.13653314  1
  O  O147  1  0.62588470  0.62757816  0.61119158  1
  O  O148  1  0.39155258  0.37466271  0.35052941  1
  O  O149  1  0.39339978  0.38316674  0.88649250  1
  O  O150  1  0.38126474  0.86493640  0.37316820  1
  O  O151  1  0.38086582  0.87399277  0.86189129  1
  O  O152  1  0.88397917  0.37790228  0.37173074  1
  O  O153  1  0.92680545  0.34114645  0.85379807  1
  O  O154  1  0.89284766  0.88811980  0.35710236  1
  O  O155  1  0.87807155  0.87878244  0.87854860  1
  O  O156  1  0.26552765  0.00471419  0.44156794  1
  O  O157  1  0.24674925  0.00162486  0.85724552  1
  O  O158  1  0.24375337  0.51534599  0.36961994  1
  O  O159  1  0.29640237  0.52841910  0.89348512  1
  O  O160  1  0.73422014  0.00438790  0.36971586  1
  O  O161  1  0.75552827  -0.00240219  0.87087898  1
  O  O162  1  0.75665064  0.48786489  0.36127635  1
  O  O163  1  0.74785713  0.53534053  0.87556888  1
  O  O164  1  0.23848130  0.49766333  0.12055874  1
  O  O165  1  0.23656588  0.49266321  0.62587100  1
  O  O166  1  0.23563447  1.01668247  0.10667963  1
  O  O167  1  0.25216651  0.97108691  0.62206011  1
  O  O168  1  0.74771482  0.49054466  0.13281684  1
  O  O169  1  0.77629460  0.49158009  0.62824734  1
  O  O170  1  0.73156936  0.99189920  0.11192744  1
  O  O171  1  0.74225938  0.98344394  0.63195878  1
  O  O172  1  0.00392412  0.36293637  0.25942101  1
  O  O173  1  0.03888747  0.34279549  0.72350629  1
  O  O174  1  0.01907877  0.88916309  0.27099899  1
  O  O175  1  -0.00403516  0.85891666  0.75326385  1
  O  O176  1  0.51501813  0.36772966  0.24905415  1
  O  O177  1  0.50102774  0.36268247  0.77097751  1
  O  O178  1  0.48780206  0.86155741  0.24958273  1
  O  O179  1  0.51187971  0.87442655  0.75762743  1
  O  O180  1  0.49878150  0.13570452  0.25814128  1
  O  O181  1  0.49047466  0.13969230  0.75139277  1
  O  O182  1  0.49472615  0.63220260  0.24232229  1
  O  O183  1  0.51984905  0.64105277  0.74393643  1
  O  O184  1  0.98636342  0.13835180  0.25829451  1
  O  O185  1  0.97643288  0.11425925  0.73747286  1
  O  O186  1  1.04334512  0.64520845  0.25008871  1
  O  O187  1  0.99573428  0.63422546  0.74651723  1
  O  O188  1  0.35869767  0.23761663  -0.00375717  1
  O  O189  1  0.37932972  0.26181097  0.52172281  1
  O  O190  1  0.36087111  0.74760151  0.01578033  1
  O  O191  1  0.37940486  0.73968808  0.51076742  1
  O  O192  1  0.87124528  0.23894000  0.01065546  1
  O  O193  1  0.86234459  0.23510529  0.50592782  1
  O  O194  1  0.92107033  0.75723374  0.03497164  1
  O  O195  1  0.85250048  0.74035711  0.47491101  1
  O  O196  1  0.11527287  0.25542206  0.48683523  1
  O  O197  1  0.14341612  0.26731351  0.98978400  1
  O  O198  1  0.11461458  0.73915666  0.49431840  1
  O  O199  1  0.13121788  0.74036173  1.00011524  1
  O  O200  1  0.60432812  0.25233031  0.48062312  1
  O  O201  1  0.63524517  0.24446014  0.98862844  1
  O  O202  1  0.61997113  0.73737882  0.49298069  1
  O  O203  1  0.60233287  0.75048445  0.99812800  1
  O  O204  1  0.51271426  0.23601140  0.13647884  1
  O  O205  1  0.51605186  0.26328506  0.63918458  1
  O  O206  1  0.48967443  0.74496997  0.13612823  1
  O  O207  1  0.48731906  0.75821217  0.63795774  1
  O  O208  1  0.98869695  0.25382070  0.12939106  1
  O  O209  1  0.97227784  0.22715439  0.62072605  1
  O  O210  1  0.96989317  0.76124331  0.09383577  1
  O  O211  1  1.00716623  0.74309938  0.63876554  1
  O  O212  1  -0.00110375  0.25412108  0.37001343  1
  O  O213  1  -0.02880490  0.28321435  0.86851271  1
  O  O214  1  0.00117374  0.77082125  0.38622121  1
  O  O215  1  0.00571877  0.76085553  0.87334373  1
  O  O216  1  0.51256424  0.26430607  0.35767007  1
  O  O217  1  0.51005982  0.25793872  0.88231148  1
  O  O218  1  0.49570469  0.75400306  0.36566725  1
  O  O219  1  0.50083161  0.77000746  0.85698542  1
  O  O220  1  0.24836069  0.14169042  0.52922800  1
  O  O221  1  0.24419844  0.12611575  0.96081052  1
  O  O222  1  0.23984113  0.62445045  0.49385460  1
  O  O223  1  0.23398098  0.63190994  1.00737067  1
  O  O224  1  0.75058668  0.11458917  0.48023680  1
  O  O225  1  0.75663860  0.13243137  0.98874058  1
  O  O226  1  0.73599353  0.63930634  0.49897127  1
  O  O227  1  0.74221149  0.63771811  1.00033562  1
  O  O228  1  0.26409185  0.37764033  0.00393621  1
  O  O229  1  0.25738779  0.37187971  0.50645570  1
  O  O230  1  0.23995421  0.85535587  0.00729924  1
  O  O231  1  0.24470227  0.84769769  0.51814649  1
  O  O232  1  0.75049046  0.35921156  0.00582885  1
  O  O233  1  0.74547195  0.38232943  0.51034946  1
  O  O234  1  0.74147750  0.86748471  0.01654144  1
  O  O235  1  0.74480351  0.86351753  0.50949717  1
  O  O236  1  0.11754059  0.48655282  0.24436864  1
  O  O237  1  0.11507368  0.49576830  0.74359629  1
  O  O238  1  0.13242805  0.99734829  0.24897995  1
  O  O239  1  0.10354894  0.99613471  0.74647031  1
  O  O240  1  0.64030441  0.48936380  0.24352147  1
  O  O241  1  0.63750555  0.49472230  0.73789960  1
  O  O242  1  0.61536560  1.00531932  0.23220895  1
  O  O243  1  0.63419332  0.98602243  0.74633840  1
  O  O244  1  0.37263216  0.01587771  0.25940598  1
  O  O245  1  0.39325432  0.00290719  0.74825046  1
  O  O246  1  0.38690892  0.51414464  0.24559943  1
  O  O247  1  0.41589718  0.51748829  0.77610948  1
  O  O248  1  0.88383619  0.02082949  0.23825184  1
  O  O249  1  0.86024338  0.00024572  0.75626178  1
  O  O250  1  0.86521913  0.48752465  0.25687253  1
  O  O251  1  0.89142008  0.52171808  0.75822784  1
  O  O252  1  0.11116389  0.36570057  0.36755291  1
  O  O253  1  0.12183576  0.39728563  0.88064238  1
  O  O254  1  0.11448391  0.88640628  0.37525497  1
  O  O255  1  0.11275855  0.85927736  0.87191621  1
  O  O256  1  0.62280889  0.36518675  0.36265239  1
  O  O257  1  0.62404242  0.35828306  0.87847146  1
  O  O258  1  0.59889019  0.85591957  0.38388870  1
  O  O259  1  0.63134068  0.87505363  0.85867949  1
  O  O260  1  0.39867016  0.12133855  0.14069132  1
  O  O261  1  0.38182513  0.09977926  0.62571703  1
  O  O262  1  0.38526929  0.63016355  0.13194550  1
  O  O263  1  0.37380913  0.63347272  0.62530484  1
  O  O264  1  0.86644064  0.13927998  0.13441055  1
  O  O265  1  0.86431075  0.12375410  0.63341813  1
  O  O266  1  0.88017466  0.62382289  0.13442928  1
  O  O267  1  0.89608701  0.62837318  0.62817494  1
  O  O268  1  0.24410544  0.22728988  0.09173262  1
  O  O269  1  0.25217810  0.27853273  0.65118953  1
  O  O270  1  0.25927338  0.74513355  0.12183880  1
  O  O271  1  0.26263861  0.74390270  0.63168887  1
  O  O272  1  0.75306420  0.25192607  0.11547602  1
  O  O273  1  0.75264827  0.23846568  0.62617305  1
  O  O274  1  0.75830264  0.76905711  0.12811339  1
  O  O275  1  0.74912949  0.75825278  0.61021421  1
  O  O276  1  0.23365403  0.25474348  0.38160173  1
  O  O277  1  0.25951524  0.28193637  0.87860919  1
  O  O278  1  0.22152188  0.70859443  0.33750680  1
  O  O279  1  0.23520257  0.75058369  0.88652386  1
  O  O280  1  0.73537670  0.25189327  0.37737628  1
  O  O281  1  0.73949638  0.23788895  0.87737692  1
  O  O282  1  0.72579003  0.76785840  0.38536742  1
  O  O283  1  0.74638563  0.72817298  0.86916140  1
  O  O284  1  0.02818837  0.12219269  -0.07900363  1
  O  O285  1  -0.00421657  0.11594080  0.51190565  1
  O  O286  1  0.01431823  0.61625570  0.01892110  1
  O  O287  1  0.01613998  0.60517208  0.50599103  1
  O  O288  1  0.49673893  0.12610255  0.00505611  1
  O  O289  1  0.50744819  0.12646578  0.50934569  1
  O  O290  1  0.51209155  0.61164654  0.02390490  1
  O  O291  1  0.50876884  0.61168391  0.49403282  1
  O  O292  1  0.50015765  0.38755651  0.47681208  1
  O  O293  1  0.51227539  0.38038984  0.99463345  1
  O  O294  1  0.48976505  0.87091252  0.49744810  1
  O  O295  1  0.48889792  0.88413054  0.98250423  1
  O  O296  1  0.99680423  0.38124726  0.49531452  1
  O  O297  1  0.99905076  0.38779340  1.00630373  1
  O  O298  1  0.99970443  0.88879369  0.49226607  1
  O  O299  1  1.01191846  0.88172671  0.98854267  1
  O  O300  1  0.50853727  0.48718085  0.36620834  1
  O  O301  1  0.51180955  0.48441898  0.88925103  1
  O  O302  1  0.50033868  0.97828105  0.37653557  1
  O  O303  1  0.50528770  0.98753430  0.87909815  1
  O  O304  1  0.99344160  0.48688850  0.38821944  1
  O  O305  1  1.00293813  0.50703434  0.90139484  1
  O  O306  1  1.00299612  1.00740941  0.39263657  1
  O  O307  1  0.98250420  0.97903295  0.86324353  1
  O  O308  1  0.02628631  0.01963450  0.09287235  1
  O  O309  1  -0.00627280  0.01236701  0.61816754  1
  O  O310  1  0.00938303  0.49815135  0.11920892  1
  O  O311  1  0.00029817  0.50277444  0.61104482  1
  O  O312  1  0.50259905  0.00900028  0.11412054  1
  O  O313  1  0.51369208  -0.01717445  0.62595091  1
  O  O314  1  0.51989847  0.50371698  0.12726485  1
  O  O315  1  0.50173954  0.48805772  0.60630159  1
  O  O316  1  0.22644232  0.36886191  0.26338915  1
  O  O317  1  0.25988737  0.41527389  0.77593421  1
  O  O318  1  0.24399523  0.88744839  0.28744367  1
  O  O319  1  0.24227756  0.85588947  0.73944502  1
  O  O320  1  0.74461928  0.37337025  0.23764769  1
  O  O321  1  0.76131967  0.39873830  0.80653496  1
  O  O322  1  0.74882482  0.88893068  0.22828330  1
  O  O323  1  0.74330688  0.87190918  0.74209361  1
  O  O324  1  0.26446973  0.13650624  0.23708781  1
  O  O325  1  0.27580098  0.12313633  0.73607074  1
  O  O326  1  0.26335951  0.61137665  0.23423798  1
  O  O327  1  0.24185512  0.59487307  0.75228316  1
  O  O328  1  0.75876303  0.12595084  0.25480159  1
  O  O329  1  0.75169228  0.10825346  0.75619533  1
  O  O330  1  0.75197078  0.60501954  0.24995360  1
  O  O331  1  0.77100196  0.62336868  0.74327387  1
  O  O332  1  0.36167566  0.13588330  0.36348128  1
  O  O333  1  0.36423463  0.12352608  0.84980675  1
  O  O334  1  0.35722994  0.62992271  0.36104615  1
  O  O335  1  0.42674932  0.63039798  0.89250258  1
  O  O336  1  0.85721593  0.12654833  0.36138539  1
  O  O337  1  0.86207693  0.11166026  0.86050711  1
  O  O338  1  0.88430907  0.59877212  0.37768027  1
  O  O339  1  0.88137697  0.63478998  0.86905464  1
  O  O340  1  0.12226413  0.38225970  0.14084502  1
  O  O341  1  0.08752870  0.34657853  0.66727889  1
  O  O342  1  0.13547121  0.85130199  0.15874225  1
  O  O343  1  0.13481706  0.86562420  0.62840979  1
  O  O344  1  0.63697791  0.37807142  0.13051009  1
  O  O345  1  0.61710373  0.43913593  0.69162818  1
  O  O346  1  0.61016615  0.88990945  0.12885243  1
  O  O347  1  0.63506058  0.87922884  0.63554882  1
  O  O348  1  0.11415091  0.25705579  0.25590094  1
  O  O349  1  0.10745398  0.33447218  0.84841672  1
  O  O350  1  0.12668100  0.79439892  0.22185342  1
  O  O351  1  0.11439865  0.73423827  0.76816831  1
  O  O352  1  0.62153818  0.25537948  0.25290989  1
  O  O353  1  0.61473867  0.24142568  0.76670506  1
  O  O354  1  0.60388035  0.74923093  0.26331117  1
  O  O355  1  0.61907286  0.76108838  0.74032006  1
  O  O356  1  0.39271551  0.23964759  0.25006973  1
  O  O357  1  0.39239137  0.25305079  0.74295425  1
  O  O358  1  0.38012849  0.73682954  0.24210961  1
  O  O359  1  0.38928527  0.73467064  0.74974150  1
  O  O360  1  0.87999776  0.24278846  0.23997893  1
  O  O361  1  0.86402214  0.22715227  0.74287929  1
  O  O362  1  0.86402494  0.75481946  0.27308914  1
  O  O363  1  0.89093772  0.74207693  0.75288369  1
  O  O364  1  0.39082191  0.51086967  0.49623807  1
  O  O365  1  0.40309537  0.50648745  1.00037636  1
  O  O366  1  0.45783307  1.07759897  0.48868524  1
  O  O367  1  0.39485194  1.01421763  1.00109602  1
  O  O368  1  0.87205845  0.49040390  0.49767557  1
  O  O369  1  0.88132030  0.49521774  1.00584545  1
  O  O370  1  0.88636770  1.00000846  0.50273928  1
  O  O371  1  0.87353702  1.00769365  0.98260933  1
  O  O372  1  0.18407085  -0.00137618  0.05850088  1
  O  O373  1  0.10995636  0.00216512  0.51738469  1
  O  O374  1  0.12382012  0.50876248  0.01376750  1
  O  O375  1  0.11821061  0.48335574  0.50272686  1
  O  O376  1  0.60367792  -0.00042920  0.01023046  1
  O  O377  1  0.62696233  -0.00796701  0.51319520  1
  O  O378  1  0.62725918  0.49558200  0.01888868  1
  O  O379  1  0.61896531  0.51672080  0.49125780  1
  O  O380  1  0.36792204  0.36748849  0.14625938  1
  O  O381  1  0.37295390  0.38791378  0.62764460  1
  O  O382  1  0.37446801  0.85944524  0.13343374  1
  O  O383  1  0.35969518  0.85100857  0.63052144  1
  O  O384  1  0.86441246  0.35586579  0.13096711  1
  O  O385  1  0.86773299  0.34949421  0.61852648  1
  O  O386  1  0.87030125  0.89291189  0.12505897  1
  O  O387  1  0.85862535  0.87792146  0.63025775  1
  O  O388  1  0.12229475  0.14041022  0.37435782  1
  O  O389  1  0.16119333  0.14072267  0.83059873  1
  O  O390  1  0.12856362  0.60921524  0.39953549  1
  O  O391  1  0.11212589  0.63790055  0.89448938  1
  O  O392  1  0.63591566  0.13594086  0.36635506  1
  O  O393  1  0.63406152  0.12270885  0.86888839  1
  O  O394  1  0.61869095  0.64209299  0.38039464  1
  O  O395  1  0.61799937  0.62455725  0.87936516  1
