# generated using pymatgen
data_V35Zn35O128
_symmetry_space_group_name_H-M   'P 1'
_cell_length_a   16.89558705
_cell_length_b   16.86876673
_cell_length_c   16.88989444
_cell_angle_alpha   90.03740346
_cell_angle_beta   89.93539671
_cell_angle_gamma   90.04645619
_symmetry_Int_Tables_number   1
_chemical_formula_structural   V35Zn35O128
_chemical_formula_sum   'V70 Zn70 O256'
_cell_volume   4813.74458507
_cell_formula_units_Z   2
loop_
 _symmetry_equiv_pos_site_id
 _symmetry_equiv_pos_as_xyz
  1  'x, y, z'
loop_
 _atom_site_type_symbol
 _atom_site_label
 _atom_site_symmetry_multiplicity
 _atom_site_fract_x
 _atom_site_fract_y
 _atom_site_fract_z
 _atom_site_occupancy
  V  V0  1  0.50251763  0.86923381  0.36516455  1
  V  V1  1  0.74890781  0.88274600  0.62520536  1
  V  V2  1  -0.00125672  0.76052738  0.25557646  1
  V  V3  1  0.74761624  0.60946810  0.37051138  1
  V  V4  1  0.74843094  0.74553210  0.49680881  1
  V  V5  1  0.61410634  0.86799859  0.73981831  1
  V  V6  1  0.75484831  0.87538003  0.11640690  1
  V  V7  1  0.90454038  0.49392627  0.37584066  1
  V  V8  1  0.87993157  0.14586667  0.25762798  1
  V  V9  1  0.63048960  0.00673583  0.11581707  1
  V  V10  1  0.24571644  0.87565720  0.64061646  1
  V  V11  1  0.23527932  -0.00178419  0.24988215  1
  V  V12  1  0.10908606  0.26169200  0.35498105  1
  V  V13  1  0.88647368  0.74799838  0.62341020  1
  V  V14  1  0.86558419  0.62376032  0.75053508  1
  V  V15  1  0.74978181  0.37978117  0.15664797  1
  V  V16  1  0.37878171  -0.00420805  0.88304855  1
  V  V17  1  0.50448441  -0.00561577  0.50476077  1
  V  V18  1  0.50038036  0.25525026  0.25399779  1
  V  V19  1  0.62019583  0.25831402  0.37323763  1
  V  V20  1  0.49924710  0.86440519  0.88617921  1
  V  V21  1  0.23951380  0.38191931  0.13194400  1
  V  V22  1  0.00972191  0.61849454  0.62986850  1
  V  V23  1  0.51997847  0.53394106  0.50266634  1
  V  V24  1  0.12210478  0.37170807  0.75833858  1
  V  V25  1  0.11182060  0.24081228  0.87289564  1
  V  V26  1  0.50985878  0.25385813  0.75931574  1
  V  V27  1  0.24678656  0.11539239  0.87524209  1
  V  V28  1  0.37402189  0.26032453  0.12503135  1
  V  V29  1  0.86769025  0.74936155  0.11886800  1
  V  V30  1  0.38119626  0.75341107  0.13613256  1
  V  V31  1  0.50129119  0.11768530  0.11322712  1
  V  V32  1  0.48986454  0.46863068  -0.01719299  1
  V  V33  1  0.88788029  0.37414086  0.50170135  1
  V  V34  1  -0.00148139  0.13259663  0.63610803  1
  V  V35  1  0.37411816  0.86936803  0.49798271  1
  V  V36  1  0.36936723  0.11369416  0.75218603  1
  V  V37  1  0.63506894  0.88231060  0.24994024  1
  V  V38  1  0.62800277  0.11790636  0.50188262  1
  V  V39  1  0.38008025  0.40995513  0.45427539  1
  V  V40  1  0.12359315  0.12517870  0.03926182  1
  V  V41  1  0.39088324  0.73633963  0.63178460  1
  V  V42  1  0.37367060  0.00097065  0.37307997  1
  V  V43  1  0.74074392  0.11871519  0.36668053  1
  V  V44  1  0.37118646  0.87117559  0.00629249  1
  V  V45  1  0.23247649  0.87280465  0.13049171  1
  V  V46  1  0.52099362  0.62124693  0.10858204  1
  V  V47  1  0.87183030  -0.00323055  0.36896114  1
  V  V48  1  0.92774710  0.51296117  0.86511470  1
  V  V49  1  0.36269644  0.24014424  0.61636347  1
  V  V50  1  0.13828567  0.13769275  0.49428397  1
  V  V51  1  0.87891458  0.25377034  0.11535198  1
  V  V52  1  0.25378556  0.61425606  0.35868179  1
  V  V53  1  0.13790062  0.49165086  0.61724990  1
  V  V54  1  0.87033474  0.25371211  0.63803144  1
  V  V55  1  0.38315175  0.60963801  0.24040507  1
  V  V56  1  0.00261072  0.01162242  0.50182948  1
  V  V57  1  0.37589293  0.11943748  0.25192620  1
  V  V58  1  -0.00776194  0.00285453  0.02159415  1
  V  V59  1  0.63148749  0.73568764  0.88202815  1
  V  V60  1  0.62747916  0.74803533  0.36973660  1
  V  V61  1  0.11818756  0.62228829  0.48582021  1
  V  V62  1  0.87961134  0.87815791  0.49804960  1
  V  V63  1  0.50335560  0.11738944  0.62596193  1
  V  V64  1  0.88797180  0.39717670  -0.02107271  1
  V  V65  1  0.75933501  -0.00427673  0.77500684  1
  V  V66  1  0.00268674  0.62257606  0.10813278  1
  V  V67  1  0.12357658  0.76071045  0.87948936  1
  V  V68  1  0.25151691  0.74733539  0.49190116  1
  V  V69  1  0.25473190  0.25010742  0.00267956  1
  Zn  Zn70  1  0.13131550  0.77973002  0.35177187  1
  Zn  Zn71  1  0.71724488  0.29721845  0.54726452  1
  Zn  Zn72  1  0.85240851  0.92033150  -0.05751192  1
  Zn  Zn73  1  0.12132927  0.50194639  0.11591242  1
  Zn  Zn74  1  0.87549080  0.61716908  0.24934013  1
  Zn  Zn75  1  0.25629831  0.36822648  0.60990678  1
  Zn  Zn76  1  0.19387844  0.20365248  0.21799056  1
  Zn  Zn77  1  0.17944344  0.17676565  0.68937758  1
  Zn  Zn78  1  0.18385237  0.68842486  0.17941305  1
  Zn  Zn79  1  0.20320414  0.68539958  0.67447083  1
  Zn  Zn80  1  0.69164508  0.19273203  0.18684226  1
  Zn  Zn81  1  0.69033463  0.17545970  0.69795030  1
  Zn  Zn82  1  0.68877778  0.68630994  0.19522225  1
  Zn  Zn83  1  0.69721236  0.69298635  0.69863463  1
  Zn  Zn84  1  0.29576006  0.31468955  0.31623842  1
  Zn  Zn85  1  0.29828561  0.29413922  0.79239786  1
  Zn  Zn86  1  0.31030088  0.81412482  0.30978155  1
  Zn  Zn87  1  0.32356544  0.78441899  0.81779246  1
  Zn  Zn88  1  0.79608418  0.32870801  0.34976322  1
  Zn  Zn89  1  0.81932305  0.32147920  0.82790373  1
  Zn  Zn90  1  0.81319873  0.81189214  0.30630733  1
  Zn  Zn91  1  0.80597762  0.80763354  0.80825602  1
  Zn  Zn92  1  0.19238625  0.43323126  0.43500122  1
  Zn  Zn93  1  0.19940002  0.42169064  0.93119126  1
  Zn  Zn94  1  0.18794433  0.94466738  0.43677113  1
  Zn  Zn95  1  0.18481674  0.94783621  0.95453971  1
  Zn  Zn96  1  0.67436981  0.43202387  0.47600297  1
  Zn  Zn97  1  0.69314187  0.43231125  1.01441731  1
  Zn  Zn98  1  0.69077996  0.93483119  0.43960696  1
  Zn  Zn99  1  0.67393860  0.93114838  0.93880599  1
  Zn  Zn100  1  0.31009391  0.05979956  0.06656913  1
  Zn  Zn101  1  0.31139494  0.05467346  0.56590044  1
  Zn  Zn102  1  0.32405517  0.55104929  0.06571180  1
  Zn  Zn103  1  0.31576404  0.56330761  0.55458564  1
  Zn  Zn104  1  0.81118042  0.07240749  0.06946307  1
  Zn  Zn105  1  0.81447508  0.07012037  0.56453362  1
  Zn  Zn106  1  0.82634794  0.55632529  0.06343181  1
  Zn  Zn107  1  0.81896725  0.56378570  0.55351170  1
  Zn  Zn108  1  0.49499524  0.46666987  0.21169526  1
  Zn  Zn109  1  0.46454662  0.41473613  0.65425381  1
  Zn  Zn110  1  0.44324600  0.93804521  0.18642751  1
  Zn  Zn111  1  0.42521951  0.92913364  0.68823524  1
  Zn  Zn112  1  0.93761580  0.43799973  0.18341201  1
  Zn  Zn113  1  0.94547044  0.43297098  0.67954825  1
  Zn  Zn114  1  0.93622853  0.94125340  0.19028761  1
  Zn  Zn115  1  0.93162313  0.94506313  0.68019210  1
  Zn  Zn116  1  0.05680448  0.07020992  0.31871261  1
  Zn  Zn117  1  0.03917934  0.06625984  0.82992670  1
  Zn  Zn118  1  0.05852479  0.57656637  0.30135783  1
  Zn  Zn119  1  0.10385222  0.57644499  0.79517722  1
  Zn  Zn120  1  0.55768553  0.05745576  0.30667740  1
  Zn  Zn121  1  0.55105627  0.03606334  0.79222438  1
  Zn  Zn122  1  0.58635544  0.53298006  0.34429256  1
  Zn  Zn123  1  0.60225555  0.52620277  0.87166369  1
  Zn  Zn124  1  0.43794732  0.18449255  0.43751674  1
  Zn  Zn125  1  0.43596612  0.18991763  0.93586087  1
  Zn  Zn126  1  0.43559613  0.68378959  0.42470117  1
  Zn  Zn127  1  0.42779672  0.68430700  0.94044892  1
  Zn  Zn128  1  0.93144245  0.19284485  0.44078502  1
  Zn  Zn129  1  0.94950481  0.16551974  0.95259068  1
  Zn  Zn130  1  0.93310620  0.68533318  0.43384965  1
  Zn  Zn131  1  0.91971946  0.72422191  0.92130771  1
  Zn  Zn132  1  0.05811516  0.30549905  0.06919793  1
  Zn  Zn133  1  0.06019445  0.30462664  0.55318493  1
  Zn  Zn134  1  0.04540413  0.82177844  0.06689468  1
  Zn  Zn135  1  0.08382022  0.83217052  0.52872030  1
  Zn  Zn136  1  0.55867827  0.31719321  0.07690619  1
  Zn  Zn137  1  0.54122223  0.30637276  0.55192786  1
  Zn  Zn138  1  0.56643815  0.80686638  0.06406414  1
  Zn  Zn139  1  0.56363933  0.80545796  0.55594308  1
  O  O140  1  0.14747268  0.13191301  0.13453218  1
  O  O141  1  0.10702077  0.13234569  0.61169115  1
  O  O142  1  0.11189270  0.61978189  0.11989044  1
  O  O143  1  0.12165834  0.61793478  0.61129380  1
  O  O144  1  0.61852674  0.11617076  0.12999216  1
  O  O145  1  0.61291748  0.12530875  0.61483255  1
  O  O146  1  0.61894795  0.63947845  0.11941670  1
  O  O147  1  0.66834893  0.58526809  0.63914156  1
  O  O148  1  0.36848214  0.38862714  0.35509505  1
  O  O149  1  0.34449725  0.39902454  0.84656674  1
  O  O150  1  0.38414436  0.87855999  0.37834629  1
  O  O151  1  0.38084644  0.87497289  0.88407006  1
  O  O152  1  0.89300672  0.38629146  0.38326059  1
  O  O153  1  0.90192224  0.39987782  0.87054817  1
  O  O154  1  0.86576222  0.88889835  0.38294152  1
  O  O155  1  0.88424373  0.83203459  0.88295529  1
  O  O156  1  0.26364703  -0.00985344  0.36194211  1
  O  O157  1  0.25688449  0.00868962  0.88380915  1
  O  O158  1  0.24508297  0.51620106  0.36810809  1
  O  O159  1  0.29403548  0.45469723  0.85955975  1
  O  O160  1  0.75904985  0.00880086  0.38090116  1
  O  O161  1  0.76071066  -0.02347114  0.87831187  1
  O  O162  1  0.73468590  0.51215213  0.37807418  1
  O  O163  1  0.74159836  0.55864060  0.92393424  1
  O  O164  1  0.24739903  0.48603805  0.11946153  1
  O  O165  1  0.23989557  0.50237376  0.61947828  1
  O  O166  1  0.25345050  0.98776444  0.14117148  1
  O  O167  1  0.26272046  0.97619122  0.63079078  1
  O  O168  1  0.75876269  0.47841431  0.10984695  1
  O  O169  1  0.72400016  0.53450585  0.62793440  1
  O  O170  1  0.73859478  0.99393415  0.12503947  1
  O  O171  1  0.75647221  0.98447309  0.62395232  1
  O  O172  1  0.04275646  0.41732947  0.24336904  1
  O  O173  1  0.02598544  0.36448778  0.72719412  1
  O  O174  1  -0.00601919  0.86140321  0.24691187  1
  O  O175  1  0.02379218  0.91513549  0.75368622  1
  O  O176  1  0.49503878  0.35279484  0.24035153  1
  O  O177  1  0.50136670  0.35291770  0.73913631  1
  O  O178  1  0.51111755  0.87820072  0.26014865  1
  O  O179  1  0.51067891  0.88107888  0.75362445  1
  O  O180  1  0.49163028  0.12775814  0.24115612  1
  O  O181  1  0.49309563  0.12059463  0.74269046  1
  O  O182  1  0.48308325  0.62715977  0.22266747  1
  O  O183  1  0.40428233  0.57671688  0.79680081  1
  O  O184  1  0.97796101  0.12813434  0.26112914  1
  O  O185  1  1.00347866  0.11804246  0.73476339  1
  O  O186  1  0.99286742  0.63702537  0.23133774  1
  O  O187  1  1.01464640  0.62980075  0.72953536  1
  O  O188  1  0.36384662  0.23449655  0.01387362  1
  O  O189  1  0.36971089  0.22393102  0.51709417  1
  O  O190  1  0.36948246  0.76522107  0.01500787  1
  O  O191  1  0.36846407  0.75619832  0.49169891  1
  O  O192  1  0.88156639  0.23507946  0.01538368  1
  O  O193  1  0.87396221  0.26439298  0.51104877  1
  O  O194  1  0.86656567  0.74876831  0.02006772  1
  O  O195  1  0.86980730  0.75901630  0.50222241  1
  O  O196  1  0.13953495  0.24038474  0.50136390  1
  O  O197  1  0.13273046  0.23702804  0.99567800  1
  O  O198  1  0.14011160  0.72946311  0.50524881  1
  O  O199  1  0.10841281  0.76076276  0.98422180  1
  O  O200  1  0.61017487  0.22890523  0.48174853  1
  O  O201  1  0.64100212  0.24651802  0.99806530  1
  O  O202  1  0.64076505  0.76124089  0.48538483  1
  O  O203  1  0.62374030  0.75330096  0.98228973  1
  O  O204  1  0.49655461  0.23616823  0.13485382  1
  O  O205  1  0.48739810  0.23080598  0.63005527  1
  O  O206  1  0.48572960  0.74269757  0.12143123  1
  O  O207  1  0.48997352  0.74559596  0.61143539  1
  O  O208  1  0.97546816  0.26507355  0.14180355  1
  O  O209  1  0.98764776  0.24130614  0.62310169  1
  O  O210  1  0.98401203  0.74883646  0.13084081  1
  O  O211  1  0.98857462  0.73756721  0.61123628  1
  O  O212  1  0.01239084  0.25217085  0.39091510  1
  O  O213  1  0.01340609  0.23801004  0.88491068  1
  O  O214  1  -0.00447868  0.74302569  0.35838902  1
  O  O215  1  0.02022007  0.76365673  0.86729210  1
  O  O216  1  0.50535855  0.24038497  0.36246042  1
  O  O217  1  0.49098486  0.24874283  0.85942286  1
  O  O218  1  0.51270603  0.76181228  0.37992573  1
  O  O219  1  0.49910327  0.76339973  0.87312486  1
  O  O220  1  0.23375890  0.10697095  0.50235573  1
  O  O221  1  0.23955988  0.12767064  0.99746206  1
  O  O222  1  0.24970435  0.63199676  0.47921028  1
  O  O223  1  0.23187019  0.57643456  0.97649479  1
  O  O224  1  0.73467336  0.11868519  0.49350448  1
  O  O225  1  0.75457869  0.12731613  0.97226254  1
  O  O226  1  0.75867709  0.63895102  0.48694011  1
  O  O227  1  0.75697586  0.61174925  0.97502793  1
  O  O228  1  0.25335541  0.35561361  0.00556681  1
  O  O229  1  0.28309107  0.38562500  0.49452049  1
  O  O230  1  0.25837887  0.88704751  0.02250481  1
  O  O231  1  0.26335896  0.86794212  0.49789332  1
  O  O232  1  0.78719779  0.37067967  -0.02039133  1
  O  O233  1  0.76804053  0.36495062  0.46827184  1
  O  O234  1  0.75096143  0.87841237  0.01489547  1
  O  O235  1  0.76023623  0.86852614  0.50689202  1
  O  O236  1  0.09371957  0.47763238  0.23914774  1
  O  O237  1  0.12753607  0.48034343  0.73076407  1
  O  O238  1  0.13778863  1.00883348  0.26315727  1
  O  O239  1  0.07828893  0.96674967  0.76845156  1
  O  O240  1  0.59790203  0.49706029  0.24248989  1
  O  O241  1  0.63721827  0.47273333  0.76725323  1
  O  O242  1  0.62082571  0.98984629  0.23723044  1
  O  O243  1  0.64004868  0.97593950  0.76014452  1
  O  O244  1  0.37896173  0.00176735  0.25881534  1
  O  O245  1  0.37782302  0.00520497  0.76385922  1
  O  O246  1  0.38376459  0.51058238  0.23337194  1
  O  O247  1  0.36036143  0.54384579  0.74975428  1
  O  O248  1  0.87604585  0.00777570  0.26720384  1
  O  O249  1  0.85841610  -0.01594110  0.75612691  1
  O  O250  1  0.88657691  0.49755839  0.27070505  1
  O  O251  1  0.89760054  0.51179847  0.75908261  1
  O  O252  1  0.13231372  0.35906950  0.37982107  1
  O  O253  1  0.12658767  0.36071814  0.86694851  1
  O  O254  1  0.11296828  0.86412103  0.41968890  1
  O  O255  1  0.13308351  0.86493779  0.88653881  1
  O  O256  1  0.62449691  0.35516007  0.38130009  1
  O  O257  1  0.73050531  0.40107236  0.83172920  1
  O  O258  1  0.62201347  0.87346543  0.36769427  1
  O  O259  1  0.60968531  0.86555774  0.86847322  1
  O  O260  1  0.38788903  0.12360738  0.13143752  1
  O  O261  1  0.38026797  0.12019475  0.63493998  1
  O  O262  1  0.35874334  0.64158128  0.13115316  1
  O  O263  1  0.36691238  0.63781432  0.62136132  1
  O  O264  1  0.85934932  0.14442861  0.14783054  1
  O  O265  1  0.88331811  0.14089076  0.62395963  1
  O  O266  1  0.87378814  0.63666793  0.12824345  1
  O  O267  1  0.88775203  0.62286688  0.63204140  1
  O  O268  1  0.25575461  0.25508316  0.12218659  1
  O  O269  1  0.26069271  0.23481278  0.63013211  1
  O  O270  1  0.25876602  0.76823383  0.13448076  1
  O  O271  1  0.26497279  0.75496253  0.60910132  1
  O  O272  1  0.76585109  0.26759260  0.14180133  1
  O  O273  1  0.76296044  0.23624231  0.62982032  1
  O  O274  1  0.75603937  0.76348683  0.13274879  1
  O  O275  1  0.75964654  0.75351497  0.61586555  1
  O  O276  1  0.22386513  0.23227655  0.33050097  1
  O  O277  1  0.24654766  0.23625962  0.88503709  1
  O  O278  1  0.24548637  0.74477875  0.37682750  1
  O  O279  1  0.22782402  0.75618460  0.89202221  1
  O  O280  1  0.72756500  0.23205859  0.37269392  1
  O  O281  1  0.76334314  0.22216139  0.87735908  1
  O  O282  1  0.74692692  0.74974648  0.38076348  1
  O  O283  1  0.73173816  0.74249974  0.86703152  1
  O  O284  1  0.02185215  0.13671391  0.04182082  1
  O  O285  1  0.00020591  0.12018019  0.50651978  1
  O  O286  1  -0.01450633  0.64415652  0.01242739  1
  O  O287  1  0.01564035  0.63078306  0.50028472  1
  O  O288  1  0.49885763  0.12998765  0.01476763  1
  O  O289  1  0.50491967  0.11115459  0.50573004  1
  O  O290  1  0.49896754  0.63471744  0.00878555  1
  O  O291  1  0.50498701  0.63440504  0.49543173  1
  O  O292  1  0.45516016  0.35401105  0.49322132  1
  O  O293  1  0.48898778  0.36873875  1.00627775  1
  O  O294  1  0.49360503  0.87890014  0.49121527  1
  O  O295  1  0.49294991  0.87190033  0.99101499  1
  O  O296  1  0.98777013  0.37955548  0.50707210  1
  O  O297  1  0.97953025  0.36501645  1.00753002  1
  O  O298  1  0.98411814  0.89324121  0.51349778  1
  O  O299  1  1.00413175  0.90410520  0.99952156  1
  O  O300  1  0.50569492  0.48742655  0.40755929  1
  O  O301  1  0.49461320  0.47941135  0.88034298  1
  O  O302  1  0.49347813  0.98919105  0.38324046  1
  O  O303  1  0.48902242  0.98487033  0.87427909  1
  O  O304  1  1.00151537  0.51165732  0.38231824  1
  O  O305  1  1.02593026  0.51792701  0.86550478  1
  O  O306  1  0.98041558  1.01029888  0.38997707  1
  O  O307  1  0.97278845  1.05775396  0.91781443  1
  O  O308  1  -0.00146507  0.00633111  0.12368895  1
  O  O309  1  -0.01445216  0.01797331  0.61061036  1
  O  O310  1  -0.00857433  0.51742181  0.11357177  1
  O  O311  1  0.01388101  0.51274939  0.62081526  1
  O  O312  1  0.51021578  0.01095711  0.12549703  1
  O  O313  1  0.48894319  0.00358493  0.61532260  1
  O  O314  1  0.50333374  0.51688135  0.10417590  1
  O  O315  1  0.49663434  0.50153484  0.59995271  1
  O  O316  1  0.23702715  0.37212133  0.22993494  1
  O  O317  1  0.22427091  0.35652381  0.72765900  1
  O  O318  1  0.24683255  0.88640702  0.24406160  1
  O  O319  1  0.26395188  0.85492060  0.73837827  1
  O  O320  1  0.75092750  0.38380460  0.25584272  1
  O  O321  1  0.69553568  0.42129093  0.76073826  1
  O  O322  1  0.74163417  0.87880827  0.24088529  1
  O  O323  1  0.74084524  0.87655136  0.74144145  1
  O  O324  1  0.26828276  0.10480550  0.24126454  1
  O  O325  1  0.25721816  0.12529659  0.76236848  1
  O  O326  1  0.25270176  0.62830093  0.25422995  1
  O  O327  1  0.20397460  0.62199806  0.76437347  1
  O  O328  1  0.75268514  0.12160458  0.26401845  1
  O  O329  1  0.74092012  0.09398571  0.75848926  1
  O  O330  1  0.75723649  0.62708872  0.26662016  1
  O  O331  1  0.76772681  0.61527754  0.75576539  1
  O  O332  1  0.38353679  0.11043637  0.36646842  1
  O  O333  1  0.36813875  0.11420418  0.87279410  1
  O  O334  1  0.36577454  0.62970720  0.35051073  1
  O  O335  1  0.34530338  0.68266099  0.86850554  1
  O  O336  1  0.85834207  0.12020177  0.37523613  1
  O  O337  1  0.79948637  0.16098280  0.91474292  1
  O  O338  1  0.86479473  0.60651847  0.38054018  1
  O  O339  1  0.89758171  0.62280828  0.85758833  1
  O  O340  1  0.13490378  0.38354928  0.10278841  1
  O  O341  1  0.13181153  0.38849184  0.60000416  1
  O  O342  1  0.13431582  0.87020974  0.12264124  1
  O  O343  1  0.14602117  0.86201869  0.62028019  1
  O  O344  1  0.65257828  0.36630931  0.11457737  1
  O  O345  1  0.63107787  0.36877792  0.56844183  1
  O  O346  1  0.63288361  0.88144815  0.12954062  1
  O  O347  1  0.63105927  0.86672804  0.63352247  1
  O  O348  1  0.09412494  0.25485112  0.25419906  1
  O  O349  1  0.12403780  0.24888320  0.76738604  1
  O  O350  1  0.10730307  0.74693154  0.24539842  1
  O  O351  1  0.13261654  0.76315796  0.77663038  1
  O  O352  1  0.61043637  0.23971732  0.25986584  1
  O  O353  1  0.60918994  0.23483503  0.75049093  1
  O  O354  1  0.63062969  0.76445748  0.26214712  1
  O  O355  1  0.62529952  0.76288978  0.75586327  1
  O  O356  1  0.38394250  0.23724074  0.24363499  1
  O  O357  1  0.38269344  0.22830385  0.74385628  1
  O  O358  1  0.37758209  0.75217027  0.23893803  1
  O  O359  1  0.38933494  0.75315185  0.72982366  1
  O  O360  1  0.86707728  0.24326876  0.27505824  1
  O  O361  1  0.87141804  0.27114048  0.73747875  1
  O  O362  1  0.88177545  0.74631965  0.24209697  1
  O  O363  1  0.87135072  0.73274776  0.73623509  1
  O  O364  1  0.38602458  0.50989345  0.48518077  1
  O  O365  1  0.39287783  0.50434129  0.99392855  1
  O  O366  1  0.38231862  0.98971543  0.49095568  1
  O  O367  1  0.37294748  0.99006624  0.99249011  1
  O  O368  1  0.87166856  0.48783885  0.48960486  1
  O  O369  1  0.89115284  0.50507008  0.97454361  1
  O  O370  1  0.87629091  0.99640347  0.49344123  1
  O  O371  1  0.88148077  0.99890516  1.01953415  1
  O  O372  1  0.11492014  0.02184007  0.00733516  1
  O  O373  1  0.10599812  0.01134706  0.49475096  1
  O  O374  1  0.17134136  0.52809786  -0.02446486  1
  O  O375  1  0.13478516  0.51609110  0.50287341  1
  O  O376  1  0.62297729  -0.00171909  0.01599953  1
  O  O377  1  0.61267987  0.00086381  0.49718640  1
  O  O378  1  0.60418884  0.48849965  -0.01796227  1
  O  O379  1  0.62358142  0.52916330  0.49744735  1
  O  O380  1  0.36211088  0.36019560  0.12933017  1
  O  O381  1  0.37159117  0.34520637  0.63417618  1
  O  O382  1  0.37829009  0.86761573  0.12350807  1
  O  O383  1  0.37225751  0.86114238  0.61086963  1
  O  O384  1  0.86422204  0.37027599  0.12275596  1
  O  O385  1  0.87042792  0.37014058  0.61499363  1
  O  O386  1  0.86088379  0.86869406  0.13259015  1
  O  O387  1  0.86921098  0.86523292  0.62012634  1
  O  O388  1  0.11826285  0.13681876  0.38999446  1
  O  O389  1  0.13212565  0.13135454  0.87151235  1
  O  O390  1  0.13402553  0.62727975  0.37774798  1
  O  O391  1  0.12240654  0.65645929  0.88533041  1
  O  O392  1  0.63110122  0.11387592  0.37951707  1
  O  O393  1  0.61907242  0.20340912  0.94259476  1
  O  O394  1  0.63849669  0.63810267  0.36836714  1
  O  O395  1  0.60747331  0.63900487  0.86186119  1
