# generated using pymatgen
data_V35Zn35O128
_symmetry_space_group_name_H-M   'P 1'
_cell_length_a   16.91060025
_cell_length_b   16.91373404
_cell_length_c   16.91680009
_cell_angle_alpha   89.87004339
_cell_angle_beta   89.80168429
_cell_angle_gamma   89.81361119
_symmetry_Int_Tables_number   1
_chemical_formula_structural   V35Zn35O128
_chemical_formula_sum   'V70 Zn70 O256'
_cell_volume   4838.49985236
_cell_formula_units_Z   2
loop_
 _symmetry_equiv_pos_site_id
 _symmetry_equiv_pos_as_xyz
  1  'x, y, z'
loop_
 _atom_site_type_symbol
 _atom_site_label
 _atom_site_symmetry_multiplicity
 _atom_site_fract_x
 _atom_site_fract_y
 _atom_site_fract_z
 _atom_site_occupancy
  V  V0  1  0.88789022  0.13983738  0.74350737  1
  V  V1  1  0.39329834  0.24720095  0.64294078  1
  V  V2  1  0.73908816  -0.00119537  0.74764649  1
  V  V3  1  -0.00195258  0.37355975  0.37987265  1
  V  V4  1  0.25901363  0.37459222  0.61836428  1
  V  V5  1  0.52927269  0.74805844  0.26761482  1
  V  V6  1  0.24375123  0.88765608  0.13723907  1
  V  V7  1  0.87295047  -0.00261664  0.37779860  1
  V  V8  1  0.11833212  0.12141990  0.50088543  1
  V  V9  1  0.62388997  0.25941574  0.36507250  1
  V  V10  1  0.51197387  -0.01358844  0.48742319  1
  V  V11  1  0.13464579  0.25063682  0.38204696  1
  V  V12  1  0.12451127  0.62055637  0.50126801  1
  V  V13  1  0.38223386  0.74000230  0.13419047  1
  V  V14  1  0.48665409  0.37482316  0.36210984  1
  V  V15  1  -0.00244391  0.23693188  0.24656394  1
  V  V16  1  0.37283789  0.38506871  0.00078278  1
  V  V17  1  0.11807323  0.75378088  0.85811117  1
  V  V18  1  0.24175411  0.87741594  0.63714061  1
  V  V19  1  0.62511852  0.62323069  0.49525649  1
  V  V20  1  0.38221621  0.24292181  0.11534890  1
  V  V21  1  0.05676716  0.67336356  0.04334686  1
  V  V22  1  0.37525660  0.75048727  0.61746937  1
  V  V23  1  0.24838661  0.49653826  0.74739625  1
  V  V24  1  0.74965542  0.13389227  0.87240401  1
  V  V25  1  0.73668386  0.60444891  0.85714243  1
  V  V26  1  0.13362531  0.37068048  0.24471512  1
  V  V27  1  0.01452778  0.37590233  0.84568662  1
  V  V28  1  0.24573753  0.76078576  0.49239118  1
  V  V29  1  0.12105851  0.48974256  0.11080294  1
  V  V30  1  0.62794051  0.37417388  0.75224041  1
  V  V31  1  0.11365580  0.88275790  0.26338395  1
  V  V32  1  0.88082751  0.00946636  0.87358238  1
  V  V33  1  0.23630814  0.74706748  0.01810320  1
  V  V34  1  0.12812019  0.23968833  0.86654919  1
  V  V35  1  0.88211852  0.88472156  0.01450266  1
  V  V36  1  0.61438710  0.48205535  0.11642138  1
  V  V37  1  0.24660947  0.50493033  0.25313935  1
  V  V38  1  0.60089052  0.24753619  0.87283854  1
  V  V39  1  0.87469854  0.87467606  0.51621269  1
  V  V40  1  -0.01701238  0.47810727  -0.00315069  1
  V  V41  1  0.76229480  0.26179607  0.00016077  1
  V  V42  1  0.49134928  0.40247925  0.87206279  1
  V  V43  1  0.50014108  0.76655094  0.74244860  1
  V  V44  1  0.12363607  0.49088959  0.62902604  1
  V  V45  1  0.61336663  0.12038319  0.00772863  1
  V  V46  1  0.62638451  0.50175516  0.63017631  1
  V  V47  1  0.76242992  0.37148479  0.14099350  1
  V  V48  1  0.72645440  0.89522163  0.12750937  1
  V  V49  1  0.26895661  0.23861571  0.50442140  1
  V  V50  1  0.75764071  0.63044869  0.36617308  1
  V  V51  1  0.74558476  0.13524182  0.38813789  1
  V  V52  1  0.00020518  0.87560510  0.86264477  1
  V  V53  1  0.73334901  0.02112471  0.24997961  1
  V  V54  1  0.12381528  0.00082081  0.63562747  1
  V  V55  1  -0.01013919  0.49415032  0.50324655  1
  V  V56  1  -0.01161086  0.63130955  0.63591493  1
  V  V57  1  0.37334740  0.62677386  0.74744149  1
  V  V58  1  0.74941377  0.36795053  0.60381903  1
  V  V59  1  0.50740734  0.87131590  0.90115646  1
  V  V60  1  0.37726994  0.09961866  0.75797521  1
  V  V61  1  0.75303642  0.75067968  0.51907407  1
  V  V62  1  0.09736800  0.74627338  0.37300474  1
  V  V63  1  0.36503646  -0.01833386  0.89813367  1
  V  V64  1  0.88288572  0.25456572  0.60914236  1
  V  V65  1  0.61918202  0.13316194  0.51701140  1
  V  V66  1  0.23970850  0.62288117  0.87767339  1
  V  V67  1  0.87240760  0.50040476  0.35845956  1
  V  V68  1  0.49421640  0.49201860  0.49595462  1
  V  V69  1  0.75114066  0.72801912  0.01280969  1
  Zn  Zn70  1  0.38975439  0.61249338  0.25341496  1
  Zn  Zn71  1  0.01378819  0.01428040  -0.00403570  1
  Zn  Zn72  1  0.25636332  0.61913279  0.37764974  1
  Zn  Zn73  1  0.24008390  0.26704380  -0.00480695  1
  Zn  Zn74  1  0.49037832  0.53604039  1.01197550  1
  Zn  Zn75  1  -0.00015483  -0.00651719  0.49864822  1
  Zn  Zn76  1  0.22988329  0.19231541  0.17835061  1
  Zn  Zn77  1  0.19827447  0.18027469  0.69061478  1
  Zn  Zn78  1  0.14279169  0.67123455  0.20112964  1
  Zn  Zn79  1  0.18260912  0.68476064  0.68262724  1
  Zn  Zn80  1  0.68359485  0.19265707  0.18473032  1
  Zn  Zn81  1  0.68930182  0.19281028  0.69266097  1
  Zn  Zn82  1  0.81213504  0.71135369  0.18434639  1
  Zn  Zn83  1  0.68416214  0.67905497  0.69485514  1
  Zn  Zn84  1  0.34191159  0.25820915  0.32475182  1
  Zn  Zn85  1  0.31121088  0.31082683  0.81834200  1
  Zn  Zn86  1  0.30305138  0.80272299  0.30430133  1
  Zn  Zn87  1  0.31071254  0.81719575  0.81506769  1
  Zn  Zn88  1  0.81766500  0.30969916  0.31542857  1
  Zn  Zn89  1  0.81092887  0.31685426  0.80943472  1
  Zn  Zn90  1  0.76132381  0.82876779  0.32641151  1
  Zn  Zn91  1  0.79038221  0.82850518  0.84350804  1
  Zn  Zn92  1  0.19071613  0.43194825  0.43887802  1
  Zn  Zn93  1  0.18293729  0.43348546  0.92685054  1
  Zn  Zn94  1  0.17944010  0.94046188  0.42001103  1
  Zn  Zn95  1  0.18873157  0.92654922  0.93779729  1
  Zn  Zn96  1  0.68747260  0.44233807  0.43208558  1
  Zn  Zn97  1  0.67520387  0.43839702  0.94250348  1
  Zn  Zn98  1  0.69466137  0.94606051  0.44888483  1
  Zn  Zn99  1  0.68603834  0.93187066  0.93738485  1
  Zn  Zn100  1  0.36148012  0.03731950  0.10003966  1
  Zn  Zn101  1  0.32661161  0.06122343  0.57145895  1
  Zn  Zn102  1  0.30551552  0.56039645  0.06532030  1
  Zn  Zn103  1  0.31110486  0.56560655  0.56204888  1
  Zn  Zn104  1  0.78360478  0.04624590  0.03854570  1
  Zn  Zn105  1  0.80935488  0.06587508  0.56779192  1
  Zn  Zn106  1  0.80633016  0.55028407  0.06539984  1
  Zn  Zn107  1  0.80840743  0.55845503  0.56683752  1
  Zn  Zn108  1  0.43235287  0.43111864  0.18441475  1
  Zn  Zn109  1  0.44048582  0.43972197  0.68607918  1
  Zn  Zn110  1  0.51318143  0.88066555  0.12333331  1
  Zn  Zn111  1  0.43314696  0.93761497  0.65336713  1
  Zn  Zn112  1  0.94558334  0.42925745  0.18718352  1
  Zn  Zn113  1  0.93038347  0.43547556  0.68599435  1
  Zn  Zn114  1  0.93040977  0.96356073  0.20076511  1
  Zn  Zn115  1  0.93415240  0.94779136  0.68645717  1
  Zn  Zn116  1  0.11899067  0.08534888  0.28258644  1
  Zn  Zn117  1  0.06736866  0.06850769  0.81038544  1
  Zn  Zn118  1  0.05915261  0.55806614  0.31367137  1
  Zn  Zn119  1  0.06017682  0.55911927  0.81513717  1
  Zn  Zn120  1  0.56965208  -0.07159876  0.30785300  1
  Zn  Zn121  1  0.54896086  0.05554261  0.82174533  1
  Zn  Zn122  1  0.56145917  0.56468710  0.31550180  1
  Zn  Zn123  1  0.53668907  0.61397155  0.86101667  1
  Zn  Zn124  1  0.45232602  0.17836411  0.43342670  1
  Zn  Zn125  1  0.41259534  0.16634149  0.95563002  1
  Zn  Zn126  1  0.43491727  0.68170039  0.42997922  1
  Zn  Zn127  1  0.41053457  0.71224442  0.92819365  1
  Zn  Zn128  1  0.93961230  0.18329646  0.42943177  1
  Zn  Zn129  1  0.94224060  0.19951510  0.93328784  1
  Zn  Zn130  1  0.92821884  0.68171306  0.45193911  1
  Zn  Zn131  1  0.91456014  0.69281289  0.92959177  1
  Zn  Zn132  1  0.05645359  0.30292757  0.05863486  1
  Zn  Zn133  1  0.06852026  0.31017087  0.56760078  1
  Zn  Zn134  1  0.03673276  0.85022395  0.09622705  1
  Zn  Zn135  1  0.05830003  0.81317142  0.56574683  1
  Zn  Zn136  1  0.55989219  0.31152622  0.05431535  1
  Zn  Zn137  1  0.56351595  0.31617371  0.55562766  1
  Zn  Zn138  1  0.55045011  0.72507124  0.02977178  1
  Zn  Zn139  1  0.57998860  0.81133925  0.43982050  1
  O  O140  1  0.14322255  0.11327665  0.08158852  1
  O  O141  1  0.13812609  0.11013794  0.61175665  1
  O  O142  1  0.11030937  0.60668289  0.10393957  1
  O  O143  1  0.11754515  0.61257655  0.61687441  1
  O  O144  1  0.62405689  0.13714985  0.10657862  1
  O  O145  1  0.62618882  0.13721865  0.61651892  1
  O  O146  1  0.64276390  0.57962095  0.16802799  1
  O  O147  1  0.63167046  0.60725580  0.61271691  1
  O  O148  1  0.38801216  0.35948151  0.36559318  1
  O  O149  1  0.38850611  0.38314717  0.87356723  1
  O  O150  1  0.34981578  0.90897027  0.36246040  1
  O  O151  1  0.38729215  0.87283084  0.87857747  1
  O  O152  1  0.88676333  0.38771384  0.37155575  1
  O  O153  1  0.89299937  0.39501759  0.84229219  1
  O  O154  1  0.84610845  0.89529560  0.39534397  1
  O  O155  1  0.88644758  0.89057746  0.88661920  1
  O  O156  1  0.30311932  -0.03358884  0.37618740  1
  O  O157  1  0.26706650  -0.03030213  0.87082911  1
  O  O158  1  0.23890329  0.49854409  0.35825269  1
  O  O159  1  0.23741013  0.51760389  0.86409505  1
  O  O160  1  0.74616958  0.01956116  0.36891581  1
  O  O161  1  0.76340542  0.01698298  0.87348168  1
  O  O162  1  0.76783161  0.50302441  0.37534097  1
  O  O163  1  0.73900958  0.50622140  0.87954327  1
  O  O164  1  0.22475592  0.50354443  0.12974880  1
  O  O165  1  0.24471341  0.49365111  0.62770948  1
  O  O166  1  0.26408091  0.98396129  0.13066699  1
  O  O167  1  0.24404483  0.98337063  0.61475768  1
  O  O168  1  0.73840507  0.47409022  0.11209982  1
  O  O169  1  0.73747548  0.48177788  0.61762286  1
  O  O170  1  0.75535402  1.01118966  0.14329997  1
  O  O171  1  0.75041120  1.00991131  0.64785452  1
  O  O172  1  0.01055778  0.36742435  0.26396993  1
  O  O173  1  0.01557827  0.38311364  0.74678984  1
  O  O174  1  0.01626376  0.89523588  0.23694832  1
  O  O175  1  -0.01049373  0.87851987  0.76436889  1
  O  O176  1  0.50315954  0.38727032  0.26342950  1
  O  O177  1  0.50958312  0.38705189  0.76402288  1
  O  O178  1  0.51228750  0.85361934  0.23982236  1
  O  O179  1  0.49136515  0.86610512  0.72626746  1
  O  O180  1  0.46917195  0.01862631  0.22080245  1
  O  O181  1  0.47933887  0.12356456  0.76308794  1
  O  O182  1  0.50270521  0.64214589  0.25509155  1
  O  O183  1  0.47572550  0.63947186  0.76188734  1
  O  O184  1  1.02079884  0.13836519  0.25994860  1
  O  O185  1  0.98580853  0.12520529  0.74746065  1
  O  O186  1  1.03912442  0.63932225  0.24324167  1
  O  O187  1  1.00217827  0.61161101  0.73469137  1
  O  O188  1  0.37163920  0.27101643  -0.00903466  1
  O  O189  1  0.36938961  0.24615313  0.51784307  1
  O  O190  1  0.34414895  0.74356319  0.01698416  1
  O  O191  1  0.35618770  0.73744135  0.50856329  1
  O  O192  1  0.86134956  0.25197982  -0.00302691  1
  O  O193  1  0.87809898  0.24454633  0.51036688  1
  O  O194  1  0.87466471  0.78418813  -0.00135862  1
  O  O195  1  0.86292312  0.76077347  0.50459772  1
  O  O196  1  0.13488214  0.23859679  0.50255488  1
  O  O197  1  0.12470697  0.26328047  0.98144185  1
  O  O198  1  0.12863130  0.74219918  0.49235395  1
  O  O199  1  0.12394261  0.73339673  0.98717820  1
  O  O200  1  0.61868751  0.23816091  0.49241320  1
  O  O201  1  0.62889462  0.24551567  0.98282056  1
  O  O202  1  0.63568104  0.72942344  0.50247826  1
  O  O203  1  0.65923088  0.69301704  1.02995713  1
  O  O204  1  0.48349675  0.25375382  0.11450875  1
  O  O205  1  0.49017733  0.26479137  0.62763976  1
  O  O206  1  0.48662574  0.75178279  0.12742354  1
  O  O207  1  0.47481427  0.74836443  0.62499926  1
  O  O208  1  1.00628405  0.25535558  0.14748780  1
  O  O209  1  0.98166594  0.26611349  0.62504560  1
  O  O210  1  1.00922006  0.73903391  0.10241015  1
  O  O211  1  1.00560131  0.73046622  0.62344209  1
  O  O212  1  0.01461276  0.25725695  0.37737245  1
  O  O213  1  0.00427520  0.27174465  0.87016798  1
  O  O214  1  -0.00026365  0.74037258  0.38252662  1
  O  O215  1  0.00588760  0.76450007  0.87959197  1
  O  O216  1  0.51353913  0.26519901  0.37923302  1
  O  O217  1  0.50369728  0.24653732  0.87682217  1
  O  O218  1  0.50388879  0.75650177  0.37266998  1
  O  O219  1  0.48955477  0.76847221  0.85350633  1
  O  O220  1  0.25360279  0.13580252  0.50905661  1
  O  O221  1  0.17444858  0.07851167  1.02395901  1
  O  O222  1  0.23563906  0.62944269  0.50140398  1
  O  O223  1  0.24637584  0.62732401  0.98211587  1
  O  O224  1  0.73506540  0.12061572  0.49549312  1
  O  O225  1  0.74327860  0.14193360  0.98872191  1
  O  O226  1  0.74489336  0.62786470  0.49958683  1
  O  O227  1  0.80032637  0.65843548  0.92993391  1
  O  O228  1  0.27029340  0.38876788  -0.01718908  1
  O  O229  1  0.25071145  0.36643766  0.51240379  1
  O  O230  1  0.22501464  0.85349893  0.02339442  1
  O  O231  1  0.24171189  0.86158523  0.49340784  1
  O  O232  1  0.74615524  0.36189420  -0.00816063  1
  O  O233  1  0.74572511  0.36898359  0.50556495  1
  O  O234  1  0.77319674  0.92124744  0.02204384  1
  O  O235  1  0.74917944  0.85680820  0.51075538  1
  O  O236  1  0.12358656  0.48586010  0.24119797  1
  O  O237  1  0.13666770  0.50777535  0.73705572  1
  O  O238  1  0.13754157  0.97426037  0.30788328  1
  O  O239  1  0.12722905  1.00762415  0.73427882  1
  O  O240  1  0.63382705  0.52287091  0.22681317  1
  O  O241  1  0.62013765  0.49352503  0.73020414  1
  O  O242  1  0.63388501  1.01154672  0.25536072  1
  O  O243  1  0.64086763  1.01410552  0.76783204  1
  O  O244  1  0.40872862  0.05800126  0.24084313  1
  O  O245  1  0.38032552  -0.00005984  0.73702600  1
  O  O246  1  0.34930768  0.50016262  0.23114281  1
  O  O247  1  0.36675608  0.51987089  0.73957200  1
  O  O248  1  0.85526017  0.00306272  0.27219478  1
  O  O249  1  0.87001499  0.01766537  0.75782656  1
  O  O250  1  0.88702653  0.50354466  0.26010218  1
  O  O251  1  0.87869230  0.45923312  0.79083579  1
  O  O252  1  0.11864151  0.37066480  0.36822707  1
  O  O253  1  0.11880765  0.36753639  0.86189004  1
  O  O254  1  0.11199986  0.85268768  0.37980059  1
  O  O255  1  0.11065168  0.86569777  0.87687186  1
  O  O256  1  0.62805347  0.36279450  0.37788339  1
  O  O257  1  0.60816567  0.36642946  0.87222956  1
  O  O258  1  0.65235889  0.87170865  0.37152168  1
  O  O259  1  0.60505775  0.87828155  0.87678237  1
  O  O260  1  0.37091270  0.14516224  0.07377187  1
  O  O261  1  0.38048574  0.14119852  0.63953728  1
  O  O262  1  0.36580285  0.63647781  0.12962605  1
  O  O263  1  0.35753757  0.64054642  0.63827846  1
  O  O264  1  0.95265802  0.11427227  0.09495620  1
  O  O265  1  0.86878540  0.14223862  0.63481412  1
  O  O266  1  0.81187214  0.65944234  0.08429830  1
  O  O267  1  0.88931208  0.61597135  0.62136649  1
  O  O268  1  0.26137948  0.26278393  0.10398379  1
  O  O269  1  0.25562871  0.25749750  0.61797934  1
  O  O270  1  0.22007230  0.72759999  0.11553156  1
  O  O271  1  0.23987552  0.75986403  0.61076296  1
  O  O272  1  0.74387530  0.26299932  0.10997410  1
  O  O273  1  0.75671429  0.26410377  0.62868298  1
  O  O274  1  0.75247901  0.79426483  0.10607982  1
  O  O275  1  0.74744432  0.73725336  0.61731628  1
  O  O276  1  0.24221151  0.26485671  0.39730294  1
  O  O277  1  0.23635077  0.24994354  0.87909195  1
  O  O278  1  0.24525710  0.74444646  0.38669934  1
  O  O279  1  0.23088521  0.75061997  0.88341223  1
  O  O280  1  0.74557069  0.24240408  0.37598480  1
  O  O281  1  0.75023754  0.24658012  0.88115971  1
  O  O282  1  0.75460510  0.73088416  0.39489131  1
  O  O283  1  0.73228600  0.79895997  0.93672307  1
  O  O284  1  -0.00756100  0.13231061  0.02199600  1
  O  O285  1  0.01665197  0.12455952  0.50065417  1
  O  O286  1  -0.00840654  0.62166872  -0.01705717  1
  O  O287  1  0.00724440  0.61265161  0.51006821  1
  O  O288  1  0.51510054  0.12252432  -0.01204063  1
  O  O289  1  0.51560375  0.11304267  0.49758632  1
  O  O290  1  0.49472009  0.64448732  -0.03023765  1
  O  O291  1  0.51955943  0.61476771  0.48620812  1
  O  O292  1  0.50116670  0.38714238  0.48774091  1
  O  O293  1  0.49194890  0.37931385  0.98022165  1
  O  O294  1  0.52767838  0.88748197  0.50879334  1
  O  O295  1  0.50976425  0.84348967  1.00177322  1
  O  O296  1  1.01276620  0.38264261  0.48920240  1
  O  O297  1  0.98638962  0.37747630  0.99425972  1
  O  O298  1  0.97932035  0.87184461  0.50225803  1
  O  O299  1  0.99488060  0.89444357  0.99613038  1
  O  O300  1  0.50660337  0.48792566  0.38398100  1
  O  O301  1  0.50228742  0.50218488  0.87893336  1
  O  O302  1  0.49972775  0.98548617  0.38810065  1
  O  O303  1  0.48708515  0.97605838  0.88395208  1
  O  O304  1  0.99295988  0.49409068  0.38305403  1
  O  O305  1  1.01405782  0.48379856  0.88781493  1
  O  O306  1  0.97316274  1.00075297  0.38210225  1
  O  O307  1  0.99869776  0.99346454  0.87246019  1
  O  O308  1  -0.01849444  0.04171375  0.11929800  1
  O  O309  1  0.01938594  -0.00617281  0.61859037  1
  O  O310  1  0.00573853  0.49089690  0.10774074  1
  O  O311  1  0.00675455  0.49764805  0.61854025  1
  O  O312  1  0.46247784  -0.01248398  0.13717792  1
  O  O313  1  0.60083476  -0.07220155  0.64272607  1
  O  O314  1  0.50979186  0.49544640  0.12544536  1
  O  O315  1  0.51662356  0.48771500  0.60951447  1
  O  O316  1  0.23347572  0.38402184  0.24982251  1
  O  O317  1  0.25830331  0.39252139  0.74545510  1
  O  O318  1  0.23436014  0.86930167  0.24328335  1
  O  O319  1  0.24316659  0.86855358  0.73535922  1
  O  O320  1  0.75013706  0.36579289  0.24019737  1
  O  O321  1  0.73024553  0.37718395  0.75378032  1
  O  O322  1  0.73994573  0.89872478  0.23149563  1
  O  O323  1  0.75360801  0.89903635  0.76534389  1
  O  O324  1  0.21763755  0.10686916  0.23826242  1
  O  O325  1  0.27646987  0.12617959  0.75101252  1
  O  O326  1  0.23097214  0.60847951  0.24986765  1
  O  O327  1  0.25128793  0.61999696  0.75369300  1
  O  O328  1  0.74585485  0.12593745  0.26169212  1
  O  O329  1  0.75923907  0.12594436  0.76117387  1
  O  O330  1  0.76154097  0.63469338  0.26818886  1
  O  O331  1  0.75826309  0.62106374  0.75873143  1
  O  O332  1  0.36255230  0.16024713  0.37580679  1
  O  O333  1  0.37414371  0.09112647  0.87354451  1
  O  O334  1  0.36847429  0.62094864  0.36570970  1
  O  O335  1  0.34776437  0.64386507  0.85709057  1
  O  O336  1  0.85634915  0.11420519  0.39378189  1
  O  O337  1  0.87303508  0.12845793  0.86519956  1
  O  O338  1  0.86891948  0.60916535  0.38435877  1
  O  O339  1  0.89449431  0.70124092  0.79684622  1
  O  O340  1  0.11653168  0.38017351  0.13657479  1
  O  O341  1  0.13823351  0.38493380  0.62275632  1
  O  O342  1  0.13192965  0.88508955  0.14734264  1
  O  O343  1  0.13303515  0.88655821  0.61632933  1
  O  O344  1  0.62687168  0.37805047  0.12272982  1
  O  O345  1  0.63486600  0.37560498  0.62986858  1
  O  O346  1  0.62942130  0.89715203  0.10935908  1
  O  O347  1  0.64413158  0.87043990  0.63669799  1
  O  O348  1  0.12541277  0.26225328  0.26319990  1
  O  O349  1  0.13110205  0.23661672  0.76391104  1
  O  O350  1  0.12188325  0.76516335  0.26917730  1
  O  O351  1  0.12401624  0.75242695  0.75939734  1
  O  O352  1  0.62488837  0.24700827  0.26642876  1
  O  O353  1  0.62449069  0.25833567  0.76605599  1
  O  O354  1  0.62501238  0.74157457  0.26165661  1
  O  O355  1  0.59675119  0.74355639  0.73049343  1
  O  O356  1  0.35933035  0.23686728  0.21535314  1
  O  O357  1  0.37770715  0.25577544  0.74337796  1
  O  O358  1  0.37402590  0.74192221  0.24011705  1
  O  O359  1  0.37138135  0.74732994  0.73629636  1
  O  O360  1  0.89863792  0.24402658  0.26836787  1
  O  O361  1  0.87349159  0.24275100  0.74593316  1
  O  O362  1  0.84479139  0.78140363  0.26079594  1
  O  O363  1  0.85287503  0.75650508  0.76724836  1
  O  O364  1  0.39665147  0.51249803  0.50938647  1
  O  O365  1  0.38175177  0.49370870  1.00979643  1
  O  O366  1  0.42386322  0.99746774  0.55316451  1
  O  O367  1  0.36505519  0.98360703  0.99677066  1
  O  O368  1  0.88818068  0.49728857  0.49827868  1
  O  O369  1  0.88600430  0.50131204  0.99964290  1
  O  O370  1  0.86937017  0.99134311  0.50234591  1
  O  O371  1  0.88442021  1.01040120  0.98369554  1
  O  O372  1  0.13023413  0.00386041  0.00170323  1
  O  O373  1  0.12772634  0.01323524  0.49332611  1
  O  O374  1  0.11605124  0.48230384  0.00882592  1
  O  O375  1  0.11998946  0.50449298  0.50725233  1
  O  O376  1  0.64108762  0.02261725  -0.00689858  1
  O  O377  1  0.61910850  0.01427697  0.50418482  1
  O  O378  1  0.61363813  0.50685870  0.01388888  1
  O  O379  1  0.62013932  0.50465830  0.50569331  1
  O  O380  1  0.37994193  0.36689339  0.10464940  1
  O  O381  1  0.36559106  0.36740921  0.63169023  1
  O  O382  1  0.34067527  0.84154696  0.13057902  1
  O  O383  1  0.35187035  0.85713126  0.61931589  1
  O  O384  1  0.86229069  0.37565034  0.13071479  1
  O  O385  1  0.85843043  0.36831614  0.62577440  1
  O  O386  1  0.89649743  0.89350045  0.11492912  1
  O  O387  1  0.87018503  0.88388970  0.61597228  1
  O  O388  1  0.13347216  0.13971326  0.39256272  1
  O  O389  1  0.10110724  0.14181612  0.88748492  1
  O  O390  1  0.12408522  0.63244940  0.38813228  1
  O  O391  1  0.13109791  0.63907547  0.86516008  1
  O  O392  1  0.63812705  0.14155944  0.38572485  1
  O  O393  1  0.63111260  0.13944585  0.87574035  1
  O  O394  1  0.64670567  0.60725454  0.38754028  1
  O  O395  1  0.64383875  0.64153518  0.86926579  1
