# generated using pymatgen
data_V35Zn35O128
_symmetry_space_group_name_H-M   'P 1'
_cell_length_a   16.94958227
_cell_length_b   16.93854884
_cell_length_c   17.05120908
_cell_angle_alpha   90.03626093
_cell_angle_beta   89.81185205
_cell_angle_gamma   89.99763259
_symmetry_Int_Tables_number   1
_chemical_formula_structural   V35Zn35O128
_chemical_formula_sum   'V70 Zn70 O256'
_cell_volume   4895.39737702
_cell_formula_units_Z   2
loop_
 _symmetry_equiv_pos_site_id
 _symmetry_equiv_pos_as_xyz
  1  'x, y, z'
loop_
 _atom_site_type_symbol
 _atom_site_label
 _atom_site_symmetry_multiplicity
 _atom_site_fract_x
 _atom_site_fract_y
 _atom_site_fract_z
 _atom_site_occupancy
  V  V0  1  0.49897734  0.25029771  0.25205029  1
  V  V1  1  0.89112049  0.14973955  0.24829752  1
  V  V2  1  0.52147143  0.37457909  0.38815514  1
  V  V3  1  -0.00129494  0.75275030  0.74843630  1
  V  V4  1  0.05884016  0.34841633  0.32667148  1
  V  V5  1  0.75235607  0.61637109  0.37978052  1
  V  V6  1  0.24513156  0.51200139  0.75205343  1
  V  V7  1  0.88486643  0.00908646  0.36291923  1
  V  V8  1  0.24524995  0.37574386  0.62757176  1
  V  V9  1  0.10826719  0.37067462  0.75943468  1
  V  V10  1  0.38297795  0.75445939  0.63999912  1
  V  V11  1  0.23657503  0.12707450  0.88416074  1
  V  V12  1  0.85143224  0.87607509  0.00982665  1
  V  V13  1  0.38638084  0.00581339  0.87410950  1
  V  V14  1  0.62571162  0.37653547  0.22449671  1
  V  V15  1  0.13320714  -0.00051677  0.12196318  1
  V  V16  1  0.25465842  0.00929866  0.74606673  1
  V  V17  1  0.51598967  0.62378345  0.13306357  1
  V  V18  1  0.00235911  -0.00309215  -0.00296255  1
  V  V19  1  0.12653814  0.86917411  0.25103061  1
  V  V20  1  0.26925285  0.11128438  0.38413903  1
  V  V21  1  0.12323075  0.87411673  0.75606079  1
  V  V22  1  0.38274339  0.61891848  0.26989644  1
  V  V23  1  0.26492395  0.87036183  0.12108585  1
  V  V24  1  0.62934069  0.00214849  0.58953389  1
  V  V25  1  0.87614288  0.75497109  0.60352017  1
  V  V26  1  0.62847859  0.50293681  0.64725138  1
  V  V27  1  0.62856049  0.75165650  0.38062100  1
  V  V28  1  0.25897382  -0.00444449  0.25641884  1
  V  V29  1  0.87135682  0.61839589  0.76230850  1
  V  V30  1  0.53436880  0.21236780  0.73534292  1
  V  V31  1  -0.00602834  0.12211636  0.61784454  1
  V  V32  1  0.37277809  0.87914914  0.49503524  1
  V  V33  1  0.25452187  0.26771203  -0.00658272  1
  V  V34  1  0.25478720  0.50809979  0.27138509  1
  V  V35  1  0.62476305  0.63120329  0.50692766  1
  V  V36  1  0.12069229  -0.00258973  0.62053214  1
  V  V37  1  0.12580189  0.12579686  0.48923077  1
  V  V38  1  0.77063439  0.37574948  0.10530305  1
  V  V39  1  -0.00433894  -0.00337957  0.48717623  1
  V  V40  1  -0.00749710  0.86618061  0.36902536  1
  V  V41  1  0.74031739  0.00877293  0.24823499  1
  V  V42  1  0.00998557  0.13220698  0.12468662  1
  V  V43  1  0.26682911  0.38737721  0.13887506  1
  V  V44  1  -0.00165961  0.62009332  0.61028909  1
  V  V45  1  0.49416182  0.63231414  0.64505340  1
  V  V46  1  0.87916455  0.74123119  0.13329496  1
  V  V47  1  0.24606532  0.24734712  0.49827851  1
  V  V48  1  -0.00208271  0.24453902  0.75781471  1
  V  V49  1  0.49878117  0.75430286  0.25855281  1
  V  V50  1  0.87096822  0.25040095  0.61364954  1
  V  V51  1  0.37019486  0.23550332  0.63850090  1
  V  V52  1  0.10653173  0.49493831  0.60992756  1
  V  V53  1  0.14609739  0.74301100  0.38579067  1
  V  V54  1  0.49622807  0.37611248  0.83582084  1
  V  V55  1  0.37131915  0.37723381  0.49475851  1
  V  V56  1  0.88072823  0.39805832  0.50953392  1
  V  V57  1  0.87332852  0.11620816  0.76392723  1
  V  V58  1  0.74464778  0.15182045  0.37984471  1
  V  V59  1  0.76901296  0.21430015  -0.00499551  1
  V  V60  1  0.75312586  -0.00842970  0.75211797  1
  V  V61  1  0.75711262  0.87523128  0.59153097  1
  V  V62  1  0.12262911  0.72255569  0.89091312  1
  V  V63  1  0.12489481  0.51416011  0.11724345  1
  V  V64  1  0.62577459  0.75189704  0.87533924  1
  V  V65  1  0.37601140  0.12999579  0.23802523  1
  V  V66  1  0.49404790  0.47691949  0.02385643  1
  V  V67  1  0.24709833  0.86887142  0.61893818  1
  V  V68  1  0.49648435  0.50630185  0.50198273  1
  V  V69  1  0.50383822  0.88560324  0.38454653  1
  Zn  Zn70  1  0.76237997  0.50042057  0.25299459  1
  Zn  Zn71  1  0.24778539  0.75081373  0.00244688  1
  Zn  Zn72  1  0.91522141  0.48204363  0.36071051  1
  Zn  Zn73  1  -0.00655627  0.87519522  0.88009593  1
  Zn  Zn74  1  0.38154074  0.88450884  -0.01069975  1
  Zn  Zn75  1  0.73917050  0.36329462  0.64271376  1
  Zn  Zn76  1  0.18335708  0.20760878  0.14180228  1
  Zn  Zn77  1  0.17988449  0.18799313  0.68147054  1
  Zn  Zn78  1  0.19634716  0.68704211  0.19364075  1
  Zn  Zn79  1  0.20552895  0.66456526  0.63471870  1
  Zn  Zn80  1  0.71444153  0.21828634  0.20079932  1
  Zn  Zn81  1  0.69774227  0.16649134  0.67328417  1
  Zn  Zn82  1  0.69299926  0.68848960  0.19808708  1
  Zn  Zn83  1  0.69883277  0.69094315  0.67998699  1
  Zn  Zn84  1  0.24532789  0.29180839  0.29813512  1
  Zn  Zn85  1  0.30348619  0.32387902  0.81295090  1
  Zn  Zn86  1  0.31832741  0.81026613  0.31372996  1
  Zn  Zn87  1  0.32059799  0.79776072  0.83596021  1
  Zn  Zn88  1  0.82356138  0.33538606  0.30856197  1
  Zn  Zn89  1  0.69559599  0.30954041  0.81894016  1
  Zn  Zn90  1  0.79089833  0.81832244  0.25920427  1
  Zn  Zn91  1  0.82338307  0.82864778  0.81290698  1
  Zn  Zn92  1  0.18314968  0.43309517  0.43622460  1
  Zn  Zn93  1  0.17313349  0.44325574  0.93399147  1
  Zn  Zn94  1  0.18317168  0.93216488  0.43519321  1
  Zn  Zn95  1  0.19262600  0.94215472  0.93786965  1
  Zn  Zn96  1  0.69812315  0.43818648  0.46456735  1
  Zn  Zn97  1  0.62771651  0.39345604  0.97453115  1
  Zn  Zn98  1  0.70661971  0.93530345  0.40948222  1
  Zn  Zn99  1  0.71439137  1.01214883  0.95853457  1
  Zn  Zn100  1  0.35845473  0.10697334  0.02889410  1
  Zn  Zn101  1  0.31474305  0.05639941  0.56287625  1
  Zn  Zn102  1  0.34354691  0.55384501  0.08452079  1
  Zn  Zn103  1  0.31384889  0.56245746  0.55931470  1
  Zn  Zn104  1  0.82917912  0.05870042  0.07799258  1
  Zn  Zn105  1  0.80734483  0.06519141  0.54719978  1
  Zn  Zn106  1  0.77030716  0.57004882  0.07937542  1
  Zn  Zn107  1  0.81132291  0.56767137  0.57254487  1
  Zn  Zn108  1  0.44039290  0.43893545  0.20267384  1
  Zn  Zn109  1  0.42868278  0.44715427  0.68466531  1
  Zn  Zn110  1  0.44039210  0.93608138  0.19505627  1
  Zn  Zn111  1  0.43900764  0.94431457  0.66762322  1
  Zn  Zn112  1  0.94395480  0.42516004  0.18269461  1
  Zn  Zn113  1  0.87718119  0.40504748  0.73973444  1
  Zn  Zn114  1  0.94239060  0.93604178  0.18572738  1
  Zn  Zn115  1  0.93456271  0.93489927  0.68135007  1
  Zn  Zn116  1  0.08403658  0.17709096  0.30073309  1
  Zn  Zn117  1  0.06100493  0.06364483  0.81178479  1
  Zn  Zn118  1  0.07359192  0.55347587  0.31206842  1
  Zn  Zn119  1  0.05447732  0.56049084  0.80311143  1
  Zn  Zn120  1  0.56599411  0.07509525  0.32223763  1
  Zn  Zn121  1  0.55270203  0.00165881  0.76327165  1
  Zn  Zn122  1  0.57343335  0.55516491  0.31557510  1
  Zn  Zn123  1  0.58148120  0.53931745  0.85436808  1
  Zn  Zn124  1  0.42765723  0.20407421  0.43438994  1
  Zn  Zn125  1  0.40963408  0.21275197  0.88895841  1
  Zn  Zn126  1  0.43298139  0.69680675  0.44918422  1
  Zn  Zn127  1  0.44399285  0.72311364  0.98155184  1
  Zn  Zn128  1  0.94408861  0.20068295  0.43195393  1
  Zn  Zn129  1  0.97914884  0.22819041  0.96832271  1
  Zn  Zn130  1  0.95824335  0.66230381  0.40472681  1
  Zn  Zn131  1  0.81761665  0.68442124  0.94604527  1
  Zn  Zn132  1  0.07915398  0.33232230  0.07703560  1
  Zn  Zn133  1  0.05741839  0.30962931  0.56170933  1
  Zn  Zn134  1  0.06064490  0.80626988  0.06711802  1
  Zn  Zn135  1  0.05833664  0.81006402  0.55535553  1
  Zn  Zn136  1  0.42286293  0.30555423  0.06084747  1
  Zn  Zn137  1  0.54677933  0.32538198  0.58894021  1
  Zn  Zn138  1  0.56663958  0.81334785  0.07354564  1
  Zn  Zn139  1  0.56177343  0.82084652  0.56701543  1
  O  O140  1  0.12464109  0.10502828  0.13639504  1
  O  O141  1  0.11478991  0.11369882  0.61414707  1
  O  O142  1  0.13737802  0.61466526  0.13042525  1
  O  O143  1  0.10551895  0.60799195  0.62814988  1
  O  O144  1  0.62421385  0.13471717  0.12647440  1
  O  O145  1  0.64889228  0.10206884  0.59783378  1
  O  O146  1  0.61760644  0.61930066  0.14672000  1
  O  O147  1  0.61224217  0.63052613  0.62251756  1
  O  O148  1  0.37773844  0.37753638  0.39731228  1
  O  O149  1  0.40100989  0.33885555  0.86992409  1
  O  O150  1  0.38563825  0.87271516  0.38873772  1
  O  O151  1  0.36282702  0.90345053  0.86740738  1
  O  O152  1  0.86664387  0.38456574  0.40759607  1
  O  O153  1  0.76500826  0.49328389  0.84717225  1
  O  O154  1  0.89275513  0.89190804  0.36386357  1
  O  O155  1  0.87903104  0.86767798  0.90312662  1
  O  O156  1  0.24917096  0.00029306  0.36798453  1
  O  O157  1  0.24537648  0.00972129  0.85724430  1
  O  O158  1  0.24875560  0.50196418  0.36924367  1
  O  O159  1  0.23021044  0.49383887  0.85024130  1
  O  O160  1  0.77019199  0.03217054  0.36541478  1
  O  O161  1  0.73783107  -0.00460232  0.84989409  1
  O  O162  1  0.74530113  0.51253343  0.38890126  1
  O  O163  1  0.71063919  0.51158017  0.89175612  1
  O  O164  1  0.25533571  0.49947916  0.13144551  1
  O  O165  1  0.22928023  0.48749994  0.63037064  1
  O  O166  1  0.24218100  0.98724378  0.13487891  1
  O  O167  1  0.23840822  0.99383896  0.63003041  1
  O  O168  1  0.75566311  0.47797685  0.13838975  1
  O  O169  1  0.72768091  0.51778958  0.63340707  1
  O  O170  1  0.76394779  1.00033554  0.15178042  1
  O  O171  1  0.76090591  0.98306861  0.61109760  1
  O  O172  1  0.02745557  0.35441295  0.23147001  1
  O  O173  1  -0.00427588  0.35516829  0.75251444  1
  O  O174  1  0.01498487  0.88370002  0.26213735  1
  O  O175  1  0.00765599  0.87566417  0.75066257  1
  O  O176  1  0.51357663  0.37707791  0.27064355  1
  O  O177  1  0.49656599  0.36866548  0.73469426  1
  O  O178  1  0.49236680  0.86126879  0.26807743  1
  O  O179  1  0.51358766  0.89821157  0.73697049  1
  O  O180  1  0.48839980  0.13983248  0.26237312  1
  O  O181  1  0.53178841  0.11446206  0.73130822  1
  O  O182  1  0.49941946  0.62640781  0.25741030  1
  O  O183  1  0.49547018  0.62687238  0.73975794  1
  O  O184  1  0.99963307  0.12806173  0.24065331  1
  O  O185  1  0.99487794  0.12160999  0.73546647  1
  O  O186  1  0.96776145  0.57684912  0.33194490  1
  O  O187  1  0.99241006  0.63743470  0.73935443  1
  O  O188  1  0.36641039  0.22662739  -0.00119605  1
  O  O189  1  0.36630452  0.25895686  0.51647545  1
  O  O190  1  0.34740187  0.76290895  -0.05276144  1
  O  O191  1  0.37920733  0.76895831  0.51941132  1
  O  O192  1  0.86556042  0.22960088  -0.01688688  1
  O  O193  1  0.88342947  0.25227830  0.51289642  1
  O  O194  1  0.84027346  0.76914961  0.01824012  1
  O  O195  1  0.88412310  0.74638637  0.50937546  1
  O  O196  1  0.13555138  0.23762779  0.50994917  1
  O  O197  1  0.16203944  0.24097185  1.02631805  1
  O  O198  1  0.12477325  0.75464152  0.48428532  1
  O  O199  1  0.13055582  0.74592283  0.99281287  1
  O  O200  1  0.58488773  0.22742861  0.50818142  1
  O  O201  1  0.58674053  0.17974725  1.08304385  1
  O  O202  1  0.61104603  0.73675051  0.49612527  1
  O  O203  1  0.62770791  0.75954518  0.97873647  1
  O  O204  1  0.47524701  0.27007141  0.15843938  1
  O  O205  1  0.48214992  0.24639637  0.64230051  1
  O  O206  1  0.52023076  0.74422907  0.15515954  1
  O  O207  1  0.49314471  0.74696162  0.62953699  1
  O  O208  1  1.02786324  0.22907120  0.12078535  1
  O  O209  1  0.99595223  0.23360995  0.62784123  1
  O  O210  1  0.97859806  0.74117435  0.10779034  1
  O  O211  1  0.99339521  0.74460934  0.62773003  1
  O  O212  1  0.02062686  0.25851181  0.36906018  1
  O  O213  1  0.00078422  0.22607291  0.85322242  1
  O  O214  1  -0.00220983  0.76639642  0.37582152  1
  O  O215  1  0.02513374  0.75783377  0.85930594  1
  O  O216  1  0.49202427  0.27115971  0.36743664  1
  O  O217  1  0.50397908  0.23551951  0.82874823  1
  O  O218  1  0.50504548  0.75693417  0.37435577  1
  O  O219  1  0.52213619  0.74757339  0.87122693  1
  O  O220  1  0.24367505  0.12492397  0.50055355  1
  O  O221  1  0.24766087  0.11762229  0.98390504  1
  O  O222  1  0.23881581  0.63377567  0.53204296  1
  O  O223  1  0.27347086  0.61605676  0.98154353  1
  O  O224  1  0.76514018  0.14179951  0.47746021  1
  O  O225  1  0.75526539  0.10973308  1.00608480  1
  O  O226  1  0.72783317  0.62369818  0.50417889  1
  O  O227  1  0.74148853  0.61511458  0.98606028  1
  O  O228  1  0.25341547  0.36741215  -0.01941322  1
  O  O229  1  0.25113107  0.36653486  0.50911568  1
  O  O230  1  0.25423218  0.88146237  0.01453227  1
  O  O231  1  0.25995698  0.88199383  0.50802379  1
  O  O232  1  0.73461239  0.39006929  0.01108346  1
  O  O233  1  0.76966591  0.38550915  0.53311603  1
  O  O234  1  0.75856867  0.91438987  0.00565601  1
  O  O235  1  0.76449051  0.87415260  0.49370949  1
  O  O236  1  0.15308132  0.50631619  0.24522242  1
  O  O237  1  0.11465450  0.48099674  0.73749053  1
  O  O238  1  0.14559805  0.98341687  0.24294705  1
  O  O239  1  0.12028341  0.99294874  0.73350460  1
  O  O240  1  0.63990752  0.47268061  0.26489921  1
  O  O241  1  0.61650184  0.51469990  0.74466298  1
  O  O242  1  0.64272634  1.02975372  0.24893334  1
  O  O243  1  0.65530171  1.00041002  0.71588461  1
  O  O244  1  0.37064907  0.01030597  0.24610379  1
  O  O245  1  0.35529424  0.00062626  0.73953741  1
  O  O246  1  0.37306076  0.51056865  0.26224291  1
  O  O247  1  0.34457212  0.49780501  0.73813149  1
  O  O248  1  0.88123111  0.01086303  0.25659899  1
  O  O249  1  0.87258999  0.00872222  0.74197255  1
  O  O250  1  0.86184641  0.44000597  0.26458947  1
  O  O251  1  0.88572780  0.51841340  0.74941213  1
  O  O252  1  0.15989486  0.35567545  0.35614031  1
  O  O253  1  0.11855586  0.37195953  0.85624602  1
  O  O254  1  0.11859872  0.86516810  0.36854177  1
  O  O255  1  0.12522640  0.88640682  0.85713164  1
  O  O256  1  0.61938109  0.36996267  0.40016971  1
  O  O257  1  0.59932336  0.36167099  0.86796378  1
  O  O258  1  0.61296890  0.85902346  0.38931902  1
  O  O259  1  0.61849807  0.85589423  0.86970949  1
  O  O260  1  0.37428903  0.12818025  0.13952606  1
  O  O261  1  0.36694023  0.13711561  0.62258607  1
  O  O262  1  0.40025872  0.62534414  0.15236907  1
  O  O263  1  0.38578200  0.64356613  0.62512660  1
  O  O264  1  0.89862925  0.12601070  0.13974393  1
  O  O265  1  0.88674514  0.12682806  0.61510455  1
  O  O266  1  0.84791957  0.64390414  0.12169743  1
  O  O267  1  0.88440210  0.63988932  0.63215907  1
  O  O268  1  0.27509326  0.28186251  0.11150000  1
  O  O269  1  0.25188901  0.25444508  0.61653136  1
  O  O270  1  0.25031526  0.76600042  0.12268010  1
  O  O271  1  0.25997525  0.76601093  0.63277147  1
  O  O272  1  0.74397677  0.25754920  0.09180199  1
  O  O273  1  0.76970275  0.24252340  0.62526119  1
  O  O274  1  0.75177135  0.77388097  0.16023459  1
  O  O275  1  0.76651659  0.76200459  0.61978462  1
  O  O276  1  0.26356138  0.23135995  0.39614618  1
  O  O277  1  0.25333222  0.23933248  0.88510170  1
  O  O278  1  0.24623614  0.75333258  0.37875445  1
  O  O279  1  0.21434805  0.75036204  0.85663517  1
  O  O280  1  0.76289160  0.24974506  0.35735212  1
  O  O281  1  0.71734798  0.24741150  0.91544685  1
  O  O282  1  0.72867860  0.74158519  0.37492852  1
  O  O283  1  0.73111173  0.75517732  0.87543916  1
  O  O284  1  0.00353332  0.11257880  0.01862308  1
  O  O285  1  0.00982057  0.11944360  0.50026031  1
  O  O286  1  -0.03657628  0.51768102  -0.05971869  1
  O  O287  1  -0.00425342  0.63117674  0.51373571  1
  O  O288  1  0.51301790  0.12839525  -0.02734187  1
  O  O289  1  0.53453295  0.17265060  0.49717382  1
  O  O290  1  0.50280448  0.64621144  0.03470276  1
  O  O291  1  0.50390345  0.61903460  0.50673557  1
  O  O292  1  0.49342742  0.38073241  0.50005961  1
  O  O293  1  0.50304625  0.37361923  1.00779042  1
  O  O294  1  0.49133771  0.87362395  0.49012263  1
  O  O295  1  0.48006260  0.83017126  1.00567587  1
  O  O296  1  0.98148790  0.37608857  0.51533369  1
  O  O297  1  1.01753605  0.33107627  0.98899183  1
  O  O298  1  1.00662378  0.88761907  0.48216991  1
  O  O299  1  1.01266613  0.89010064  0.99986908  1
  O  O300  1  0.50886289  0.48598187  0.39175413  1
  O  O301  1  0.48533105  0.47563796  0.84752008  1
  O  O302  1  0.51265611  0.98288396  0.36713991  1
  O  O303  1  0.48235920  1.01414021  0.85205320  1
  O  O304  1  1.02826907  0.43474986  0.36837348  1
  O  O305  1  0.99427521  0.48310049  0.87373932  1
  O  O306  1  1.00017545  0.99744893  0.37965215  1
  O  O307  1  1.01142021  1.00338510  0.89519744  1
  O  O308  1  0.01896434  0.00230055  0.12272478  1
  O  O309  1  0.00343991  0.00274713  0.60924993  1
  O  O310  1  0.02791028  0.49202320  0.14009988  1
  O  O311  1  0.00191295  0.51083217  0.62181137  1
  O  O312  1  0.53379914  -0.03361365  0.12410558  1
  O  O313  1  0.52940858  -0.00936936  0.60898333  1
  O  O314  1  0.50449171  0.50920441  0.12635378  1
  O  O315  1  0.50487336  0.51729556  0.62439570  1
  O  O316  1  0.27500620  0.39242424  0.24294757  1
  O  O317  1  0.22736939  0.37197574  0.74030528  1
  O  O318  1  0.25556897  0.87810458  0.24126356  1
  O  O319  1  0.23141642  0.89088525  0.73705863  1
  O  O320  1  0.73149037  0.34291475  0.21563835  1
  O  O321  1  0.76872395  0.36728312  0.75353892  1
  O  O322  1  0.73937149  0.91044274  0.29206856  1
  O  O323  1  0.76878674  0.88863870  0.73570306  1
  O  O324  1  0.26844288  0.11229841  0.26789260  1
  O  O325  1  0.23541829  0.11081395  0.74488576  1
  O  O326  1  0.27152958  0.61715518  0.25293150  1
  O  O327  1  0.22843055  0.60973211  0.73482181  1
  O  O328  1  0.77380086  0.13028034  0.25206530  1
  O  O329  1  0.76897313  0.11125533  0.74291759  1
  O  O330  1  0.74382184  0.61523266  0.27492531  1
  O  O331  1  0.77300132  0.63612624  0.74372726  1
  O  O332  1  0.37151090  0.11403867  0.39160632  1
  O  O333  1  0.35209284  0.11328908  0.86227158  1
  O  O334  1  0.38700405  0.62785186  0.36949131  1
  O  O335  1  0.30574897  0.60969699  0.91564766  1
  O  O336  1  0.89047416  0.12859915  0.35779265  1
  O  O337  1  0.87761334  0.11851322  0.85831085  1
  O  O338  1  0.84521648  0.63760771  0.40159361  1
  O  O339  1  0.87704526  0.63797445  0.86185488  1
  O  O340  1  0.16006417  0.39205241  0.12560979  1
  O  O341  1  0.12439356  0.38052191  0.62740184  1
  O  O342  1  0.13171980  0.87963092  0.13352800  1
  O  O343  1  0.12752906  0.88453275  0.62024240  1
  O  O344  1  0.60771375  0.38445525  0.13092587  1
  O  O345  1  0.62448875  0.39714782  0.62761223  1
  O  O346  1  0.59399952  0.91797057  0.12033049  1
  O  O347  1  0.65192013  0.87707623  0.60790037  1
  O  O348  1  0.16049363  0.23819085  0.24512643  1
  O  O349  1  0.10806203  0.25927962  0.73630071  1
  O  O350  1  0.13881489  0.76463453  0.25860165  1
  O  O351  1  0.11361892  0.77260378  0.73332654  1
  O  O352  1  0.60566402  0.26033098  0.24541664  1
  O  O353  1  0.63403416  0.24304844  0.73276029  1
  O  O354  1  0.61094324  0.74004945  0.27608758  1
  O  O355  1  0.63286493  0.74570693  0.77153444  1
  O  O356  1  0.37081986  0.22979054  0.26548006  1
  O  O357  1  0.35207272  0.24698779  0.73531429  1
  O  O358  1  0.39212858  0.73779204  0.25910379  1
  O  O359  1  0.37249544  0.76369324  0.73826330  1
  O  O360  1  0.88596617  0.24760065  0.24760488  1
  O  O361  1  0.89035288  0.22821279  0.73406433  1
  O  O362  1  0.88437233  0.76076534  0.23519751  1
  O  O363  1  0.89172603  0.75548460  0.74919125  1
  O  O364  1  0.38834164  0.49093499  0.51833461  1
  O  O365  1  0.40629486  0.51474982  0.99487032  1
  O  O366  1  0.38135287  0.97927430  0.51559016  1
  O  O367  1  0.38611725  1.00708933  0.98022750  1
  O  O368  1  0.88074298  0.50028286  0.51394959  1
  O  O369  1  0.90192604  0.48527485  0.96720196  1
  O  O370  1  0.88970065  1.01216022  0.48000308  1
  O  O371  1  0.89791512  0.99022598  1.01246555  1
  O  O372  1  0.12522484  -0.00379989  0.01731201  1
  O  O373  1  0.11846099  0.00638410  0.50412985  1
  O  O374  1  0.13064037  0.50282458  0.01683480  1
  O  O375  1  0.12007323  0.48992196  0.51202657  1
  O  O376  1  0.59782520  0.02634669  -0.01938071  1
  O  O377  1  0.64146579  -0.01119065  0.49029338  1
  O  O378  1  0.57739860  0.50801148  -0.02850137  1
  O  O379  1  0.61184657  0.51390589  0.51633756  1
  O  O380  1  0.37357735  0.39949711  0.11555541  1
  O  O381  1  0.35769916  0.36852547  0.62170245  1
  O  O382  1  0.36626211  0.88164016  0.12315646  1
  O  O383  1  0.36676680  0.86918620  0.61957501  1
  O  O384  1  0.86982395  0.37088489  0.10476901  1
  O  O385  1  0.88207061  0.35450749  0.62947558  1
  O  O386  1  0.88299284  0.87107101  0.11281574  1
  O  O387  1  0.87519133  0.86281344  0.61550890  1
  O  O388  1  0.14091833  0.12191537  0.38757801  1
  O  O389  1  0.13727643  0.12529237  0.86885995  1
  O  O390  1  0.12228561  0.64754809  0.36248367  1
  O  O391  1  0.11396859  0.62387448  0.87845019  1
  O  O392  1  0.64479879  0.14030288  0.37078595  1
  O  O393  1  0.57669748  0.09677113  0.94560062  1
  O  O394  1  0.62545021  0.62933791  0.39332242  1
  O  O395  1  0.62470882  0.64718749  0.87992041  1
