# generated using pymatgen
data_V35Zn35O128
_symmetry_space_group_name_H-M   'P 1'
_cell_length_a   16.84268184
_cell_length_b   16.91003019
_cell_length_c   16.91238348
_cell_angle_alpha   90.07518581
_cell_angle_beta   89.76291749
_cell_angle_gamma   89.83013124
_symmetry_Int_Tables_number   1
_chemical_formula_structural   V35Zn35O128
_chemical_formula_sum   'V70 Zn70 O256'
_cell_volume   4816.75367719
_cell_formula_units_Z   2
loop_
 _symmetry_equiv_pos_site_id
 _symmetry_equiv_pos_as_xyz
  1  'x, y, z'
loop_
 _atom_site_type_symbol
 _atom_site_label
 _atom_site_symmetry_multiplicity
 _atom_site_fract_x
 _atom_site_fract_y
 _atom_site_fract_z
 _atom_site_occupancy
  V  V0  1  0.38076562  0.13270395  0.24043853  1
  V  V1  1  0.24608543  0.14224942  0.36979797  1
  V  V2  1  0.87482894  0.50324503  0.88418899  1
  V  V3  1  0.27205234  0.61850977  0.37350552  1
  V  V4  1  0.23976345  0.26525247  0.00785818  1
  V  V5  1  0.22148943  0.11929672  0.88686819  1
  V  V6  1  0.13497466  0.73886518  0.38482348  1
  V  V7  1  0.38256650  0.88803394  0.48800738  1
  V  V8  1  0.24246258  0.25479293  0.51435608  1
  V  V9  1  0.63548472  0.38321845  0.24437158  1
  V  V10  1  0.37699470  0.62697440  0.74118605  1
  V  V11  1  0.76585663  0.50532258  0.24102354  1
  V  V12  1  0.11582052  0.11401644  0.49861510  1
  V  V13  1  0.35567517  0.15118470  0.74686307  1
  V  V14  1  0.61229301  0.49678240  0.63230190  1
  V  V15  1  0.12455735  0.87512719  0.25772562  1
  V  V16  1  0.75815237  0.50784897  0.74742788  1
  V  V17  1  0.63840703  -0.00327594  0.11527215  1
  V  V18  1  0.25555239  -0.00073407  0.26310044  1
  V  V19  1  0.87571799  -0.00005890  0.88552034  1
  V  V20  1  0.25633287  0.74593691  0.51283646  1
  V  V21  1  0.50622917  0.01749427  0.48116686  1
  V  V22  1  0.62948811  0.24360831  0.36861953  1
  V  V23  1  0.11573197  0.38320634  0.73094432  1
  V  V24  1  0.35837558  0.00697384  0.85788917  1
  V  V25  1  0.24693366  0.90180865  0.62581966  1
  V  V26  1  0.73388376  0.12362234  0.87106819  1
  V  V27  1  0.48083959  0.00171921  -0.00013249  1
  V  V28  1  0.01884325  0.49473651  0.49050126  1
  V  V29  1  0.73745723  0.25082256  -0.00142736  1
  V  V30  1  -0.00791481  0.74138140  0.73925621  1
  V  V31  1  0.00776066  0.87576598  0.39095561  1
  V  V32  1  0.74785188  0.37361678  0.63318385  1
  V  V33  1  0.50490855  0.76402475  0.27494906  1
  V  V34  1  0.24768715  0.49481377  0.72594472  1
  V  V35  1  0.12525534  0.87803644  0.74781820  1
  V  V36  1  0.24091481  0.60936294  0.87478341  1
  V  V37  1  0.51916214  0.24974316  0.72089067  1
  V  V38  1  0.61829203  0.76512501  0.86008005  1
  V  V39  1  -0.00211433  0.73027971  0.25328314  1
  V  V40  1  0.88604853  -0.00107312  0.38675392  1
  V  V41  1  0.00658616  0.25597126  0.26328485  1
  V  V42  1  0.73640468  0.75812184  0.01672157  1
  V  V43  1  0.86941231  0.25880885  0.11978056  1
  V  V44  1  0.87649722  0.38569262  0.48641109  1
  V  V45  1  0.00768318  0.51953255  0.01106242  1
  V  V46  1  0.49600945  0.49980758  0.49142473  1
  V  V47  1  0.75997199  0.61322107  0.37893012  1
  V  V48  1  0.37553522  0.36254389  0.50959937  1
  V  V49  1  0.87521988  0.11823566  0.24910183  1
  V  V50  1  -0.00036380  0.37036153  0.89044537  1
  V  V51  1  0.74174952  0.63547648  0.87481071  1
  V  V52  1  0.75389659  -0.02767209  0.25061810  1
  V  V53  1  0.00186821  0.85406009  0.88626102  1
  V  V54  1  0.49865913  0.36877685  0.36574134  1
  V  V55  1  0.48284793  0.87956108  0.85619557  1
  V  V56  1  0.23430688  0.75018635  -0.00716987  1
  V  V57  1  0.60941079  -0.00312055  0.63467543  1
  V  V58  1  0.16958890  0.41432993  0.23843027  1
  V  V59  1  0.62885942  0.62559390  0.49784418  1
  V  V60  1  0.38780583  0.75533611  0.11438558  1
  V  V61  1  0.00155347  0.12185486  0.11552924  1
  V  V62  1  0.00247085  0.61155628  0.62134935  1
  V  V63  1  0.63596944  0.76234698  0.38379868  1
  V  V64  1  0.88435323  0.25228595  0.63456954  1
  V  V65  1  0.86853532  0.86277047  0.51432363  1
  V  V66  1  0.11787441  0.00095749  0.11988416  1
  V  V67  1  0.75271657  0.24444195  0.49555420  1
  V  V68  1  -0.00181599  0.11136716  0.63235303  1
  V  V69  1  0.25277904  0.87451120  0.12061904  1
  Zn  Zn70  1  0.51917828  0.49112033  0.01299157  1
  Zn  Zn71  1  0.39379636  0.76608859  0.63284151  1
  Zn  Zn72  1  0.74472436  0.11084125  0.37695101  1
  Zn  Zn73  1  0.01657263  0.24505655  0.76618517  1
  Zn  Zn74  1  0.38642367  0.63002507  0.24558565  1
  Zn  Zn75  1  0.37261174  0.26834240  0.12224441  1
  Zn  Zn76  1  0.18532318  0.19452285  0.17827545  1
  Zn  Zn77  1  0.17735314  0.17793950  0.68903038  1
  Zn  Zn78  1  0.19383235  0.68820122  0.19511533  1
  Zn  Zn79  1  0.17712877  0.68154106  0.68987631  1
  Zn  Zn80  1  0.68684648  0.17565562  0.18573438  1
  Zn  Zn81  1  0.70074722  0.18157778  0.69474846  1
  Zn  Zn82  1  0.69027776  0.69601251  0.20713699  1
  Zn  Zn83  1  0.55419132  0.67890755  0.68151955  1
  Zn  Zn84  1  0.31281809  0.31466291  0.30826918  1
  Zn  Zn85  1  0.24678429  0.29001856  0.80355198  1
  Zn  Zn86  1  0.31740805  0.80997100  0.31059342  1
  Zn  Zn87  1  0.30357111  0.80964064  0.80552667  1
  Zn  Zn88  1  0.81738062  0.31388465  0.30462701  1
  Zn  Zn89  1  0.81146599  0.31385781  0.82085682  1
  Zn  Zn90  1  0.82358518  0.80181453  0.32807889  1
  Zn  Zn91  1  0.82498548  0.82171296  0.82126281  1
  Zn  Zn92  1  0.19292782  0.43099257  0.42284705  1
  Zn  Zn93  1  0.17699288  0.43696570  0.93939839  1
  Zn  Zn94  1  0.19255248  0.93598007  0.44387237  1
  Zn  Zn95  1  0.17699968  0.93254618  0.93701025  1
  Zn  Zn96  1  0.68775698  0.43478112  0.43789220  1
  Zn  Zn97  1  0.69489704  0.43557146  0.94853359  1
  Zn  Zn98  1  0.69290509  0.94670539  0.45354388  1
  Zn  Zn99  1  0.69320318  0.93608627  0.93388796  1
  Zn  Zn100  1  0.30481857  0.06066830  0.06174648  1
  Zn  Zn101  1  0.32273928  0.07392528  0.55708971  1
  Zn  Zn102  1  0.33462059  0.58400873  0.04420394  1
  Zn  Zn103  1  0.31566222  0.55941034  0.55839161  1
  Zn  Zn104  1  0.81107425  0.06003637  0.05597229  1
  Zn  Zn105  1  0.81946668  0.06336235  0.56520736  1
  Zn  Zn106  1  0.80957853  0.57332949  0.05700587  1
  Zn  Zn107  1  0.81814468  0.56895313  0.56804596  1
  Zn  Zn108  1  0.37288690  0.44472233  0.19723640  1
  Zn  Zn109  1  0.42929607  0.42726314  0.69700099  1
  Zn  Zn110  1  0.44195295  0.93929411  0.18808617  1
  Zn  Zn111  1  0.43471797  0.95084309  0.67803706  1
  Zn  Zn112  1  0.94200585  0.43810342  0.18902413  1
  Zn  Zn113  1  0.93549472  0.43670967  0.68459149  1
  Zn  Zn114  1  0.93584418  0.92628812  0.19030379  1
  Zn  Zn115  1  0.92300808  0.92725344  0.70810104  1
  Zn  Zn116  1  0.06449141  0.06790639  0.31060906  1
  Zn  Zn117  1  0.04802897  0.04452540  0.80806863  1
  Zn  Zn118  1  0.06972785  0.55409515  0.31909753  1
  Zn  Zn119  1  0.06244078  0.56329958  0.81179003  1
  Zn  Zn120  1  0.57073730  0.05852193  0.29115368  1
  Zn  Zn121  1  0.54252161  0.07958745  0.81493806  1
  Zn  Zn122  1  0.53479167  0.54842407  0.27803439  1
  Zn  Zn123  1  0.55963835  0.56028877  0.82234060  1
  Zn  Zn124  1  0.43252934  0.18858398  0.42554635  1
  Zn  Zn125  1  0.44610275  0.18037505  1.00465569  1
  Zn  Zn126  1  0.44367294  0.69551803  0.45302479  1
  Zn  Zn127  1  0.42064837  0.70088365  0.92308938  1
  Zn  Zn128  1  0.93510704  0.18800954  0.44227684  1
  Zn  Zn129  1  0.93194806  0.18202597  0.93762079  1
  Zn  Zn130  1  0.94419394  0.68205410  0.44557892  1
  Zn  Zn131  1  0.93973462  0.68846256  0.92115098  1
  Zn  Zn132  1  0.06544259  0.31826442  0.07735251  1
  Zn  Zn133  1  0.06150087  0.31230972  0.55196768  1
  Zn  Zn134  1  0.04184222  0.80774975  0.07917874  1
  Zn  Zn135  1  0.06698771  0.80756222  0.57148444  1
  Zn  Zn136  1  0.55845559  0.30681216  0.07982309  1
  Zn  Zn137  1  0.56819364  0.31221564  0.55449020  1
  Zn  Zn138  1  0.56804613  0.83000423  0.04765133  1
  Zn  Zn139  1  0.56583497  0.82318988  0.56455286  1
  O  O140  1  0.11435173  0.11069476  0.13302015  1
  O  O141  1  0.11036589  0.12762453  0.61104313  1
  O  O142  1  0.18294514  0.59288150  0.11791471  1
  O  O143  1  0.10616170  0.62690834  0.62069413  1
  O  O144  1  0.61412878  0.08869229  0.16752373  1
  O  O145  1  0.66917522  0.09834874  0.61657768  1
  O  O146  1  0.61384216  0.63746482  0.11372793  1
  O  O147  1  0.62028423  0.60626273  0.61217750  1
  O  O148  1  0.39405998  0.36283655  0.37845834  1
  O  O149  1  0.42218736  0.35623955  0.90505821  1
  O  O150  1  0.36664354  0.87642667  0.38999574  1
  O  O151  1  0.37738775  0.88191832  0.86556721  1
  O  O152  1  0.86952386  0.37378943  0.38816987  1
  O  O153  1  0.88674167  0.39300788  0.86711148  1
  O  O154  1  0.88843717  0.88270246  0.38752313  1
  O  O155  1  0.90378265  0.83177328  0.90949694  1
  O  O156  1  0.24666246  0.00590746  0.36502546  1
  O  O157  1  0.25404653  -0.00215175  0.87798280  1
  O  O158  1  0.25886211  0.52056552  0.38922041  1
  O  O159  1  0.24806653  0.50892989  0.87996567  1
  O  O160  1  0.77024066  -0.00661602  0.36965247  1
  O  O161  1  0.75911763  0.01688176  0.88472318  1
  O  O162  1  0.74727125  0.50951427  0.37116412  1
  O  O163  1  0.75528198  0.50203321  0.86759876  1
  O  O164  1  0.23976430  0.54129477  0.11420610  1
  O  O165  1  0.24703316  0.49585253  0.62684202  1
  O  O166  1  0.23800279  0.98987103  0.13579946  1
  O  O167  1  0.25056290  0.99998799  0.61838594  1
  O  O168  1  0.75744065  0.51997266  0.14121836  1
  O  O169  1  0.74694108  0.49538847  0.63619246  1
  O  O170  1  0.74851772  0.99761886  0.14024204  1
  O  O171  1  0.72535712  1.03232903  0.62631270  1
  O  O172  1  -0.00922500  0.35548360  0.24896536  1
  O  O173  1  0.00796319  0.37571389  0.75296719  1
  O  O174  1  0.01438655  0.86423738  0.26785375  1
  O  O175  1  0.00734326  0.85887591  0.75514898  1
  O  O176  1  0.51561827  0.37319357  0.26567205  1
  O  O177  1  0.48873841  0.34498080  0.74458014  1
  O  O178  1  0.49855692  0.86295194  0.24871029  1
  O  O179  1  0.49238841  0.87932831  0.75699589  1
  O  O180  1  0.47706596  0.11562825  0.25795326  1
  O  O181  1  0.47094818  0.16097059  0.76780992  1
  O  O182  1  0.50838137  0.65951252  0.25117053  1
  O  O183  1  0.48266397  0.61489899  0.75658832  1
  O  O184  1  0.98891038  0.12864205  0.24586970  1
  O  O185  1  1.01266737  0.13302951  0.73496981  1
  O  O186  1  1.00025255  0.63380685  0.28041532  1
  O  O187  1  1.00359424  0.63142867  0.73935891  1
  O  O188  1  0.34484535  0.23056613  0.00143257  1
  O  O189  1  0.36368800  0.25626836  0.49501938  1
  O  O190  1  0.35828628  0.75442353  0.01075515  1
  O  O191  1  0.36670793  0.76655332  0.50585429  1
  O  O192  1  0.87842414  0.24430057  0.01836391  1
  O  O193  1  0.86890722  0.26240718  0.50643949  1
  O  O194  1  0.86118081  0.72899899  0.02724803  1
  O  O195  1  0.88126311  0.76421475  0.49521664  1
  O  O196  1  0.13752274  0.24539105  0.49700981  1
  O  O197  1  0.13700915  0.24985135  1.02024836  1
  O  O198  1  0.14324697  0.75836357  0.49150892  1
  O  O199  1  0.13946256  0.74441683  1.02025200  1
  O  O200  1  0.64543248  0.25373477  0.48857764  1
  O  O201  1  0.63745730  0.25194778  1.00977332  1
  O  O202  1  0.62121973  0.73328108  0.49657047  1
  O  O203  1  0.63256832  0.75593107  0.98132460  1
  O  O204  1  0.47980876  0.23250383  0.09861270  1
  O  O205  1  0.51214340  0.24009735  0.62071884  1
  O  O206  1  0.48696968  0.76966191  0.10606926  1
  O  O207  1  0.50069621  0.74216414  0.60712349  1
  O  O208  1  0.98939997  0.23531938  0.13395951  1
  O  O209  1  0.98925415  0.25041770  0.62350581  1
  O  O210  1  1.03408700  0.72585361  0.15768620  1
  O  O211  1  0.99820983  0.74124757  0.63176364  1
  O  O212  1  -0.00827203  0.24326049  0.36278900  1
  O  O213  1  -0.01491524  0.26624365  0.87705719  1
  O  O214  1  0.02162018  0.75440278  0.37926953  1
  O  O215  1  0.01584942  0.74610445  0.85508443  1
  O  O216  1  0.51937851  0.25737313  0.38206537  1
  O  O217  1  0.47237581  0.30324919  0.90580889  1
  O  O218  1  0.51212992  0.75831254  0.37994193  1
  O  O219  1  0.50555902  0.77179331  0.88289398  1
  O  O220  1  0.24632262  0.13849023  0.48835711  1
  O  O221  1  0.23355015  0.10897196  0.98826904  1
  O  O222  1  0.26423827  0.64204597  0.49312306  1
  O  O223  1  0.25512568  0.63934994  0.98042655  1
  O  O224  1  0.76674113  0.14168770  0.49152143  1
  O  O225  1  0.76062245  0.13699438  0.98635251  1
  O  O226  1  0.73635220  0.61229772  0.49592591  1
  O  O227  1  0.74755425  0.64215533  0.98234901  1
  O  O228  1  0.24901244  0.36362873  -0.01344430  1
  O  O229  1  0.26305000  0.36311690  0.48978879  1
  O  O230  1  0.24052748  0.86996603  0.01712706  1
  O  O231  1  0.25969456  0.87181613  0.51189181  1
  O  O232  1  0.75866291  0.35070605  -0.01301697  1
  O  O233  1  0.75997699  0.36866541  0.50901776  1
  O  O234  1  0.75633817  0.85293136  -0.01162143  1
  O  O235  1  0.76900365  0.87995491  0.50579587  1
  O  O236  1  0.14258574  0.51249626  0.24504496  1
  O  O237  1  0.13252523  0.49273424  0.74754364  1
  O  O238  1  0.13375411  0.99176492  0.24942250  1
  O  O239  1  0.10781116  0.97720712  0.73450344  1
  O  O240  1  0.62992043  0.48781734  0.25356655  1
  O  O241  1  0.62813448  0.50297977  0.73549258  1
  O  O242  1  0.65478159  0.98025931  0.27011487  1
  O  O243  1  0.59592239  1.01450350  0.73337429  1
  O  O244  1  0.35796665  0.00447215  0.24685424  1
  O  O245  1  0.36787647  0.00879207  0.75566068  1
  O  O246  1  0.42881128  0.52485097  0.24108087  1
  O  O247  1  0.35666883  0.50413843  0.74554387  1
  O  O248  1  0.87360232  -0.00189112  0.25784472  1
  O  O249  1  0.84787572  -0.06629403  0.79622211  1
  O  O250  1  0.86452042  0.49751526  0.25332043  1
  O  O251  1  0.86219359  0.49905607  0.75475874  1
  O  O252  1  0.14776244  0.37759291  0.33162319  1
  O  O253  1  0.10148898  0.38358353  0.86682882  1
  O  O254  1  0.12608469  0.87126307  0.37423856  1
  O  O255  1  0.12462431  0.87776639  0.85288852  1
  O  O256  1  0.62121940  0.36451437  0.37176250  1
  O  O257  1  0.59439770  0.40470886  0.87496914  1
  O  O258  1  0.63939867  0.85889581  0.39910825  1
  O  O259  1  0.62846207  0.86724002  0.86049245  1
  O  O260  1  0.36307158  0.11735014  0.14031663  1
  O  O261  1  0.35974228  0.13002680  0.64855229  1
  O  O262  1  0.37474925  0.65170347  0.12714034  1
  O  O263  1  0.37157106  0.62195334  0.63839059  1
  O  O264  1  0.88733487  0.11650975  0.13251263  1
  O  O265  1  0.88810408  0.14112371  0.61762661  1
  O  O266  1  0.86955363  0.67549074  0.08428052  1
  O  O267  1  0.89654961  0.62816729  0.61917169  1
  O  O268  1  0.25498730  0.25791259  0.11816794  1
  O  O269  1  0.24442273  0.24730207  0.61178142  1
  O  O270  1  0.25300167  0.76517912  0.12667208  1
  O  O271  1  0.24952719  0.74622645  0.61349906  1
  O  O272  1  0.76126777  0.23425196  0.11552520  1
  O  O273  1  0.75981273  0.25412583  0.61511266  1
  O  O274  1  0.72465858  0.75309798  0.11604475  1
  O  O275  1  0.74801865  0.76560872  0.65082143  1
  O  O276  1  0.24352560  0.24304303  0.37039340  1
  O  O277  1  0.22938114  0.22728150  0.89490324  1
  O  O278  1  0.24747380  0.74906426  0.38571397  1
  O  O279  1  0.24149928  0.76640859  0.89256724  1
  O  O280  1  0.74892058  0.25312649  0.38480054  1
  O  O281  1  0.75793616  0.23721540  0.88616632  1
  O  O282  1  0.74018758  0.73415012  0.37316435  1
  O  O283  1  0.74127220  0.74314542  0.86169213  1
  O  O284  1  -0.00107508  0.12404779  0.01747656  1
  O  O285  1  0.00988844  0.12551158  0.50728878  1
  O  O286  1  -0.00506089  0.61840542  -0.00635246  1
  O  O287  1  0.00401936  0.60501639  0.50527382  1
  O  O288  1  0.51094772  0.09616151  -0.02751689  1
  O  O289  1  0.48786148  0.11638750  0.49155402  1
  O  O290  1  0.47827160  0.60495872  -0.04161395  1
  O  O291  1  0.50745100  0.60525174  0.49359166  1
  O  O292  1  0.49192323  0.37639614  0.49229441  1
  O  O293  1  0.48025405  0.40257426  1.08052097  1
  O  O294  1  0.48551595  0.88394717  0.49991188  1
  O  O295  1  0.51621599  0.90219115  0.97111433  1
  O  O296  1  0.98584643  0.38468235  0.50502942  1
  O  O297  1  1.00213419  0.38249411  0.99230399  1
  O  O298  1  1.00376715  0.87186105  0.49334025  1
  O  O299  1  1.04331373  0.85752577  0.97689702  1
  O  O300  1  0.50961492  0.48188182  0.38729656  1
  O  O301  1  0.53830660  0.45935760  0.88244781  1
  O  O302  1  0.51296110  1.00438677  0.38173902  1
  O  O303  1  0.47622869  0.99383299  0.86728804  1
  O  O304  1  1.00379104  0.49737211  0.39130019  1
  O  O305  1  0.98733721  0.50056075  0.88266177  1
  O  O306  1  0.99360377  0.99028034  0.36969567  1
  O  O307  1  0.98349780  0.96706714  0.86746219  1
  O  O308  1  0.01058559  0.00858116  0.13771235  1
  O  O309  1  -0.02229064  0.01545766  0.64005836  1
  O  O310  1  -0.01841127  0.50493385  0.10837720  1
  O  O311  1  -0.00135342  0.50487067  0.61719442  1
  O  O312  1  0.49445283  -0.00291959  0.10248713  1
  O  O313  1  0.50508969  0.00659790  0.60749190  1
  O  O314  1  0.57055901  0.57842912  0.12333496  1
  O  O315  1  0.50920221  0.48536269  0.61804759  1
  O  O316  1  0.27770879  0.39682332  0.23526500  1
  O  O317  1  0.23449234  0.39104880  0.75295774  1
  O  O318  1  0.24499621  0.88468869  0.24852959  1
  O  O319  1  0.24046515  0.87520392  0.73328783  1
  O  O320  1  0.74495397  0.39268589  0.25713190  1
  O  O321  1  0.75219241  0.38233989  0.74012517  1
  O  O322  1  0.77190657  0.87461581  0.25150137  1
  O  O323  1  0.74844830  0.82450659  0.69305416  1
  O  O324  1  0.24432150  0.11531038  0.25838224  1
  O  O325  1  0.24632997  0.13000156  0.76760317  1
  O  O326  1  0.26464452  0.63448556  0.26957553  1
  O  O327  1  0.24970718  0.60808076  0.75041717  1
  O  O328  1  0.76651743  0.11426540  0.25610060  1
  O  O329  1  0.76403992  0.13050553  0.77298309  1
  O  O330  1  0.74423909  0.61495151  0.26719286  1
  O  O331  1  0.74733705  0.60807109  0.76035986  1
  O  O332  1  0.35340590  0.13078188  0.36041771  1
  O  O333  1  0.35347843  0.11157174  0.86552471  1
  O  O334  1  0.37413689  0.63625960  0.37921982  1
  O  O335  1  0.34929945  0.63887457  0.85296849  1
  O  O336  1  0.88114842  0.10775296  0.37036019  1
  O  O337  1  0.89590192  0.09891378  0.86805891  1
  O  O338  1  0.85788867  0.62734562  0.38957463  1
  O  O339  1  0.85956672  0.61306346  0.87289123  1
  O  O340  1  0.12386388  0.37728025  0.15548100  1
  O  O341  1  0.11575613  0.37757206  0.63247377  1
  O  O342  1  0.13073708  0.88283109  0.14150034  1
  O  O343  1  0.14329289  0.87798776  0.62053549  1
  O  O344  1  0.62928176  0.36485253  0.14723017  1
  O  O345  1  0.63775999  0.38814501  0.61356403  1
  O  O346  1  0.61435856  0.89894735  0.12914218  1
  O  O347  1  0.62768977  0.89655189  0.62303688  1
  O  O348  1  0.10563045  0.23724194  0.24805823  1
  O  O349  1  0.13332542  0.27196187  0.74942120  1
  O  O350  1  0.13344821  0.75773784  0.27061102  1
  O  O351  1  0.11532288  0.76612350  0.73445217  1
  O  O352  1  0.64612171  0.26133985  0.26489745  1
  O  O353  1  0.61802347  0.24331053  0.74228201  1
  O  O354  1  0.61951450  0.75833990  0.27408194  1
  O  O355  1  0.60854253  0.74081935  0.76367572  1
  O  O356  1  0.37025063  0.23783557  0.24204724  1
  O  O357  1  0.34483327  0.25108091  0.75317405  1
  O  O358  1  0.39035189  0.75533556  0.24031401  1
  O  O359  1  0.36492116  0.73511014  0.74096790  1
  O  O360  1  0.87685948  0.23661780  0.23944769  1
  O  O361  1  0.87666692  0.25825472  0.73504615  1
  O  O362  1  0.89876804  0.75282042  0.25672008  1
  O  O363  1  0.89220160  0.75314734  0.75327490  1
  O  O364  1  0.38993318  0.48610749  0.50269715  1
  O  O365  1  0.42063438  0.54153222  0.97875191  1
  O  O366  1  0.38345108  0.99538505  0.49798297  1
  O  O367  1  0.37672036  1.00211179  0.98747157  1
  O  O368  1  0.87225348  0.48632768  0.50348878  1
  O  O369  1  0.87262756  0.50223992  0.98699555  1
  O  O370  1  0.87859025  0.99680520  0.48950727  1
  O  O371  1  0.87135708  0.98785050  0.98598229  1
  O  O372  1  0.12324894  -0.00921057  0.02227233  1
  O  O373  1  0.13030242  0.01580861  0.49976088  1
  O  O374  1  0.10712322  0.50277612  0.00158700  1
  O  O375  1  0.11790748  0.47920536  0.49711307  1
  O  O376  1  0.64341125  0.00627847  0.01488900  1
  O  O377  1  0.61169637  0.00651891  0.50549626  1
  O  O378  1  0.62819385  0.48582029  0.02073455  1
  O  O379  1  0.61499222  0.50197246  0.50721431  1
  O  O380  1  0.39740435  0.39019194  0.09805677  1
  O  O381  1  0.37617096  0.36962400  0.60744954  1
  O  O382  1  0.35818003  0.87258075  0.13058586  1
  O  O383  1  0.36086740  0.88010862  0.61896656  1
  O  O384  1  0.87233842  0.35647040  0.13153268  1
  O  O385  1  0.86716620  0.36536143  0.61822542  1
  O  O386  1  0.93933314  0.85472299  0.10758765  1
  O  O387  1  0.88689760  0.88074548  0.61164079  1
  O  O388  1  0.13415931  0.12307695  0.38698813  1
  O  O389  1  0.12357979  0.10183160  0.87155990  1
  O  O390  1  0.14339550  0.63756312  0.37911623  1
  O  O391  1  0.14242207  0.62920277  0.86257221  1
  O  O392  1  0.63012889  0.13995122  0.36307412  1
  O  O393  1  0.63416691  0.12228900  0.86964166  1
  O  O394  1  0.63203067  0.62826425  0.39197108  1
  O  O395  1  0.63650257  0.63098261  0.87227218  1
