# generated using pymatgen
data_V35Zn35O128
_symmetry_space_group_name_H-M   'P 1'
_cell_length_a   16.90672765
_cell_length_b   16.98406748
_cell_length_c   16.83671780
_cell_angle_alpha   89.92792944
_cell_angle_beta   89.96601270
_cell_angle_gamma   89.85377231
_symmetry_Int_Tables_number   1
_chemical_formula_structural   V35Zn35O128
_chemical_formula_sum   'V70 Zn70 O256'
_cell_volume   4834.55897649
_cell_formula_units_Z   2
loop_
 _symmetry_equiv_pos_site_id
 _symmetry_equiv_pos_as_xyz
  1  'x, y, z'
loop_
 _atom_site_type_symbol
 _atom_site_label
 _atom_site_symmetry_multiplicity
 _atom_site_fract_x
 _atom_site_fract_y
 _atom_site_fract_z
 _atom_site_occupancy
  V  V0  1  0.37415462  0.64644383  0.24051561  1
  V  V1  1  0.10633179  0.75040346  0.36880255  1
  V  V2  1  0.25033042  0.63295663  0.87278374  1
  V  V3  1  0.24542073  0.74636662  0.49877441  1
  V  V4  1  0.63148581  0.85908493  0.76132476  1
  V  V5  1  0.01538878  0.62234085  0.62766302  1
  V  V6  1  0.26301356  0.75380499  0.01877616  1
  V  V7  1  0.74769712  0.23558636  0.50518394  1
  V  V8  1  0.62827183  0.50873373  0.13634217  1
  V  V9  1  0.76567947  0.49870360  0.25767628  1
  V  V10  1  -0.00242445  0.37247727  0.87543501  1
  V  V11  1  0.24956801  0.62983984  0.37466436  1
  V  V12  1  0.36896609  0.38820263  0.03205975  1
  V  V13  1  0.49548743  0.73714262  0.75366949  1
  V  V14  1  0.12796856  0.87872844  0.75460123  1
  V  V15  1  0.62998800  0.62389446  -0.02808005  1
  V  V16  1  0.25294927  0.49760978  0.75333440  1
  V  V17  1  0.73918105  0.86602471  0.12599100  1
  V  V18  1  0.37778303  0.73588739  0.62943182  1
  V  V19  1  0.63383496  0.40760953  0.75021350  1
  V  V20  1  0.38631683  0.88191020  0.50122397  1
  V  V21  1  0.24782908  0.88046109  0.62512058  1
  V  V22  1  0.55280430  0.56454706  0.55672879  1
  V  V23  1  0.74583908  0.74029283  -0.01202918  1
  V  V24  1  0.25433597  0.49517871  0.24895463  1
  V  V25  1  0.64256957  0.24344946  0.87774054  1
  V  V26  1  0.37805873  0.50386728  0.87370626  1
  V  V27  1  0.50264022  0.23445688  0.75810920  1
  V  V28  1  -0.02358762  0.37243264  0.38154593  1
  V  V29  1  0.26013605  -0.00546693  0.24786851  1
  V  V30  1  0.51267278  0.76454308  0.25159741  1
  V  V31  1  0.85324695  0.62682251  0.75390007  1
  V  V32  1  0.12878016  0.36349096  0.76534956  1
  V  V33  1  -0.00158006  0.86688219  0.87665335  1
  V  V34  1  0.12828938  0.49301459  0.13103968  1
  V  V35  1  0.51885211  0.00911998  -0.00446398  1
  V  V36  1  -0.01339241  0.12773060  0.62649336  1
  V  V37  1  0.50643886  0.50150059  0.00301941  1
  V  V38  1  0.75034773  0.39752208  0.61604323  1
  V  V39  1  0.00527825  0.74515136  0.75763543  1
  V  V40  1  0.87833358  0.64147694  0.25097262  1
  V  V41  1  0.25141431  0.36654055  0.62236937  1
  V  V42  1  0.11598725  0.00385380  0.60814873  1
  V  V43  1  0.39003762  -0.00215001  0.37556746  1
  V  V44  1  0.12438201  0.63310612  -0.00103250  1
  V  V45  1  0.28405488  0.21670921  0.00812088  1
  V  V46  1  0.74195525  0.63768983  0.38094645  1
  V  V47  1  0.86332037  0.13648894  0.27347493  1
  V  V48  1  -0.00421991  0.63677399  0.13029018  1
  V  V49  1  0.74550949  0.00231955  0.75582130  1
  V  V50  1  0.63827792  0.01785473  0.12282094  1
  V  V51  1  0.23669590  0.11750653  0.38499355  1
  V  V52  1  0.87140353  0.74924019  0.61473105  1
  V  V53  1  0.02646130  0.25315654  0.24303939  1
  V  V54  1  0.35305393  0.11326146  0.75623327  1
  V  V55  1  0.13940447  -0.00366282  0.12702387  1
  V  V56  1  0.74842385  0.87205620  0.61512369  1
  V  V57  1  0.87386738  0.26752129  0.63779703  1
  V  V58  1  -0.00279215  -0.00337313  0.01275259  1
  V  V59  1  0.11694423  0.12581311  -0.01749393  1
  V  V60  1  0.86454824  0.50785453  0.87677675  1
  V  V61  1  0.87239996  0.00643469  0.87162818  1
  V  V62  1  0.37837158  0.24693952  0.62732283  1
  V  V63  1  0.50061531  0.38045506  0.87138469  1
  V  V64  1  0.49097104  0.87529030  0.88072822  1
  V  V65  1  0.87389260  0.86308252  0.00962253  1
  V  V66  1  0.76235227  0.36748892  0.11579405  1
  V  V67  1  0.38830593  0.37301184  0.48825158  1
  V  V68  1  -0.00242764  0.49628575  0.00129778  1
  V  V69  1  0.61982927  0.35789811  0.25952773  1
  Zn  Zn70  1  0.13229089  0.50094295  0.62699459  1
  Zn  Zn71  1  0.49808652  0.63766754  0.11733512  1
  Zn  Zn72  1  0.61320791  0.89036471  0.26483796  1
  Zn  Zn73  1  0.72121745  0.01089979  0.31031221  1
  Zn  Zn74  1  0.42061209  0.53594020  0.41423111  1
  Zn  Zn75  1  0.11828271  0.87268555  0.25075055  1
  Zn  Zn76  1  0.19528982  0.16863582  0.18035676  1
  Zn  Zn77  1  0.14932711  0.15922590  0.72368953  1
  Zn  Zn78  1  0.17814530  0.68833210  0.19125245  1
  Zn  Zn79  1  0.19467073  0.69345445  0.69516133  1
  Zn  Zn80  1  0.70115556  0.18621935  0.19769127  1
  Zn  Zn81  1  0.60754294  0.27515876  0.62510664  1
  Zn  Zn82  1  0.68869640  0.69165640  0.18794335  1
  Zn  Zn83  1  0.68735884  0.68907606  0.55423140  1
  Zn  Zn84  1  0.29994847  0.30349665  0.30036977  1
  Zn  Zn85  1  0.31624178  0.30534373  0.82707939  1
  Zn  Zn86  1  0.31051525  0.81904748  0.31338027  1
  Zn  Zn87  1  0.31259119  0.81810234  0.81759456  1
  Zn  Zn88  1  0.80357118  0.31210517  0.32114558  1
  Zn  Zn89  1  0.81227591  0.32253216  0.80988537  1
  Zn  Zn90  1  0.81071170  0.80935917  0.30593145  1
  Zn  Zn91  1  0.81852737  0.81034882  0.81440179  1
  Zn  Zn92  1  0.01883503  0.49450845  0.48861961  1
  Zn  Zn93  1  0.18810014  0.44137600  0.94363712  1
  Zn  Zn94  1  0.18610529  0.93000057  0.43294788  1
  Zn  Zn95  1  0.18844434  0.93299935  0.94039328  1
  Zn  Zn96  1  0.68213697  0.44557451  0.43525936  1
  Zn  Zn97  1  0.68699826  0.43226815  0.93977564  1
  Zn  Zn98  1  0.67588525  0.82904413  0.42649183  1
  Zn  Zn99  1  0.69028799  0.92971098  0.93620945  1
  Zn  Zn100  1  0.32271967  0.05714241  -0.05587468  1
  Zn  Zn101  1  0.31147647  0.06265145  0.56777413  1
  Zn  Zn102  1  0.31205620  0.56728282  0.06334806  1
  Zn  Zn103  1  0.23393077  0.48120600  0.47411281  1
  Zn  Zn104  1  0.82709201  0.05469530  0.08283120  1
  Zn  Zn105  1  0.77989085  0.08910074  0.61607411  1
  Zn  Zn106  1  0.81236617  0.56143084  0.06513829  1
  Zn  Zn107  1  0.83248326  0.55632937  0.55191071  1
  Zn  Zn108  1  0.44925216  0.45310503  0.22588547  1
  Zn  Zn109  1  0.43714931  0.44181081  0.68376279  1
  Zn  Zn110  1  0.44794135  0.95165904  0.17710036  1
  Zn  Zn111  1  0.43198353  0.92666996  0.70053780  1
  Zn  Zn112  1  0.94698012  0.42826851  0.18994189  1
  Zn  Zn113  1  0.93903489  0.44516997  0.69732723  1
  Zn  Zn114  1  0.91154868  0.95766792  0.19920420  1
  Zn  Zn115  1  0.93567493  0.93554945  0.68419422  1
  Zn  Zn116  1  0.06085642  0.07545250  0.30003884  1
  Zn  Zn117  1  0.04731975  0.05188320  0.80391100  1
  Zn  Zn118  1  0.06564382  0.55909587  0.31545469  1
  Zn  Zn119  1  0.06705902  0.55865276  0.81366866  1
  Zn  Zn120  1  0.51880427  0.11813730  0.34058658  1
  Zn  Zn121  1  0.57148134  0.06044476  0.81871954  1
  Zn  Zn122  1  0.55924509  0.57289360  0.31673510  1
  Zn  Zn123  1  0.63451594  0.62082680  0.74042516  1
  Zn  Zn124  1  0.38780508  0.21251393  0.41415232  1
  Zn  Zn125  1  0.45714842  0.18969536  1.04437194  1
  Zn  Zn126  1  0.44218771  0.70331427  0.43537342  1
  Zn  Zn127  1  0.43750210  0.68827866  0.93798843  1
  Zn  Zn128  1  0.93786350  0.19521338  0.44689999  1
  Zn  Zn129  1  0.94591683  0.18334071  0.93442513  1
  Zn  Zn130  1  0.93643363  0.65546473  0.44473853  1
  Zn  Zn131  1  0.93357512  0.68323786  0.94170270  1
  Zn  Zn132  1  0.11039490  0.28842486  0.08527409  1
  Zn  Zn133  1  0.05388039  0.32196154  0.57397742  1
  Zn  Zn134  1  0.06822188  0.81418662  0.06522091  1
  Zn  Zn135  1  0.06703186  0.79825740  0.57013382  1
  Zn  Zn136  1  0.58039771  0.31650045  0.06754831  1
  Zn  Zn137  1  0.56533317  0.29511306  0.43456356  1
  Zn  Zn138  1  0.56327663  0.80693117  0.06183998  1
  Zn  Zn139  1  0.56312023  0.81443369  0.57340244  1
  O  O140  1  0.12305424  0.10090747  0.10898289  1
  O  O141  1  0.13324163  0.10249445  0.61675960  1
  O  O142  1  0.11061037  0.61828005  0.12127512  1
  O  O143  1  0.11792492  0.62416932  0.64659304  1
  O  O144  1  0.65659356  0.11477603  0.11692258  1
  O  O145  1  0.52059777  0.07300011  0.58804579  1
  O  O146  1  0.62853158  0.61361443  0.12408615  1
  O  O147  1  0.61539706  0.62530782  0.61907792  1
  O  O148  1  0.36820110  0.34156200  0.39174735  1
  O  O149  1  0.38570686  0.38765348  0.88345091  1
  O  O150  1  0.37134476  0.88279262  0.39226200  1
  O  O151  1  0.39156643  0.88225352  0.86682833  1
  O  O152  1  0.87692293  0.38130263  0.37727096  1
  O  O153  1  0.88965908  0.39854477  0.85899885  1
  O  O154  1  0.87315963  0.86640473  0.38523786  1
  O  O155  1  0.88197761  0.87686450  0.88834050  1
  O  O156  1  0.25103517  0.00159115  0.36530402  1
  O  O157  1  0.26704583  -0.01648000  0.88462468  1
  O  O158  1  0.24155066  0.52089910  0.36002822  1
  O  O159  1  0.25908806  0.50640848  0.87315089  1
  O  O160  1  0.86348692  -0.05631060  0.38422819  1
  O  O161  1  0.76263908  -0.00558654  0.87024098  1
  O  O162  1  0.74825948  0.51286976  0.36027511  1
  O  O163  1  0.76666800  0.49740490  0.88324959  1
  O  O164  1  0.23676776  0.51491534  0.13580115  1
  O  O165  1  0.25662847  0.47845199  0.64514164  1
  O  O166  1  0.24299657  0.99442786  0.13531988  1
  O  O167  1  0.23581889  0.98485238  0.61812269  1
  O  O168  1  0.74396234  0.49887751  0.13613555  1
  O  O169  1  0.76761097  0.49666643  0.62308064  1
  O  O170  1  0.74128063  0.98124585  0.10587933  1
  O  O171  1  0.76548823  0.97662571  0.64555918  1
  O  O172  1  -0.00116664  0.35995432  0.26560989  1
  O  O173  1  0.01793019  0.38502315  0.76279749  1
  O  O174  1  -0.00435908  0.92052971  0.27676197  1
  O  O175  1  0.00296403  0.86486613  0.75729072  1
  O  O176  1  0.52214919  0.36611924  0.23870120  1
  O  O177  1  0.51073236  0.38979039  0.76060187  1
  O  O178  1  0.50087057  0.87000715  0.23859518  1
  O  O179  1  0.51403946  0.87405957  0.75883919  1
  O  O180  1  0.46159050  0.14427652  0.23598731  1
  O  O181  1  0.50352757  0.13431195  0.75635648  1
  O  O182  1  0.48528928  0.64249559  0.24873573  1
  O  O183  1  0.50604109  0.64067491  0.75658904  1
  O  O184  1  0.98935929  0.15295389  0.25688257  1
  O  O185  1  1.03316761  0.13555990  0.72748764  1
  O  O186  1  0.98936486  0.61901737  0.24163826  1
  O  O187  1  1.00093979  0.63476553  0.75165358  1
  O  O188  1  0.37714579  0.28319625  0.02138047  1
  O  O189  1  0.37807421  0.25860607  0.52323367  1
  O  O190  1  0.36347804  0.74438770  0.00462317  1
  O  O191  1  0.37001131  0.76118034  0.51181741  1
  O  O192  1  0.85947263  0.20923889  0.01859900  1
  O  O193  1  0.86046299  0.24478210  0.52318147  1
  O  O194  1  0.86399845  0.75381503  0.00126766  1
  O  O195  1  0.88483454  0.73999899  0.51720119  1
  O  O196  1  0.13016939  0.24797424  0.49848372  1
  O  O197  1  0.09429500  0.22325026  0.99343730  1
  O  O198  1  0.13916645  0.75147218  0.49290475  1
  O  O199  1  0.12823285  0.73566231  1.00354816  1
  O  O200  1  0.63821456  0.25696771  0.51828676  1
  O  O201  1  0.62212646  0.26279023  0.97469177  1
  O  O202  1  0.62177424  0.76068062  0.49494312  1
  O  O203  1  0.63647238  0.73683134  0.99746105  1
  O  O204  1  0.52550575  0.23390786  0.11535580  1
  O  O205  1  0.48749316  0.25973837  0.64905463  1
  O  O206  1  0.50490771  0.74871795  0.13868538  1
  O  O207  1  0.48589549  0.75620087  0.63835276  1
  O  O208  1  1.01146978  0.26547219  0.14316543  1
  O  O209  1  0.98199879  0.25057257  0.62900946  1
  O  O210  1  1.00299954  0.73488889  0.12283431  1
  O  O211  1  0.99078729  0.74428532  0.64009028  1
  O  O212  1  -0.00267961  0.26636397  0.37355898  1
  O  O213  1  -0.01804152  0.27482490  0.88191734  1
  O  O214  1  0.01048156  0.73173401  0.38787520  1
  O  O215  1  -0.00549793  0.75759442  0.87194246  1
  O  O216  1  0.44077413  0.22109046  0.24358483  1
  O  O217  1  0.50310958  0.26825081  0.86186747  1
  O  O218  1  0.49308519  0.75871594  0.35268256  1
  O  O219  1  0.48947023  0.76035533  0.86162383  1
  O  O220  1  0.24854634  0.11170554  0.48550414  1
  O  O221  1  0.22209211  0.12333181  0.98753153  1
  O  O222  1  0.25869611  0.63480729  0.47999474  1
  O  O223  1  0.24364677  0.63251313  0.99340496  1
  O  O224  1  0.74473333  0.13467767  0.52098329  1
  O  O225  1  0.80390533  0.15705969  1.02230244  1
  O  O226  1  0.75558485  0.62188038  0.48485442  1
  O  O227  1  0.74519061  0.63377326  1.00290653  1
  O  O228  1  0.26959993  0.40032433  0.01410501  1
  O  O229  1  0.24932429  0.36741930  0.52152915  1
  O  O230  1  0.23760438  0.84838737  -0.00276319  1
  O  O231  1  0.25622699  0.86444263  0.50822505  1
  O  O232  1  0.75216866  0.38208451  0.01550388  1
  O  O233  1  0.74568359  0.38652149  0.51431436  1
  O  O234  1  0.75567966  0.85903249  0.00293742  1
  O  O235  1  0.74641857  0.88215137  0.51792519  1
  O  O236  1  0.13533691  0.50786863  0.23721039  1
  O  O237  1  0.13907545  0.49071292  0.75072761  1
  O  O238  1  0.13064720  1.00247221  0.23562525  1
  O  O239  1  0.11608028  0.98025369  0.73601109  1
  O  O240  1  0.63377259  0.50419949  0.24104747  1
  O  O241  1  0.62786620  0.50475175  0.75469391  1
  O  O242  1  0.63082674  1.00401587  0.22684681  1
  O  O243  1  0.64017199  0.98224262  0.76036431  1
  O  O244  1  0.36795280  -0.01538148  0.25943630  1
  O  O245  1  0.37803782  0.02058979  0.71935179  1
  O  O246  1  0.35528922  0.52041596  0.24482802  1
  O  O247  1  0.36705615  0.49472089  0.76400076  1
  O  O248  1  0.83910258  -0.02723948  0.30957168  1
  O  O249  1  0.86690527  -0.01466941  0.76601144  1
  O  O250  1  0.86604741  0.50511217  0.24698347  1
  O  O251  1  0.87597324  0.52047383  0.76093582  1
  O  O252  1  0.14627586  0.28014457  0.43436632  1
  O  O253  1  0.11487629  0.38316123  0.87389823  1
  O  O254  1  0.11988527  0.85545483  0.37547924  1
  O  O255  1  0.11297657  0.88047447  0.86173001  1
  O  O256  1  0.62440631  0.37327415  0.36574562  1
  O  O257  1  0.62023805  0.37749350  0.86216473  1
  O  O258  1  0.67615604  0.91388025  0.35596409  1
  O  O259  1  0.62194323  0.86450175  0.86528690  1
  O  O260  1  0.35655226  0.14003105  0.02240891  1
  O  O261  1  0.36754360  0.14409035  0.62943789  1
  O  O262  1  0.37795158  0.62628436  0.13684760  1
  O  O263  1  0.37207000  0.64141363  0.62600367  1
  O  O264  1  0.87554039  0.06706372  0.18629902  1
  O  O265  1  0.88556164  0.12877483  0.63964983  1
  O  O266  1  0.88891051  0.61907510  0.13205947  1
  O  O267  1  0.88392411  0.63519369  0.64149704  1
  O  O268  1  0.22635447  0.24371201  0.09365578  1
  O  O269  1  0.26846294  0.26619457  0.64704874  1
  O  O270  1  0.24589321  0.74357086  0.11811040  1
  O  O271  1  0.25868258  0.75698895  0.62086403  1
  O  O272  1  0.74353105  0.27007000  0.13116319  1
  O  O273  1  0.75801415  0.27483382  0.61885462  1
  O  O274  1  0.74525844  0.75988194  0.11114244  1
  O  O275  1  0.76293401  0.75540497  0.62065189  1
  O  O276  1  0.27563815  0.21547499  0.36604542  1
  O  O277  1  0.26298725  0.25603982  0.91633290  1
  O  O278  1  0.24581976  0.74577303  0.38052211  1
  O  O279  1  0.25633004  0.73424194  0.87621623  1
  O  O280  1  0.75256831  0.25244358  0.40523966  1
  O  O281  1  0.74170857  0.26148494  0.87155038  1
  O  O282  1  0.74873234  0.74168824  0.37424250  1
  O  O283  1  0.75349861  0.74951502  0.88859288  1
  O  O284  1  -0.00254223  0.10002391  -0.00163601  1
  O  O285  1  0.00276506  0.13719576  0.52627499  1
  O  O286  1  0.00439067  0.61882291  0.01061693  1
  O  O287  1  0.02082988  0.64358193  0.53019130  1
  O  O288  1  0.50818726  0.10519253  -0.02008655  1
  O  O289  1  0.50033021  0.21092523  0.39803235  1
  O  O290  1  0.51292806  0.61901307  -0.00266977  1
  O  O291  1  0.48671157  0.61066285  0.48567669  1
  O  O292  1  0.48739141  0.37364408  0.49047635  1
  O  O293  1  0.49968524  0.39065903  0.99655694  1
  O  O294  1  0.48463469  0.87540213  0.51137537  1
  O  O295  1  0.50972762  0.87168855  0.98321087  1
  O  O296  1  1.00100738  0.37414564  0.48835743  1
  O  O297  1  1.00442924  0.39246914  0.98636964  1
  O  O298  1  0.99502968  0.86658911  0.48776269  1
  O  O299  1  0.99406881  0.87604259  0.99503468  1
  O  O300  1  0.48457871  0.49351596  0.33277144  1
  O  O301  1  0.49291763  0.49652569  0.88814222  1
  O  O302  1  0.48887571  1.00616494  0.36179968  1
  O  O303  1  0.51242719  0.98392859  0.88338614  1
  O  O304  1  1.02055615  0.47106525  0.36829924  1
  O  O305  1  0.99444683  0.50119261  0.88414399  1
  O  O306  1  1.00204523  0.97588890  0.33344873  1
  O  O307  1  0.98746744  0.98297604  0.87830385  1
  O  O308  1  -0.00380311  -0.01086520  0.11246528  1
  O  O309  1  0.00429180  0.01179902  0.62973088  1
  O  O310  1  0.01049234  0.50390357  0.12106179  1
  O  O311  1  0.00219777  0.51709548  0.63148214  1
  O  O312  1  0.52511887  0.00579407  0.10891721  1
  O  O313  1  0.53847878  0.00841924  0.61739663  1
  O  O314  1  0.51752986  0.50573585  0.12062176  1
  O  O315  1  0.49797356  0.50875830  0.61869181  1
  O  O316  1  0.25711450  0.39605389  0.25500601  1
  O  O317  1  0.24297204  0.37982704  0.76391735  1
  O  O318  1  0.23958631  0.89059376  0.25799422  1
  O  O319  1  0.23423158  0.86565067  0.74330982  1
  O  O320  1  0.74311907  0.39095685  0.25067564  1
  O  O321  1  0.73723555  0.38782176  0.74772108  1
  O  O322  1  0.75465702  0.86799761  0.22611802  1
  O  O323  1  0.73997021  0.86848815  0.75337104  1
  O  O324  1  0.25126957  0.10135330  0.25533495  1
  O  O325  1  0.25336852  0.12471299  0.74976326  1
  O  O326  1  0.25897485  0.63285743  0.25653883  1
  O  O327  1  0.24610617  0.61568591  0.76578285  1
  O  O328  1  0.75494061  0.11694988  0.27577671  1
  O  O329  1  0.74483211  0.09815263  0.73493773  1
  O  O330  1  0.76233775  0.61934758  0.24918626  1
  O  O331  1  0.75548223  0.63262785  0.74685039  1
  O  O332  1  0.36709429  0.09690721  0.38280715  1
  O  O333  1  0.37491343  0.11185495  0.85398157  1
  O  O334  1  0.36398483  0.63266397  0.36179250  1
  O  O335  1  0.36179418  0.61370892  0.88408063  1
  O  O336  1  0.88749219  0.12220824  0.37133866  1
  O  O337  1  0.88508496  0.10444982  0.87374734  1
  O  O338  1  0.86323038  0.63297399  0.35526997  1
  O  O339  1  0.87311222  0.62016239  0.86492944  1
  O  O340  1  0.12910481  0.39541839  0.11765335  1
  O  O341  1  0.13713019  0.36899186  0.64441039  1
  O  O342  1  0.11539088  0.89029193  0.13209042  1
  O  O343  1  0.12720291  0.87632198  0.63230020  1
  O  O344  1  0.63923427  0.39114365  0.13602152  1
  O  O345  1  0.63852436  0.38889586  0.64056441  1
  O  O346  1  0.63512667  0.87849827  0.12285914  1
  O  O347  1  0.64194448  0.86929917  0.64101883  1
  O  O348  1  0.12774688  0.24203991  0.24508162  1
  O  O349  1  0.13407221  0.26579051  0.76571051  1
  O  O350  1  0.11419645  0.75356693  0.26154338  1
  O  O351  1  0.11368633  0.76321524  0.74627161  1
  O  O352  1  0.63431600  0.25943413  0.25720355  1
  O  O353  1  0.60703333  0.26276249  0.74915535  1
  O  O354  1  0.61700997  0.75843174  0.25219539  1
  O  O355  1  0.60872684  0.75592467  0.74762986  1
  O  O356  1  0.37010552  0.24044129  0.21396035  1
  O  O357  1  0.38346023  0.23956321  0.75255641  1
  O  O358  1  0.37338127  0.74875940  0.24548496  1
  O  O359  1  0.38147918  0.75665856  0.73990776  1
  O  O360  1  0.85601447  0.23504359  0.25232781  1
  O  O361  1  0.86313515  0.25014584  0.73696355  1
  O  O362  1  0.87619079  0.73966856  0.24015442  1
  O  O363  1  0.88305640  0.73762869  0.75077806  1
  O  O364  1  0.35355786  0.47398797  0.48355869  1
  O  O365  1  0.38815141  0.50153734  0.99854962  1
  O  O366  1  0.37432414  0.98836768  0.49494123  1
  O  O367  1  0.40436038  0.98356972  1.01543409  1
  O  O368  1  0.91712061  0.54657172  0.48200511  1
  O  O369  1  0.88539203  0.51348212  0.98715447  1
  O  O370  1  0.95764835  0.92588370  0.50991985  1
  O  O371  1  0.88293401  0.98872401  0.99239730  1
  O  O372  1  0.11002894  -0.00627096  0.00614980  1
  O  O373  1  0.11625651  -0.01650612  0.50978488  1
  O  O374  1  0.11933837  0.51308964  0.01124188  1
  O  O375  1  0.13096281  0.49699967  0.51411484  1
  O  O376  1  0.62505013  -0.00416686  0.00240618  1
  O  O377  1  0.61753671  0.05358495  0.46883148  1
  O  O378  1  0.62319451  0.50858357  0.00636921  1
  O  O379  1  0.61291545  0.50726164  0.50050512  1
  O  O380  1  0.38613358  0.40339040  0.12848555  1
  O  O381  1  0.36911099  0.37019825  0.62058250  1
  O  O382  1  0.38310430  0.93644136  0.07545869  1
  O  O383  1  0.36433230  0.87624183  0.61813166  1
  O  O384  1  0.86144711  0.38179990  0.13231532  1
  O  O385  1  0.86719878  0.37562440  0.63782814  1
  O  O386  1  0.86451363  0.88412344  0.11392957  1
  O  O387  1  0.86740516  0.85630163  0.63392596  1
  O  O388  1  0.13673408  0.11868813  0.37262552  1
  O  O389  1  0.10699288  0.10982350  0.88263041  1
  O  O390  1  0.13906323  0.63871504  0.36553853  1
  O  O391  1  0.14049639  0.61678321  0.88613211  1
  O  O392  1  0.63244139  0.08196559  0.40182709  1
  O  O393  1  0.63221340  0.14392083  0.86538433  1
  O  O394  1  0.64317447  0.62797263  0.36532944  1
  O  O395  1  0.63112712  0.61964368  0.87416960  1
