# generated using pymatgen
data_V35Zn35O128
_symmetry_space_group_name_H-M   'P 1'
_cell_length_a   16.81812049
_cell_length_b   16.85254829
_cell_length_c   16.80525388
_cell_angle_alpha   90.02138404
_cell_angle_beta   90.01965568
_cell_angle_gamma   90.13104852
_symmetry_Int_Tables_number   1
_chemical_formula_structural   V35Zn35O128
_chemical_formula_sum   'V70 Zn70 O256'
_cell_volume   4763.06957984
_cell_formula_units_Z   2
loop_
 _symmetry_equiv_pos_site_id
 _symmetry_equiv_pos_as_xyz
  1  'x, y, z'
loop_
 _atom_site_type_symbol
 _atom_site_label
 _atom_site_symmetry_multiplicity
 _atom_site_fract_x
 _atom_site_fract_y
 _atom_site_fract_z
 _atom_site_occupancy
  V  V0  1  0.38366881  0.37237351  0.00458777  1
  V  V1  1  0.75211636  0.64294261  0.37622673  1
  V  V2  1  0.38392543  0.61353310  0.25560598  1
  V  V3  1  0.75732575  0.11841535  0.36300689  1
  V  V4  1  0.24418378  0.37636838  0.14092577  1
  V  V5  1  0.74840207  0.50415249  0.73136493  1
  V  V6  1  0.65809520  0.87984760  0.22595201  1
  V  V7  1  0.74066330  0.38914012  0.13967881  1
  V  V8  1  0.38170552  0.22434734  0.12820342  1
  V  V9  1  0.23847084  0.25304777  -0.00359582  1
  V  V10  1  0.75460632  0.25683947  0.50975617  1
  V  V11  1  0.37178367  0.00170910  0.87842514  1
  V  V12  1  0.87430626  -0.00834816  0.85624297  1
  V  V13  1  0.11506740  0.12188326  0.49351132  1
  V  V14  1  -0.00243893  0.38861989  0.87256731  1
  V  V15  1  0.75743155  0.86560097  0.61757234  1
  V  V16  1  0.62805317  0.37315810  0.73072553  1
  V  V17  1  0.87630471  0.15065811  0.74621459  1
  V  V18  1  0.38590506  0.75481758  0.13594606  1
  V  V19  1  0.37700480  0.25398372  0.61034274  1
  V  V20  1  0.25652401  -0.00103709  0.25952171  1
  V  V21  1  0.62849421  0.87530600  0.75480662  1
  V  V22  1  0.12886288  0.72684913  0.86390615  1
  V  V23  1  0.50882851  0.61304052  0.11951198  1
  V  V24  1  0.00007131  0.25790310  0.25276252  1
  V  V25  1  0.87930602  -0.00177385  0.38201166  1
  V  V26  1  0.26072839  0.75435817  0.50845156  1
  V  V27  1  0.36508753  0.50529692  0.87864947  1
  V  V28  1  0.62901773  0.00935545  0.63861151  1
  V  V29  1  0.12700454  0.63366431  0.49636385  1
  V  V30  1  0.87400293  0.87723700  0.00683120  1
  V  V31  1  0.50136915  0.38011545  0.86641869  1
  V  V32  1  0.61569255  0.24609215  0.35662200  1
  V  V33  1  0.00013687  0.14195788  0.62989235  1
  V  V34  1  0.87762003  0.39708523  0.00466054  1
  V  V35  1  -0.00443278  0.75156602  0.23713098  1
  V  V36  1  0.76042871  0.61118600  0.87778070  1
  V  V37  1  0.38921092  0.13408881  0.74480124  1
  V  V38  1  0.87157693  0.23999829  0.12944413  1
  V  V39  1  0.25680425  0.62278431  0.36965972  1
  V  V40  1  0.26022884  0.11987540  0.38029577  1
  V  V41  1  0.12059270  0.49623053  0.61935431  1
  V  V42  1  0.24225455  0.73847810  0.00043453  1
  V  V43  1  0.23825400  0.13160221  0.86773437  1
  V  V44  1  0.75248624  0.74911238  0.00393729  1
  V  V45  1  0.37857424  0.87201214  0.52057071  1
  V  V46  1  0.38375450  0.63427377  0.73625829  1
  V  V47  1  0.25382272  0.49598607  0.73456708  1
  V  V48  1  0.12761975  0.26001031  0.37047590  1
  V  V49  1  0.11771854  0.87477671  0.27367777  1
  V  V50  1  0.62891930  0.12563805  0.50291154  1
  V  V51  1  0.24566051  -0.01044363  0.74234004  1
  V  V52  1  0.49428045  0.00659576  0.50451049  1
  V  V53  1  0.00902092  0.48974795  0.47863577  1
  V  V54  1  0.49474350  0.87420491  0.36805296  1
  V  V55  1  0.02300930  0.11448564  0.12417909  1
  V  V56  1  0.61865083  0.73390270  0.87652208  1
  V  V57  1  0.37973548  0.87831921  0.00011803  1
  V  V58  1  0.10284641  0.53611002  0.12087751  1
  V  V59  1  0.01563600  0.87833325  0.86072543  1
  V  V60  1  0.37255655  0.38825169  0.49574850  1
  V  V61  1  0.62008777  0.25018788  0.87950985  1
  V  V62  1  0.75508134  0.12940458  0.87562532  1
  V  V63  1  0.49885672  0.39155561  0.36804597  1
  V  V64  1  0.62314596  0.75404492  0.38549146  1
  V  V65  1  0.23113328  0.87657024  0.12237484  1
  V  V66  1  0.49571304  0.87261724  0.86769477  1
  V  V67  1  0.11774297  -0.01199100  0.62611415  1
  V  V68  1  -0.01092260  0.87265140  0.40354812  1
  V  V69  1  0.85850553  0.49041663  0.36681853  1
  Zn  Zn70  1  0.12257132  0.36886210  0.74511567  1
  Zn  Zn71  1  0.52264751  0.11231720  0.07260820  1
  Zn  Zn72  1  0.75137487  0.25347479  0.00281543  1
  Zn  Zn73  1  0.11050966  0.25019535  0.86015281  1
  Zn  Zn74  1  0.87494567  0.62265435  0.24491151  1
  Zn  Zn75  1  0.88242004  0.36908131  0.51001782  1
  Zn  Zn76  1  0.19246807  0.19018838  0.19076227  1
  Zn  Zn77  1  0.19130903  0.19124593  0.68233212  1
  Zn  Zn78  1  0.18656730  0.69315243  0.19329976  1
  Zn  Zn79  1  0.19964622  0.67609693  0.68686335  1
  Zn  Zn80  1  0.69547466  0.18176237  0.18265250  1
  Zn  Zn81  1  0.68648932  0.19277883  0.69429731  1
  Zn  Zn82  1  0.68623355  0.69845867  0.20010248  1
  Zn  Zn83  1  0.68231450  0.68588552  0.68951359  1
  Zn  Zn84  1  0.32418694  0.30049459  0.31396959  1
  Zn  Zn85  1  0.31103645  0.31393620  0.80579765  1
  Zn  Zn86  1  0.31047430  0.81183434  0.32179513  1
  Zn  Zn87  1  0.30562848  0.80716145  0.81119553  1
  Zn  Zn88  1  0.80971062  0.30809366  0.31689089  1
  Zn  Zn89  1  0.81230557  0.32780734  0.81328753  1
  Zn  Zn90  1  0.81677605  0.81735123  0.30976392  1
  Zn  Zn91  1  0.80166538  0.80402637  0.79753051  1
  Zn  Zn92  1  0.20103148  0.44078389  0.43104326  1
  Zn  Zn93  1  0.17901302  0.44148698  0.94464291  1
  Zn  Zn94  1  0.18886073  0.93820627  0.44698751  1
  Zn  Zn95  1  0.18652199  0.94403900  0.94102521  1
  Zn  Zn96  1  0.67600492  0.43474943  0.43476550  1
  Zn  Zn97  1  0.68606499  0.43264840  0.94954153  1
  Zn  Zn98  1  0.68848561  0.94145072  0.43849381  1
  Zn  Zn99  1  0.69718629  0.94227959  0.93661261  1
  Zn  Zn100  1  0.27513186  0.05763152  0.05667339  1
  Zn  Zn101  1  0.30869444  0.06768768  0.56536119  1
  Zn  Zn102  1  0.31501787  0.55878165  0.06850668  1
  Zn  Zn103  1  0.31935724  0.56502647  0.55930438  1
  Zn  Zn104  1  0.86792600  0.07941180  0.03531950  1
  Zn  Zn105  1  0.81309539  0.06024810  0.56567660  1
  Zn  Zn106  1  0.68128588  0.56332517  0.06511223  1
  Zn  Zn107  1  0.82012634  0.56572251  0.54961288  1
  Zn  Zn108  1  0.43847051  0.43312723  0.18881330  1
  Zn  Zn109  1  0.44169655  0.43987032  0.68036040  1
  Zn  Zn110  1  0.43456224  0.94287915  0.18943731  1
  Zn  Zn111  1  0.44259577  0.94725869  0.69296823  1
  Zn  Zn112  1  0.93916842  0.43808901  0.18372629  1
  Zn  Zn113  1  0.93853777  0.46792332  0.69297805  1
  Zn  Zn114  1  0.93169622  0.94583096  0.19325498  1
  Zn  Zn115  1  0.93869095  0.93814346  0.68225819  1
  Zn  Zn116  1  0.05431257  0.05697499  0.30432267  1
  Zn  Zn117  1  0.05630525  0.06116661  0.80760779  1
  Zn  Zn118  1  0.07995647  0.56038156  0.29684500  1
  Zn  Zn119  1  0.05296319  0.55601005  0.81219512  1
  Zn  Zn120  1  0.57073361  0.04895757  0.31463811  1
  Zn  Zn121  1  0.54658939  0.07880435  0.86179870  1
  Zn  Zn122  1  0.56999088  0.56627453  0.30625111  1
  Zn  Zn123  1  0.56000311  0.55326721  0.80409166  1
  Zn  Zn124  1  0.43871123  0.18842753  0.43792377  1
  Zn  Zn125  1  0.42987835  0.19085237  0.93432412  1
  Zn  Zn126  1  0.44265929  0.69031791  0.44206610  1
  Zn  Zn127  1  0.43491104  0.68857087  0.94127673  1
  Zn  Zn128  1  0.93777959  0.18805523  0.43715651  1
  Zn  Zn129  1  0.94711854  0.19892957  0.94439744  1
  Zn  Zn130  1  0.96766067  0.66414147  0.39246795  1
  Zn  Zn131  1  0.91993441  0.71292443  0.88065676  1
  Zn  Zn132  1  0.05678343  0.31717282  0.06673875  1
  Zn  Zn133  1  0.07407303  0.31284212  0.55580984  1
  Zn  Zn134  1  0.05121245  0.80742207  0.04737231  1
  Zn  Zn135  1  0.06040189  0.79922294  0.57461001  1
  Zn  Zn136  1  0.56196724  0.30649614  0.06792995  1
  Zn  Zn137  1  0.54908301  0.30554738  0.55639037  1
  Zn  Zn138  1  0.56474733  0.81365593  0.05875823  1
  Zn  Zn139  1  0.58989462  0.83510031  0.54376679  1
  O  O140  1  0.12261801  0.13207866  0.11803764  1
  O  O141  1  0.11590793  0.12533734  0.61432310  1
  O  O142  1  0.11784859  0.63867056  0.12233220  1
  O  O143  1  0.13950073  0.61274301  0.60385594  1
  O  O144  1  0.63932203  0.11003235  0.10643373  1
  O  O145  1  0.63082474  0.11549340  0.62282585  1
  O  O146  1  0.61335657  0.63144653  0.13449581  1
  O  O147  1  0.60008294  0.62606017  0.61840685  1
  O  O148  1  0.38670164  0.36759248  0.38259466  1
  O  O149  1  0.38603325  0.37517240  0.87978134  1
  O  O150  1  0.39084454  0.86751681  0.38952672  1
  O  O151  1  0.37555976  0.87824501  0.87980075  1
  O  O152  1  0.86825064  0.38776981  0.38397091  1
  O  O153  1  0.88269475  0.37542184  0.89215747  1
  O  O154  1  0.87995978  0.88376925  0.38622544  1
  O  O155  1  0.87242821  0.88773017  0.86154286  1
  O  O156  1  0.24394522  0.00639358  0.37069465  1
  O  O157  1  0.25260519  0.01092171  0.86267130  1
  O  O158  1  0.26103220  0.52227858  0.37719123  1
  O  O159  1  0.26226894  0.49452738  0.87119105  1
  O  O160  1  0.75813112  0.01137964  0.38281139  1
  O  O161  1  0.76087516  0.01778067  0.86977466  1
  O  O162  1  0.75745578  0.50264805  0.37083656  1
  O  O163  1  0.73637557  0.51195798  0.87881174  1
  O  O164  1  0.27045164  0.47404665  0.12711250  1
  O  O165  1  0.24890845  0.49822181  0.62961098  1
  O  O166  1  0.25657563  0.97872662  0.14533294  1
  O  O167  1  0.23938741  1.00419580  0.63543198  1
  O  O168  1  0.74685821  0.49069187  0.12698732  1
  O  O169  1  0.75295256  0.52176638  0.63191014  1
  O  O170  1  0.68085922  1.04399986  0.07311187  1
  O  O171  1  0.73319889  0.99114650  0.62390185  1
  O  O172  1  0.00693434  0.35703114  0.23994266  1
  O  O173  1  -0.00173246  0.39263077  0.76685859  1
  O  O174  1  0.00982542  0.87049272  0.25176296  1
  O  O175  1  0.00114036  0.87598949  0.76078460  1
  O  O176  1  0.49055218  0.37064844  0.26709162  1
  O  O177  1  0.50920751  0.37529057  0.76077317  1
  O  O178  1  0.49670776  0.88334429  0.26813965  1
  O  O179  1  0.50651427  0.87442271  0.75908582  1
  O  O180  1  0.49702342  0.08878391  0.23190806  1
  O  O181  1  0.48627149  0.11510682  0.76388598  1
  O  O182  1  0.48926934  0.62767305  0.24210115  1
  O  O183  1  0.48366379  0.61811922  0.75254667  1
  O  O184  1  1.00702436  0.13625451  0.23475030  1
  O  O185  1  0.99274892  0.13261069  0.73974126  1
  O  O186  1  1.00189596  0.64677135  0.27224180  1
  O  O187  1  0.97522493  0.56960365  0.73393650  1
  O  O188  1  0.36591285  0.25971055  -0.00035769  1
  O  O189  1  0.37259926  0.24883399  0.50605833  1
  O  O190  1  0.36411362  0.76040476  0.00759071  1
  O  O191  1  0.37272251  0.75992251  0.50872066  1
  O  O192  1  0.87594684  0.25331678  0.02182918  1
  O  O193  1  0.86108258  0.25271325  0.49389029  1
  O  O194  1  0.86087476  0.76117060  -0.01907039  1
  O  O195  1  0.92626193  0.70141704  0.58643637  1
  O  O196  1  0.12270183  0.23421291  0.48374202  1
  O  O197  1  0.13787744  0.25650021  0.99732915  1
  O  O198  1  0.13486373  0.73899859  0.50441440  1
  O  O199  1  0.13764636  0.75075710  0.99487060  1
  O  O200  1  0.62812630  0.23600352  0.49405502  1
  O  O201  1  0.63029069  0.25039538  0.98419129  1
  O  O202  1  0.62662077  0.74515962  0.48735084  1
  O  O203  1  0.63600596  0.76250669  0.98138327  1
  O  O204  1  0.48821344  0.22477380  0.10645803  1
  O  O205  1  0.48110864  0.24209876  0.62451486  1
  O  O206  1  0.48781346  0.74776553  0.12265261  1
  O  O207  1  0.54270073  0.66680876  0.58187424  1
  O  O208  1  0.99194023  0.24072441  0.13405534  1
  O  O209  1  1.00303423  0.24054459  0.61613319  1
  O  O210  1  1.00240931  0.75453662  0.13701483  1
  O  O211  1  0.98455176  0.73035072  0.63457097  1
  O  O212  1  0.01073153  0.24509338  0.36401331  1
  O  O213  1  0.00122337  0.27074394  0.88184193  1
  O  O214  1  -0.00682563  0.77345278  0.37063829  1
  O  O215  1  0.02504686  0.76221527  0.87753189  1
  O  O216  1  0.51516097  0.23004899  0.36689401  1
  O  O217  1  0.51308997  0.25854775  0.87528160  1
  O  O218  1  0.51160395  0.76033972  0.37839217  1
  O  O219  1  0.50992516  0.76047399  0.88374956  1
  O  O220  1  0.23818703  0.11780534  0.48685388  1
  O  O221  1  0.25618401  0.14394663  0.97803084  1
  O  O222  1  0.25340977  0.63562033  0.49146988  1
  O  O223  1  0.25948052  0.64096431  1.01059611  1
  O  O224  1  0.74190511  0.13145589  0.49635674  1
  O  O225  1  0.77141264  0.13203538  0.97818648  1
  O  O226  1  0.74931338  0.61916983  0.47616252  1
  O  O227  1  0.74142219  0.63746867  0.98674526  1
  O  O228  1  0.26130934  0.36273822  -0.00105500  1
  O  O229  1  0.27149086  0.37367643  0.48999708  1
  O  O230  1  0.25583870  0.86717946  0.01328283  1
  O  O231  1  0.26655236  0.86701344  0.49705197  1
  O  O232  1  0.76248654  0.37183016  0.01025967  1
  O  O233  1  0.74182241  0.35753897  0.49268535  1
  O  O234  1  0.76011903  0.86330685  -0.00948107  1
  O  O235  1  0.73440383  0.87157528  0.51789109  1
  O  O236  1  0.13837348  0.50908261  0.21665219  1
  O  O237  1  0.13724088  0.50675130  0.73204233  1
  O  O238  1  0.13135259  0.97969408  0.25535843  1
  O  O239  1  0.13622897  1.00679476  0.73945135  1
  O  O240  1  0.63681821  0.48830242  0.26321523  1
  O  O241  1  0.62939340  0.48329689  0.74717874  1
  O  O242  1  0.63661633  0.97237238  0.26360795  1
  O  O243  1  0.61620270  0.99350286  0.74053225  1
  O  O244  1  0.35556428  -0.01342486  0.26272286  1
  O  O245  1  0.36229221  0.00801958  0.75442992  1
  O  O246  1  0.37498497  0.51584094  0.24838398  1
  O  O247  1  0.36875000  0.49794662  0.75772519  1
  O  O248  1  0.87635605  -0.00231277  0.27656131  1
  O  O249  1  0.87721398  0.01100605  0.75545799  1
  O  O250  1  0.88851516  0.50342112  0.26665768  1
  O  O251  1  0.84286425  0.48909982  0.76113195  1
  O  O252  1  0.13721975  0.35796821  0.37940597  1
  O  O253  1  0.11385864  0.37693125  0.87462777  1
  O  O254  1  0.11125497  0.87866284  0.37896311  1
  O  O255  1  0.11686920  0.88548207  0.87447497  1
  O  O256  1  0.61058845  0.35393910  0.37549060  1
  O  O257  1  0.61445251  0.36760766  0.87527373  1
  O  O258  1  0.61274979  0.86757892  0.38911846  1
  O  O259  1  0.61622054  0.88626563  0.86616584  1
  O  O260  1  0.35684567  0.12763245  0.10863169  1
  O  O261  1  0.37633281  0.12661283  0.63855811  1
  O  O262  1  0.37810605  0.63785114  0.13763634  1
  O  O263  1  0.37706517  0.62730446  0.63471896  1
  O  O264  1  0.86247688  0.13831266  0.13452827  1
  O  O265  1  0.88761771  0.12358839  0.63512876  1
  O  O266  1  0.86848839  0.62919850  0.11458525  1
  O  O267  1  0.88160845  0.64631093  0.62078324  1
  O  O268  1  0.26034439  0.25318685  0.11097105  1
  O  O269  1  0.27482112  0.24603641  0.63137014  1
  O  O270  1  0.25795831  0.76325851  0.12076955  1
  O  O271  1  0.24781677  0.74703083  0.60834857  1
  O  O272  1  0.76175085  0.25730470  0.12775377  1
  O  O273  1  0.74567760  0.24559598  0.60935994  1
  O  O274  1  0.74533839  0.74268409  0.10305579  1
  O  O275  1  0.74493919  0.76547467  0.63827187  1
  O  O276  1  0.23609897  0.22755450  0.36231727  1
  O  O277  1  0.24650947  0.24441743  0.87740738  1
  O  O278  1  0.25607702  0.74145413  0.39408407  1
  O  O279  1  0.23959355  0.75254243  0.89067495  1
  O  O280  1  0.73900756  0.23512135  0.38096978  1
  O  O281  1  0.74515037  0.24659222  0.87450834  1
  O  O282  1  0.74750056  0.74942762  0.37993147  1
  O  O283  1  0.73438815  0.73417809  0.87336776  1
  O  O284  1  -0.02002762  0.12169813  0.02272999  1
  O  O285  1  0.00847400  0.12382360  0.50943824  1
  O  O286  1  -0.07350809  0.63660364  0.07026052  1
  O  O287  1  0.02295539  0.61912213  0.48468183  1
  O  O288  1  0.50097935  0.11038927  -0.03576957  1
  O  O289  1  0.50731827  0.11079317  0.49551867  1
  O  O290  1  0.49262455  0.62961410  0.02065254  1
  O  O291  1  0.50690536  0.62548140  0.52343343  1
  O  O292  1  0.49035782  0.36674578  0.48088406  1
  O  O293  1  0.48781684  0.36732898  0.99201623  1
  O  O294  1  0.49095784  0.88019676  0.50182383  1
  O  O295  1  0.48664061  0.87453536  0.99068331  1
  O  O296  1  1.00652536  0.38697458  0.49238316  1
  O  O297  1  0.98524988  0.37812579  1.00361235  1
  O  O298  1  0.99646508  0.86520483  0.50234439  1
  O  O299  1  0.98020566  0.86735574  0.97721748  1
  O  O300  1  0.50539471  0.49138110  0.37368557  1
  O  O301  1  0.48938130  0.48418599  0.87378219  1
  O  O302  1  0.50734239  0.98519957  0.39559210  1
  O  O303  1  0.48015603  0.98457387  0.86905832  1
  O  O304  1  1.01740854  0.50057804  0.37752996  1
  O  O305  1  1.00609425  0.48817231  0.89390157  1
  O  O306  1  0.99269584  0.98587705  0.37981244  1
  O  O307  1  0.98752334  0.99095095  0.87077138  1
  O  O308  1  0.00468189  0.01489853  0.13647011  1
  O  O309  1  0.01515396  0.01255129  0.63451441  1
  O  O310  1  0.00169657  0.51468074  0.12734756  1
  O  O311  1  0.01879666  0.50713653  0.60072321  1
  O  O312  1  0.49842477  0.03936662  0.16499909  1
  O  O313  1  0.51434330  -0.00454058  0.61372290  1
  O  O314  1  0.49530715  0.51311301  0.12762434  1
  O  O315  1  0.51620992  0.49942623  0.62173570  1
  O  O316  1  0.25974806  0.35908623  0.23925591  1
  O  O317  1  0.24692782  0.39227097  0.75361887  1
  O  O318  1  0.23472369  0.87446795  0.24998459  1
  O  O319  1  0.25166491  0.89093658  0.75364908  1
  O  O320  1  0.75681789  0.37255106  0.23939227  1
  O  O321  1  0.73560834  0.38515136  0.74595746  1
  O  O322  1  0.76031302  0.87427179  0.22845434  1
  O  O323  1  0.73259440  0.88155190  0.74931029  1
  O  O324  1  0.24113386  0.10545393  0.25964771  1
  O  O325  1  0.25775798  0.12113712  0.75864862  1
  O  O326  1  0.26479652  0.64026386  0.26265199  1
  O  O327  1  0.26687235  0.60520825  0.75072314  1
  O  O328  1  0.74761502  0.11928708  0.26414220  1
  O  O329  1  0.76853958  0.13474193  0.75581465  1
  O  O330  1  0.75910893  0.63574725  0.26292329  1
  O  O331  1  0.73268816  0.61218613  0.76434493  1
  O  O332  1  0.35920312  0.12541452  0.37993992  1
  O  O333  1  0.36270879  0.11797346  0.86394813  1
  O  O334  1  0.37636481  0.63501954  0.36398797  1
  O  O335  1  0.38012524  0.60657372  0.87755652  1
  O  O336  1  0.86432698  0.11997664  0.37706812  1
  O  O337  1  0.87529813  0.12492087  0.86056914  1
  O  O338  1  0.86436208  0.61748588  0.37229887  1
  O  O339  1  0.86030256  0.61390844  0.87973882  1
  O  O340  1  0.14423130  0.36482947  0.12521838  1
  O  O341  1  0.12549210  0.39121158  0.62203009  1
  O  O342  1  0.13161040  0.87063036  0.12113734  1
  O  O343  1  0.11656237  0.88822122  0.62194641  1
  O  O344  1  0.64165609  0.36436751  0.12146106  1
  O  O345  1  0.61747893  0.36317529  0.63245417  1
  O  O346  1  0.62350979  0.87829421  0.12918767  1
  O  O347  1  0.62652688  0.88201217  0.64044147  1
  O  O348  1  0.11788609  0.24526371  0.26224025  1
  O  O349  1  0.12662885  0.25557102  0.74650043  1
  O  O350  1  0.11637659  0.76770528  0.25303690  1
  O  O351  1  0.14261043  0.74025208  0.76403288  1
  O  O352  1  0.62676871  0.23672379  0.25753443  1
  O  O353  1  0.63041647  0.26622723  0.76305025  1
  O  O354  1  0.63421415  0.78001597  0.26611688  1
  O  O355  1  0.62286340  0.76442298  0.76627140  1
  O  O356  1  0.37311829  0.23595249  0.22774491  1
  O  O357  1  0.37917978  0.23724800  0.75294066  1
  O  O358  1  0.37362597  0.75751224  0.23697353  1
  O  O359  1  0.36936604  0.73267554  0.75855039  1
  O  O360  1  0.88835835  0.25427371  0.24428898  1
  O  O361  1  0.87675065  0.24935910  0.74992171  1
  O  O362  1  0.89143397  0.75217444  0.24849846  1
  O  O363  1  0.88799731  0.74158723  0.77505261  1
  O  O364  1  0.38120841  0.48886141  0.50158431  1
  O  O365  1  0.36929700  0.48291562  0.98907886  1
  O  O366  1  0.38660082  0.99175519  0.51072491  1
  O  O367  1  0.35693404  0.98879854  0.98788388  1
  O  O368  1  0.89784760  0.50857601  0.47904369  1
  O  O369  1  0.86952525  0.49248268  1.00753293  1
  O  O370  1  0.87591544  1.00882443  0.48685657  1
  O  O371  1  0.86539983  0.98215469  0.97968758  1
  O  O372  1  0.17345725  0.01531909  0.02262868  1
  O  O373  1  0.12946104  0.01031015  0.51627998  1
  O  O374  1  0.14188838  0.50344165  0.03006539  1
  O  O375  1  0.12695003  0.50434641  0.50011494  1
  O  O376  1  0.63588076  0.00997725  0.01648792  1
  O  O377  1  0.61734019  0.00792980  0.51132138  1
  O  O378  1  0.61382633  0.50047575  -0.00001272  1
  O  O379  1  0.62486709  0.51786125  0.48867080  1
  O  O380  1  0.37800097  0.35986168  0.11281003  1
  O  O381  1  0.38381221  0.36585788  0.60953557  1
  O  O382  1  0.37786161  0.86854775  0.11900447  1
  O  O383  1  0.38044714  0.87663956  0.61977555  1
  O  O384  1  0.86709154  0.37106841  0.12039281  1
  O  O385  1  0.88233719  0.40886905  0.61521221  1
  O  O386  1  0.88349168  0.88329394  0.10564527  1
  O  O387  1  0.85711152  0.88273313  0.62812483  1
  O  O388  1  0.12121630  0.11791043  0.38707990  1
  O  O389  1  0.13527315  0.12503254  0.86741868  1
  O  O390  1  0.14539374  0.62347992  0.38380812  1
  O  O391  1  0.11865002  0.62819655  0.87373524  1
  O  O392  1  0.63524316  0.12431631  0.38255716  1
  O  O393  1  0.64409651  0.13885689  0.86254762  1
  O  O394  1  0.63554903  0.64713528  0.36067906  1
  O  O395  1  0.61164021  0.63432718  0.87479708  1
