# generated using pymatgen
data_V35Zn35O128
_symmetry_space_group_name_H-M   'P 1'
_cell_length_a   16.88087499
_cell_length_b   16.82790804
_cell_length_c   17.03320764
_cell_angle_alpha   90.38061566
_cell_angle_beta   89.41322570
_cell_angle_gamma   89.98789125
_symmetry_Int_Tables_number   1
_chemical_formula_structural   V35Zn35O128
_chemical_formula_sum   'V70 Zn70 O256'
_cell_volume   4838.25940837
_cell_formula_units_Z   2
loop_
 _symmetry_equiv_pos_site_id
 _symmetry_equiv_pos_as_xyz
  1  'x, y, z'
loop_
 _atom_site_type_symbol
 _atom_site_label
 _atom_site_symmetry_multiplicity
 _atom_site_fract_x
 _atom_site_fract_y
 _atom_site_fract_z
 _atom_site_occupancy
  V  V0  1  0.62349049  0.74859094  0.38248006  1
  V  V1  1  0.37813694  0.87675238  0.51010578  1
  V  V2  1  0.49447961  0.48754644  0.49755685  1
  V  V3  1  0.23903459  -0.01008466  0.25054430  1
  V  V4  1  0.72975564  0.50037084  0.74491891  1
  V  V5  1  0.25364248  0.74825372  0.49871802  1
  V  V6  1  0.74821332  0.24200175  0.49979182  1
  V  V7  1  0.87595483  0.86957817  0.50208561  1
  V  V8  1  0.88109276  0.49977731  0.37679731  1
  V  V9  1  0.62976534  0.86399236  0.24987382  1
  V  V10  1  0.13170597  0.37207652  0.75415924  1
  V  V11  1  -0.01482771  0.13402891  0.62910428  1
  V  V12  1  0.75019352  0.63487297  0.87238436  1
  V  V13  1  0.14896362  0.49161835  0.62613820  1
  V  V14  1  0.24025081  0.62540732  0.87493838  1
  V  V15  1  0.62048028  0.63114970  0.00874967  1
  V  V16  1  0.46938925  -0.00107938  -0.02243515  1
  V  V17  1  0.38695385  0.12263319  0.23957515  1
  V  V18  1  0.71903982  0.37565893  0.62548538  1
  V  V19  1  0.37976825  0.47557774  0.36593436  1
  V  V20  1  0.50212776  0.87486979  0.37946478  1
  V  V21  1  0.49698151  0.49919628  0.00214882  1
  V  V22  1  0.38078839  0.00661171  0.38398455  1
  V  V23  1  0.49928174  0.37460053  0.86819929  1
  V  V24  1  0.87759660  0.13818377  0.25205641  1
  V  V25  1  0.61845210  0.23901440  0.37998984  1
  V  V26  1  0.25446531  0.62057223  0.37230890  1
  V  V27  1  0.24011943  0.48715484  0.23594332  1
  V  V28  1  0.86915366  0.62862793  0.74107610  1
  V  V29  1  0.25684081  0.26242176  0.51067411  1
  V  V30  1  0.37009046  0.76171316  0.12219890  1
  V  V31  1  -0.00454063  0.15102579  0.12057858  1
  V  V32  1  0.86147834  0.38234170  0.01382097  1
  V  V33  1  0.86700551  0.00242389  0.37828335  1
  V  V34  1  0.23867078  0.87225436  0.62810760  1
  V  V35  1  -0.00508557  -0.01815144  0.00418526  1
  V  V36  1  0.25269825  0.12791207  0.37596852  1
  V  V37  1  0.61095206  0.00991085  0.61887269  1
  V  V38  1  0.12251406  0.25355066  0.36589837  1
  V  V39  1  0.61919044  0.00308216  0.12499278  1
  V  V40  1  0.61623122  0.87632428  0.75692728  1
  V  V41  1  0.12948640  0.61368263  0.50276360  1
  V  V42  1  0.12141856  -0.00009301  0.63295303  1
  V  V43  1  0.62418370  0.26073141  0.87573990  1
  V  V44  1  0.88455968  0.37552442  0.51699195  1
  V  V45  1  0.75126017  0.74620660  0.50824709  1
  V  V46  1  0.74961691  0.13797484  0.90084364  1
  V  V47  1  0.60794874  0.75769277  0.87928637  1
  V  V48  1  0.87464845  -0.00527657  0.88189202  1
  V  V49  1  0.12367234  0.13305745  -0.01373779  1
  V  V50  1  0.50734608  0.25152620  0.23530042  1
  V  V51  1  0.11967513  0.75130086  0.36884299  1
  V  V52  1  0.50168249  0.63185969  0.12796614  1
  V  V53  1  0.11778134  0.60839332  0.02039244  1
  V  V54  1  -0.01523911  0.25155408  0.75851752  1
  V  V55  1  -0.00174302  0.36904861  0.36289439  1
  V  V56  1  0.02128005  0.75281766  0.75096814  1
  V  V57  1  0.26056000  0.01124567  0.75552533  1
  V  V58  1  0.12391387  0.12865225  0.50217161  1
  V  V59  1  0.75731391  0.01615352  0.75037304  1
  V  V60  1  -0.00122132  -0.00266761  0.49999221  1
  V  V61  1  0.37588519  0.51915686  0.86734611  1
  V  V62  1  -0.00895064  0.61982209  0.61939989  1
  V  V63  1  0.38007880  0.62995172  0.24941046  1
  V  V64  1  0.75286970  -0.00092288  0.24637394  1
  V  V65  1  0.63829365  0.38564099  0.24456698  1
  V  V66  1  -0.01617475  0.41295087  0.87137188  1
  V  V67  1  0.74620678  0.61134856  0.37965292  1
  V  V68  1  0.75534151  0.87200005  0.63245061  1
  V  V69  1  0.23441109  0.75982547  0.00983616  1
  Zn  Zn70  1  0.61355470  0.61042133  0.51214294  1
  Zn  Zn71  1  0.96776312  0.74192570  0.25461343  1
  Zn  Zn72  1  0.41015585  0.83839321  0.94816770  1
  Zn  Zn73  1  0.43454220  0.67734652  0.66175844  1
  Zn  Zn74  1  0.00598785  0.88097854  0.35902673  1
  Zn  Zn75  1  0.26398060  0.34520213  0.06974486  1
  Zn  Zn76  1  0.15389266  0.23132409  0.15413390  1
  Zn  Zn77  1  0.18223075  0.19042826  0.69118990  1
  Zn  Zn78  1  0.18975381  0.68074284  0.18870634  1
  Zn  Zn79  1  0.24167111  0.66103089  0.66721386  1
  Zn  Zn80  1  0.69283039  0.18189987  0.19565520  1
  Zn  Zn81  1  0.67914542  0.19351221  0.68821131  1
  Zn  Zn82  1  0.81580511  0.64449835  0.19641391  1
  Zn  Zn83  1  0.67685186  0.69302934  0.69147881  1
  Zn  Zn84  1  0.31938584  0.30617315  0.21296477  1
  Zn  Zn85  1  0.29409390  0.33766208  0.86532068  1
  Zn  Zn86  1  0.31481370  0.81203446  0.31634458  1
  Zn  Zn87  1  0.24056006  0.82774132  0.83485022  1
  Zn  Zn88  1  0.80517018  0.31743804  0.32193304  1
  Zn  Zn89  1  0.80757476  0.31643465  0.80827984  1
  Zn  Zn90  1  0.80946042  0.80722511  0.31629191  1
  Zn  Zn91  1  0.81755585  0.81094798  0.80966481  1
  Zn  Zn92  1  0.19180263  0.43438769  0.42901076  1
  Zn  Zn93  1  0.17770869  0.44383922  0.93558596  1
  Zn  Zn94  1  0.18816682  0.93738793  0.43526425  1
  Zn  Zn95  1  0.17751693  0.95017226  0.93821565  1
  Zn  Zn96  1  0.67784624  0.42316809  0.43682448  1
  Zn  Zn97  1  0.68703975  0.44856168  0.93347528  1
  Zn  Zn98  1  0.68842961  0.93867863  0.44251105  1
  Zn  Zn99  1  0.69256317  0.94031710  0.93654081  1
  Zn  Zn100  1  0.30176176  0.06144233  0.06588750  1
  Zn  Zn101  1  0.31268977  0.06406493  0.56567476  1
  Zn  Zn102  1  0.31243947  0.56727444  0.05903431  1
  Zn  Zn103  1  0.34206357  0.53516213  0.57117355  1
  Zn  Zn104  1  0.81736114  0.06607359  0.06906252  1
  Zn  Zn105  1  0.80654684  0.05841431  0.56588088  1
  Zn  Zn106  1  0.80938167  0.54961524  0.03499654  1
  Zn  Zn107  1  0.80583715  0.55231481  0.56042709  1
  Zn  Zn108  1  0.44040732  0.43359190  0.17541011  1
  Zn  Zn109  1  0.45808400  0.45440039  0.69979749  1
  Zn  Zn110  1  0.44055662  0.93620756  0.20035483  1
  Zn  Zn111  1  0.40107834  0.88053930  0.75162074  1
  Zn  Zn112  1  0.81007382  0.45396575  0.18518959  1
  Zn  Zn113  1  0.93694715  0.44604010  0.69321602  1
  Zn  Zn114  1  0.94686960  0.93827131  0.19631088  1
  Zn  Zn115  1  0.93771425  0.93559620  0.69110806  1
  Zn  Zn116  1  0.05892015  0.07135882  0.30934277  1
  Zn  Zn117  1  0.05579357  0.06554607  0.81234307  1
  Zn  Zn118  1  0.06564647  0.55423869  0.31804559  1
  Zn  Zn119  1  0.07739098  0.56953323  0.79635044  1
  Zn  Zn120  1  0.56493803  0.06000379  0.31958086  1
  Zn  Zn121  1  0.57349812  0.05759725  0.82785990  1
  Zn  Zn122  1  0.56117235  0.56317401  0.31604773  1
  Zn  Zn123  1  0.55544810  0.57611595  0.80962583  1
  Zn  Zn124  1  0.42968412  0.30349183  0.42416482  1
  Zn  Zn125  1  0.56624583  0.17324603  1.04935168  1
  Zn  Zn126  1  0.43814169  0.68348196  0.44342401  1
  Zn  Zn127  1  0.41190846  0.71674950  0.81809462  1
  Zn  Zn128  1  0.93252197  0.19028845  0.44053637  1
  Zn  Zn129  1  0.92806810  0.19149123  0.94190503  1
  Zn  Zn130  1  0.93814113  0.68242476  0.44434112  1
  Zn  Zn131  1  0.96034824  0.62768467  0.90680727  1
  Zn  Zn132  1  0.06326353  0.32939089  0.04177238  1
  Zn  Zn133  1  0.06442912  0.31403818  0.56598771  1
  Zn  Zn134  1  0.06422442  0.79850536  -0.07627508  1
  Zn  Zn135  1  0.06317774  0.80395984  0.56268714  1
  Zn  Zn136  1  0.69123486  0.30844413  0.06067736  1
  Zn  Zn137  1  0.55270152  0.30573260  0.55529036  1
  Zn  Zn138  1  0.55718481  0.81906221  0.06274180  1
  Zn  Zn139  1  0.56759826  0.82285407  0.56734136  1
  O  O140  1  0.09858967  0.13278835  0.12124786  1
  O  O141  1  0.11358473  0.11690979  0.61528440  1
  O  O142  1  0.12067880  0.62714101  0.11964971  1
  O  O143  1  0.14082413  0.60855036  0.61657638  1
  O  O144  1  0.62927331  0.10653991  0.12954066  1
  O  O145  1  0.62298797  0.11043633  0.63777251  1
  O  O146  1  0.61996309  0.63957301  0.10907317  1
  O  O147  1  0.59428495  0.65846214  0.61791403  1
  O  O148  1  0.37327259  0.37672070  0.35489303  1
  O  O149  1  0.39434738  0.39122891  0.87630900  1
  O  O150  1  0.38478683  0.88128732  0.38368397  1
  O  O151  1  0.35870400  0.83244417  0.85073830  1
  O  O152  1  0.88373257  0.38039104  0.38569558  1
  O  O153  1  0.88596597  0.38639301  0.85711208  1
  O  O154  1  0.87675511  0.88067942  0.38908542  1
  O  O155  1  0.85899007  0.89388106  0.87623255  1
  O  O156  1  0.25894100  0.00794023  0.37524956  1
  O  O157  1  0.24252698  -0.00261219  0.85277999  1
  O  O158  1  0.26021515  0.50512483  0.36527019  1
  O  O159  1  0.26747716  0.51268276  0.88686857  1
  O  O160  1  0.76131920  -0.00280744  0.37330209  1
  O  O161  1  0.75275807  0.01449644  0.86866076  1
  O  O162  1  0.75258966  0.50699586  0.39499297  1
  O  O163  1  0.73648937  0.51661011  0.85253254  1
  O  O164  1  0.25923716  0.50119207  0.13759171  1
  O  O165  1  0.24750072  0.48403334  0.61879894  1
  O  O166  1  0.25429103  1.00304790  0.15303850  1
  O  O167  1  0.23881190  0.99187002  0.62423075  1
  O  O168  1  0.78290393  0.55535415  0.14030137  1
  O  O169  1  0.73931115  0.48805432  0.62985383  1
  O  O170  1  0.75036636  0.99680743  0.14384812  1
  O  O171  1  0.74768368  0.99289561  0.64051760  1
  O  O172  1  -0.00492249  0.36896171  0.26866341  1
  O  O173  1  0.00079178  0.37066877  0.75724526  1
  O  O174  1  0.13434324  0.88785526  0.12777089  1
  O  O175  1  -0.00623055  0.85170387  0.73992759  1
  O  O176  1  0.50712526  0.35665268  0.24052005  1
  O  O177  1  0.51354185  0.38888986  0.76932199  1
  O  O178  1  0.51716110  0.87700480  0.26987243  1
  O  O179  1  0.51916642  0.88809956  0.75468734  1
  O  O180  1  0.49128663  0.12364447  0.25706051  1
  O  O181  1  0.49270601  0.12192043  0.74858043  1
  O  O182  1  0.49318566  0.62044913  0.24002369  1
  O  O183  1  0.48136039  0.63951166  0.75823900  1
  O  O184  1  0.98675441  0.12174755  0.23746960  1
  O  O185  1  1.00247700  0.13650371  0.73538818  1
  O  O186  1  1.00179215  0.62714843  0.25269856  1
  O  O187  1  0.99229573  0.63129433  0.73699424  1
  O  O188  1  0.35128885  0.18283288  -0.08004287  1
  O  O189  1  0.35655318  0.25168421  0.49288469  1
  O  O190  1  0.36189835  0.75713849  0.01807225  1
  O  O191  1  0.36348371  0.76252707  0.49140907  1
  O  O192  1  0.87689318  0.28305907  -0.01305391  1
  O  O193  1  0.85936046  0.26474189  0.49622694  1
  O  O194  1  0.87490238  0.72878721  0.02346884  1
  O  O195  1  0.86517144  0.75777947  0.49736880  1
  O  O196  1  0.12465375  0.23862780  0.49791311  1
  O  O197  1  0.10824933  0.23319880  0.99130271  1
  O  O198  1  0.13409229  0.73630864  0.49162819  1
  O  O199  1  0.13178348  0.74268785  1.00682411  1
  O  O200  1  0.63201053  0.25261545  0.48916579  1
  O  O201  1  0.62395367  0.24786187  0.98665598  1
  O  O202  1  0.63863101  0.76240326  0.49174284  1
  O  O203  1  0.62180218  0.74739776  0.98843813  1
  O  O204  1  0.51425149  0.23231551  0.13926988  1
  O  O205  1  0.48784877  0.22501088  0.61586360  1
  O  O206  1  0.48582093  0.74178996  0.11956867  1
  O  O207  1  0.53268140  0.71952853  0.61258623  1
  O  O208  1  0.99162012  0.24938063  0.11774008  1
  O  O209  1  0.99735503  0.23695656  0.62469260  1
  O  O210  1  0.91137296  0.77349503  0.06800636  1
  O  O211  1  1.01387341  0.72844190  0.63347155  1
  O  O212  1  0.01021989  0.25610701  0.38201058  1
  O  O213  1  -0.00722103  0.24123016  0.85650164  1
  O  O214  1  0.01211899  0.73751302  0.37404595  1
  O  O215  1  -0.00089836  0.73152014  0.85651694  1
  O  O216  1  0.51428744  0.24642806  0.37036115  1
  O  O217  1  0.50975447  0.27066328  0.87824369  1
  O  O218  1  0.51208135  0.75904895  0.38780907  1
  O  O219  1  0.50862301  0.76100309  0.88145487  1
  O  O220  1  0.23897253  0.12495990  0.49415940  1
  O  O221  1  0.22123752  0.11551964  1.00930688  1
  O  O222  1  0.24574962  0.63054210  0.48607768  1
  O  O223  1  0.23578892  0.63003281  1.00118469  1
  O  O224  1  0.75521646  0.14299011  0.51177806  1
  O  O225  1  0.74988326  0.12734643  0.99932436  1
  O  O226  1  0.73814216  0.63204423  0.50692994  1
  O  O227  1  0.73678449  0.62219122  0.97773192  1
  O  O228  1  0.24169991  0.35547987  -0.03806914  1
  O  O229  1  0.23919866  0.36119709  0.49975555  1
  O  O230  1  0.23881516  0.86023422  -0.00053536  1
  O  O231  1  0.25609352  0.86704663  0.50049108  1
  O  O232  1  0.75250553  0.39070765  0.00499326  1
  O  O233  1  0.75032797  0.37089307  0.51724606  1
  O  O234  1  0.76377109  0.84605599  0.00200328  1
  O  O235  1  0.75828744  0.86837109  0.51026764  1
  O  O236  1  0.14054100  0.50288457  0.25152270  1
  O  O237  1  0.13537469  0.49187238  0.73328202  1
  O  O238  1  0.13865970  1.00285316  0.26678488  1
  O  O239  1  0.12253702  1.00397971  0.73449625  1
  O  O240  1  0.61837309  0.48407929  0.25647784  1
  O  O241  1  0.63023454  0.51486807  0.74135672  1
  O  O242  1  0.63766751  0.99288710  0.24860068  1
  O  O243  1  0.64161927  0.99132467  0.75491434  1
  O  O244  1  0.37451545  0.00783543  0.26719356  1
  O  O245  1  0.35849945  -0.01152676  0.74174824  1
  O  O246  1  0.37213557  0.50856167  0.25743971  1
  O  O247  1  0.37876529  0.50466824  0.76844457  1
  O  O248  1  0.86542144  -0.00578297  0.26018313  1
  O  O249  1  0.86292333  -0.00140231  0.76031421  1
  O  O250  1  0.86812595  0.49753093  0.27955416  1
  O  O251  1  0.85510705  0.51866498  0.73583955  1
  O  O252  1  0.11131892  0.36377578  0.38118493  1
  O  O253  1  0.10187150  0.39719033  0.85465612  1
  O  O254  1  0.11933222  0.85591958  0.38756414  1
  O  O255  1  0.13944586  0.86563559  0.87192942  1
  O  O256  1  0.63264034  0.35524988  0.35704904  1
  O  O257  1  0.62295819  0.36841087  0.87991884  1
  O  O258  1  0.61964251  0.87115904  0.37672544  1
  O  O259  1  0.63591363  0.86758609  0.86860361  1
  O  O260  1  0.37761366  0.11455413  0.14296671  1
  O  O261  1  0.39132383  0.13581505  0.61928357  1
  O  O262  1  0.38309409  0.63338237  0.13300571  1
  O  O263  1  0.34146971  0.63689912  0.61548193  1
  O  O264  1  0.88088898  0.12474117  0.14355463  1
  O  O265  1  0.88739305  0.11829809  0.62271134  1
  O  O266  1  0.93757416  0.62465124  0.13600146  1
  O  O267  1  0.88690240  0.62007312  0.61904817  1
  O  O268  1  0.26371795  0.24325632  0.13279543  1
  O  O269  1  0.24225760  0.24260512  0.60857602  1
  O  O270  1  0.25831538  0.74545118  0.11985954  1
  O  O271  1  0.23490192  0.76591977  0.61094730  1
  O  O272  1  0.75254473  0.23886563  0.12267394  1
  O  O273  1  0.73712622  0.26629100  0.61770514  1
  O  O274  1  0.85532659  0.73879775  0.23841818  1
  O  O275  1  0.74171188  0.76069568  0.61858587  1
  O  O276  1  0.23185470  0.24060539  0.39078688  1
  O  O277  1  0.30928198  0.20898396  0.86621790  1
  O  O278  1  0.24165932  0.74150279  0.38163105  1
  O  O279  1  0.24935392  0.73148276  0.90113991  1
  O  O280  1  0.74287730  0.25189233  0.39413637  1
  O  O281  1  0.74498307  0.24474317  0.87679596  1
  O  O282  1  0.74583468  0.73648072  0.39135359  1
  O  O283  1  0.74189305  0.73896775  0.86688619  1
  O  O284  1  -0.00965059  0.12204885  0.01381711  1
  O  O285  1  0.00221197  0.11717356  0.50803956  1
  O  O286  1  0.01901891  0.62965804  -0.00133905  1
  O  O287  1  0.01421859  0.62730494  0.51341806  1
  O  O288  1  0.50590384  0.08746780  0.00946031  1
  O  O289  1  0.45301676  0.16342513  0.57819049  1
  O  O290  1  0.51236884  0.62537421  0.00916283  1
  O  O291  1  0.49393706  0.59893698  0.49099025  1
  O  O292  1  0.49140716  0.37774850  0.49138627  1
  O  O293  1  0.51033330  0.40054564  0.98800857  1
  O  O294  1  0.48448099  0.86926700  0.50088345  1
  O  O295  1  0.49323131  0.89327008  1.00324367  1
  O  O296  1  0.98628774  0.36697503  0.49925503  1
  O  O297  1  0.99655823  0.38572644  0.97019024  1
  O  O298  1  0.99119054  0.88283849  0.50657299  1
  O  O299  1  1.00246469  0.88409218  0.98520624  1
  O  O300  1  0.48473698  0.49405904  0.37501009  1
  O  O301  1  0.49349412  0.50643371  0.88268583  1
  O  O302  1  0.49298673  0.98986031  0.38121640  1
  O  O303  1  0.49017117  1.00017250  0.87748231  1
  O  O304  1  0.99055779  0.48786947  0.37910813  1
  O  O305  1  0.99066359  0.51570737  0.85819516  1
  O  O306  1  0.99338109  0.99797069  0.38728482  1
  O  O307  1  0.97892706  1.00759168  0.87894042  1
  O  O308  1  -0.02083482  -0.01038449  0.10593570  1
  O  O309  1  0.00298029  0.00678057  0.61810047  1
  O  O310  1  -0.01670967  0.58406454  0.17979412  1
  O  O311  1  0.01336068  0.51801143  0.63210119  1
  O  O312  1  0.51951157  -0.01039071  0.13687050  1
  O  O313  1  0.51562361  -0.00582969  0.63028396  1
  O  O314  1  0.49621883  0.51484870  0.11113882  1
  O  O315  1  0.45734354  0.49180525  0.59767628  1
  O  O316  1  0.25008600  0.38811023  0.25519463  1
  O  O317  1  0.22939373  0.35801840  0.77201425  1
  O  O318  1  0.25332923  0.88997243  0.26493526  1
  O  O319  1  0.24130625  0.88251304  0.72847447  1
  O  O320  1  0.74713376  0.38202341  0.25034436  1
  O  O321  1  0.74459643  0.38876840  0.73656015  1
  O  O322  1  0.73838147  0.88559379  0.26339941  1
  O  O323  1  0.74818262  0.87961102  0.74233076  1
  O  O324  1  0.27002347  0.11864685  0.27059187  1
  O  O325  1  0.25025960  0.11147755  0.73582039  1
  O  O326  1  0.25957928  0.61574918  0.25814858  1
  O  O327  1  0.24092250  0.63571971  0.77584781  1
  O  O328  1  0.76467408  0.10795146  0.25581482  1
  O  O329  1  0.75251465  0.11558114  0.74617539  1
  O  O330  1  0.74067162  0.61862970  0.28345039  1
  O  O331  1  0.74731046  0.62153582  0.74848675  1
  O  O332  1  0.36899764  0.11178222  0.38583509  1
  O  O333  1  0.43204414  0.14817742  0.78071674  1
  O  O334  1  0.36655566  0.62903873  0.36553395  1
  O  O335  1  0.36451343  0.62430114  0.87791956  1
  O  O336  1  0.88700430  0.11200807  0.36425210  1
  O  O337  1  0.85512215  0.11876858  0.88024741  1
  O  O338  1  0.86239403  0.60929106  0.39499339  1
  O  O339  1  0.85477426  0.62649219  0.86057616  1
  O  O340  1  0.14919045  0.34021806  0.11304416  1
  O  O341  1  0.11778485  0.38707882  0.63527181  1
  O  O342  1  0.08492421  0.83495467  0.13213264  1
  O  O343  1  0.13223458  0.88682078  0.60902241  1
  O  O344  1  0.63424778  0.36873676  0.14499217  1
  O  O345  1  0.61969428  0.37291023  0.62478955  1
  O  O346  1  0.62297528  0.86920576  0.14824823  1
  O  O347  1  0.63466916  0.88355006  0.64162861  1
  O  O348  1  0.12840884  0.24187437  0.26959966  1
  O  O349  1  0.10716722  0.26683042  0.73899286  1
  O  O350  1  0.13285590  0.74161995  0.27046094  1
  O  O351  1  0.11876938  0.74779142  0.74903509  1
  O  O352  1  0.61834325  0.24630742  0.25924098  1
  O  O353  1  0.62629484  0.24489938  0.77524883  1
  O  O354  1  0.63629938  0.76237098  0.27173528  1
  O  O355  1  0.62367944  0.76708552  0.76408611  1
  O  O356  1  0.39492132  0.23287443  0.25764332  1
  O  O357  1  0.37270286  0.28521876  0.71722173  1
  O  O358  1  0.36608660  0.73744260  0.24193667  1
  O  O359  1  0.38779486  0.76943339  0.71857910  1
  O  O360  1  0.86864851  0.23554265  0.26604593  1
  O  O361  1  0.88583871  0.25761748  0.74382475  1
  O  O362  1  0.98864721  0.85418432  0.25131924  1
  O  O363  1  0.87044768  0.73369386  0.74244995  1
  O  O364  1  0.37249937  0.49011378  0.47047870  1
  O  O365  1  0.39176865  0.51302848  0.99038997  1
  O  O366  1  0.36724808  0.98586823  0.49391567  1
  O  O367  1  0.36824381  1.00135362  0.99304194  1
  O  O368  1  0.87017061  0.48167117  0.49412858  1
  O  O369  1  0.87817432  0.48394285  0.98067139  1
  O  O370  1  0.87927313  0.99410367  0.49533284  1
  O  O371  1  0.87604454  1.00083938  0.98941333  1
  O  O372  1  0.09750046  0.01094239  -0.00327479  1
  O  O373  1  0.11450958  0.00805559  0.50253937  1
  O  O374  1  0.12590159  0.50693000  0.01254972  1
  O  O375  1  0.13405253  0.50532347  0.50782522  1
  O  O376  1  0.64126587  -0.02265205  0.02864873  1
  O  O377  1  0.63151135  -0.00412817  0.51927340  1
  O  O378  1  0.61418717  0.52351674  -0.01118648  1
  O  O379  1  0.60122994  0.48995970  0.49712406  1
  O  O380  1  0.36441649  0.36872189  0.12507097  1
  O  O381  1  0.37633121  0.34096571  0.67033342  1
  O  O382  1  0.37964359  0.85938914  0.14217645  1
  O  O383  1  0.35538859  0.87941742  0.60933754  1
  O  O384  1  0.87375821  0.38902887  0.11275724  1
  O  O385  1  0.87676455  0.38049841  0.61675088  1
  O  O386  1  0.77901918  0.85328509  0.07314247  1
  O  O387  1  0.86477456  0.88342548  0.61416533  1
  O  O388  1  0.12668723  0.13282170  0.38496272  1
  O  O389  1  0.11939089  0.11956748  0.88571743  1
  O  O390  1  0.13448453  0.62535047  0.38408498  1
  O  O391  1  0.13662144  0.60887779  0.88830165  1
  O  O392  1  0.63083532  0.13782600  0.37067615  1
  O  O393  1  0.64249125  0.13149962  0.87949976  1
  O  O394  1  0.62971355  0.62991087  0.38848484  1
  O  O395  1  0.62684570  0.64523958  0.87524934  1
