# generated using pymatgen
data_V35Zn35O128
_symmetry_space_group_name_H-M   'P 1'
_cell_length_a   16.80527906
_cell_length_b   16.87372495
_cell_length_c   16.88826341
_cell_angle_alpha   89.78964066
_cell_angle_beta   90.04632789
_cell_angle_gamma   89.95834161
_symmetry_Int_Tables_number   1
_chemical_formula_structural   V35Zn35O128
_chemical_formula_sum   'V70 Zn70 O256'
_cell_volume   4788.93016077
_cell_formula_units_Z   2
loop_
 _symmetry_equiv_pos_site_id
 _symmetry_equiv_pos_as_xyz
  1  'x, y, z'
loop_
 _atom_site_type_symbol
 _atom_site_label
 _atom_site_symmetry_multiplicity
 _atom_site_fract_x
 _atom_site_fract_y
 _atom_site_fract_z
 _atom_site_occupancy
  V  V0  1  0.88644013  0.11883631  0.25380272  1
  V  V1  1  0.12148503  0.87759288  0.26293862  1
  V  V2  1  -0.00564694  0.12239373  0.10761644  1
  V  V3  1  0.00202154  0.24822439  0.75451732  1
  V  V4  1  -0.00153433  0.36443919  0.37550235  1
  V  V5  1  0.37340728  0.87954301  0.52457914  1
  V  V6  1  0.25844431  0.48748766  0.74104950  1
  V  V7  1  0.75382870  0.62010590  0.87862944  1
  V  V8  1  0.49763987  0.87059815  0.87440366  1
  V  V9  1  0.63627646  0.37944172  0.25107275  1
  V  V10  1  0.22443113  -0.00156282  0.74846049  1
  V  V11  1  0.62491353  0.62649204  0.50526718  1
  V  V12  1  0.37795747  0.87749687  0.00074522  1
  V  V13  1  0.74927102  0.86846899  0.61292316  1
  V  V14  1  -0.00623216  0.62718552  0.11118391  1
  V  V15  1  0.49592472  0.73503995  0.25150729  1
  V  V16  1  0.87297000  0.49984455  0.35868158  1
  V  V17  1  0.11460630  -0.00093958  0.11624669  1
  V  V18  1  0.12709041  0.11267257  0.50537960  1
  V  V19  1  0.49391853  0.13510102  0.63740354  1
  V  V20  1  0.26275888  0.74939944  0.48542166  1
  V  V21  1  0.50329125  0.00577732  0.50884818  1
  V  V22  1  0.24100318  0.74080757  -0.00432720  1
  V  V23  1  0.49535321  0.87898170  0.36791710  1
  V  V24  1  0.75267090  0.37661676  0.62862350  1
  V  V25  1  0.89028771  -0.00988864  0.38456127  1
  V  V26  1  0.00313913  0.11093367  0.62235707  1
  V  V27  1  0.62598315  0.89143371  0.74757088  1
  V  V28  1  0.11924234  0.50153123  0.11122097  1
  V  V29  1  0.88278962  0.24841722  0.62036088  1
  V  V30  1  0.51331334  0.36869437  0.88845377  1
  V  V31  1  0.24801940  0.87895154  0.13251351  1
  V  V32  1  0.37282408  0.26476342  0.63353899  1
  V  V33  1  0.62916378  0.75770113  0.37890448  1
  V  V34  1  0.24984058  0.26229476  0.50519654  1
  V  V35  1  0.76931121  0.39180304  0.11756490  1
  V  V36  1  0.25626200  0.37500711  0.11639113  1
  V  V37  1  0.36539020  0.00438245  0.36585145  1
  V  V38  1  0.37313259  0.01824400  0.87630043  1
  V  V39  1  0.24288336  0.62527250  0.87623930  1
  V  V40  1  0.22049275  0.13163241  0.87673682  1
  V  V41  1  0.12177560  0.37164576  0.76158236  1
  V  V42  1  0.11856219  0.49269319  0.61267305  1
  V  V43  1  0.61294746  0.49108871  0.63012667  1
  V  V44  1  0.62181566  0.75031577  0.86835421  1
  V  V45  1  0.74783688  0.76400633  -0.00072093  1
  V  V46  1  0.61289278  -0.00198449  0.15268235  1
  V  V47  1  0.48618897  0.13316819  0.13731677  1
  V  V48  1  0.38162994  0.64094729  0.75173012  1
  V  V49  1  0.55097047  0.05309340  -0.04772133  1
  V  V50  1  0.87307793  -0.02839302  0.88548262  1
  V  V51  1  0.37507817  0.73660465  0.13069257  1
  V  V52  1  0.50055976  0.65018694  0.63099454  1
  V  V53  1  0.87150016  0.74388944  0.61467904  1
  V  V54  1  0.61189961  0.62005824  0.01194663  1
  V  V55  1  0.24092221  0.24431753  0.00407727  1
  V  V56  1  0.00867595  0.76042938  0.75127081  1
  V  V57  1  0.87858967  0.38830872  0.50210877  1
  V  V58  1  0.62979491  0.13136533  0.50512441  1
  V  V59  1  0.50124203  0.25636233  0.28085793  1
  V  V60  1  0.77182200  0.00131580  0.74493985  1
  V  V61  1  0.74059719  0.60956479  0.36801926  1
  V  V62  1  0.24550561  0.13009097  0.36836451  1
  V  V63  1  0.87478613  0.76339238  0.12338015  1
  V  V64  1  0.74354968  0.11696445  0.36400720  1
  V  V65  1  0.87686427  0.62110115  0.75066530  1
  V  V66  1  0.38415460  0.49191276  0.88595112  1
  V  V67  1  0.73892653  0.87843644  0.14918740  1
  V  V68  1  0.11624401  0.37326017  0.24100717  1
  V  V69  1  -0.00074403  0.75080733  0.26053491  1
  Zn  Zn70  1  0.75367694  0.49211072  0.75968596  1
  Zn  Zn71  1  0.01770665  0.62755823  0.59457751  1
  Zn  Zn72  1  0.90387903  0.86684905  0.49256925  1
  Zn  Zn73  1  -0.02057406  0.25958531  0.23076748  1
  Zn  Zn74  1  0.74925798  0.25567797  0.49583711  1
  Zn  Zn75  1  0.62630675  0.36316798  0.75738735  1
  Zn  Zn76  1  0.16886944  0.19322161  0.18178214  1
  Zn  Zn77  1  0.18987876  0.18580187  0.68748792  1
  Zn  Zn78  1  0.17640318  0.69019947  0.18175571  1
  Zn  Zn79  1  0.19779159  0.68553563  0.66869266  1
  Zn  Zn80  1  0.67222605  0.18270428  0.19549914  1
  Zn  Zn81  1  0.69542515  0.17626793  0.67721278  1
  Zn  Zn82  1  0.68301565  0.69366338  0.19354743  1
  Zn  Zn83  1  0.68769301  0.68830532  0.69191085  1
  Zn  Zn84  1  0.29238433  0.27171584  0.28129267  1
  Zn  Zn85  1  0.31857562  0.30517699  0.82235013  1
  Zn  Zn86  1  0.31433545  0.80721489  0.31899738  1
  Zn  Zn87  1  0.30590389  0.81888356  0.81198865  1
  Zn  Zn88  1  0.79573493  0.30568097  0.31279052  1
  Zn  Zn89  1  0.80662121  0.28741240  0.80879253  1
  Zn  Zn90  1  0.81568375  0.80878432  0.31628853  1
  Zn  Zn91  1  0.81245048  0.80884472  0.80636218  1
  Zn  Zn92  1  0.18460082  0.43632782  0.42942825  1
  Zn  Zn93  1  0.18819229  0.44324653  0.93793932  1
  Zn  Zn94  1  0.18945988  0.93647625  0.44425669  1
  Zn  Zn95  1  0.19427375  0.93989136  0.94131426  1
  Zn  Zn96  1  0.66928238  0.42176605  0.43918740  1
  Zn  Zn97  1  0.69264885  0.43458752  0.94792042  1
  Zn  Zn98  1  0.68742746  0.94311080  0.43224270  1
  Zn  Zn99  1  0.69261337  0.94434551  0.93172619  1
  Zn  Zn100  1  0.30692599  0.06348162  0.06356692  1
  Zn  Zn101  1  0.31090549  0.06515943  0.56768078  1
  Zn  Zn102  1  0.43064603  0.55259944  0.07287561  1
  Zn  Zn103  1  0.31449033  0.57301219  0.56716992  1
  Zn  Zn104  1  0.82550836  0.02633859  0.08254046  1
  Zn  Zn105  1  0.81931483  0.05252578  0.56379073  1
  Zn  Zn106  1  0.79708859  0.58818524  0.08126270  1
  Zn  Zn107  1  0.80052503  0.56264879  0.55963926  1
  Zn  Zn108  1  0.43490875  0.41150136  0.20980394  1
  Zn  Zn109  1  0.44286813  0.42723644  0.70362364  1
  Zn  Zn110  1  0.43123698  0.93478634  0.18747190  1
  Zn  Zn111  1  0.43836169  0.95327022  0.69917700  1
  Zn  Zn112  1  0.93244762  0.44143702  0.18072736  1
  Zn  Zn113  1  0.94300767  0.43968858  0.68970735  1
  Zn  Zn114  1  0.93467950  0.93669386  0.19766550  1
  Zn  Zn115  1  1.02227800  0.88890625  0.61462995  1
  Zn  Zn116  1  0.06908294  0.05617200  0.31294999  1
  Zn  Zn117  1  0.00929647  -0.02144126  0.76215824  1
  Zn  Zn118  1  0.05113734  0.55921530  0.29645347  1
  Zn  Zn119  1  0.08957866  0.59330891  0.76586967  1
  Zn  Zn120  1  0.55227031  0.07012049  0.31841490  1
  Zn  Zn121  1  0.55669964  0.19189123  0.82044192  1
  Zn  Zn122  1  0.55164699  0.55412396  0.31871675  1
  Zn  Zn123  1  0.56532393  0.56142923  0.81318401  1
  Zn  Zn124  1  0.42563460  0.18759013  0.44608283  1
  Zn  Zn125  1  0.43462803  0.20488166  0.96813208  1
  Zn  Zn126  1  0.43457502  0.70172847  0.44809892  1
  Zn  Zn127  1  0.43384038  0.68907944  0.93746268  1
  Zn  Zn128  1  0.93499972  0.18431052  0.44082655  1
  Zn  Zn129  1  1.00797182  0.11957953  0.89668535  1
  Zn  Zn130  1  0.92954271  0.66520286  0.43625745  1
  Zn  Zn131  1  0.93577810  0.70541985  0.93423248  1
  Zn  Zn132  1  0.05109054  0.30671024  0.04963539  1
  Zn  Zn133  1  0.07006596  0.31280582  0.55993926  1
  Zn  Zn134  1  0.06517480  0.81298079  0.06239719  1
  Zn  Zn135  1  0.05840137  0.76355611  0.46774979  1
  Zn  Zn136  1  0.56284519  0.43849494  0.07716900  1
  Zn  Zn137  1  0.55091947  0.31577662  0.54733449  1
  Zn  Zn138  1  0.56240966  0.81176525  0.06412005  1
  Zn  Zn139  1  0.56432465  0.81913065  0.56122898  1
  O  O140  1  0.10691352  0.10901962  0.13321326  1
  O  O141  1  0.11651689  0.12741995  0.61431409  1
  O  O142  1  0.11184848  0.61254995  0.12548208  1
  O  O143  1  0.12164576  0.60145196  0.64677304  1
  O  O144  1  0.60782600  0.10499446  0.13661168  1
  O  O145  1  0.61001750  0.12787532  0.61282742  1
  O  O146  1  0.63133135  0.63625766  0.10950399  1
  O  O147  1  0.61385600  0.62364999  0.62761951  1
  O  O148  1  0.31680335  0.44856500  0.32903016  1
  O  O149  1  0.38368070  0.38643871  0.87462244  1
  O  O150  1  0.37882454  0.88717674  0.38467368  1
  O  O151  1  0.38267189  0.87570501  0.88228785  1
  O  O152  1  0.87716863  0.38450423  0.38067893  1
  O  O153  1  0.86634393  0.35217506  0.89299336  1
  O  O154  1  0.86868444  0.88390528  0.38099416  1
  O  O155  1  0.87723679  0.87147610  0.88028719  1
  O  O156  1  0.25806125  0.01024650  0.37765458  1
  O  O157  1  0.25440954  0.01740474  0.87755961  1
  O  O158  1  0.25661807  0.49525920  0.35567415  1
  O  O159  1  0.26109865  0.50916584  0.86713211  1
  O  O160  1  0.76287909  0.01259842  0.38398356  1
  O  O161  1  0.76544546  -0.00364157  0.85943499  1
  O  O162  1  0.74837668  0.50712093  0.38398840  1
  O  O163  1  0.74928589  0.51661860  0.88212241  1
  O  O164  1  0.22235964  0.48025151  0.12553309  1
  O  O165  1  0.25109200  0.50310640  0.63844339  1
  O  O166  1  0.23995154  0.98579379  0.12448558  1
  O  O167  1  0.25199791  1.01277375  0.65129421  1
  O  O168  1  0.76654072  0.49385924  0.12504265  1
  O  O169  1  0.74361896  0.48797553  0.62930722  1
  O  O170  1  0.73131011  0.98690432  0.13125198  1
  O  O171  1  0.76392987  0.97639771  0.63346147  1
  O  O172  1  -0.00873279  0.37554660  0.26084951  1
  O  O173  1  0.01089600  0.36596522  0.75293882  1
  O  O174  1  0.01066430  0.86624651  0.24879475  1
  O  O175  1  0.01002578  0.86466607  0.72632436  1
  O  O176  1  0.52398975  0.36615979  0.27086085  1
  O  O177  1  0.50956064  0.36803217  0.77261479  1
  O  O178  1  0.49150759  0.86748100  0.26533049  1
  O  O179  1  0.51345649  0.88914483  0.76116176  1
  O  O180  1  0.49668065  0.14362677  0.24914460  1
  O  O181  1  0.50627012  0.13144566  0.73582955  1
  O  O182  1  0.49045546  0.63613436  0.26214930  1
  O  O183  1  0.49189136  0.62779821  0.74642038  1
  O  O184  1  0.99155042  0.12302944  0.25085915  1
  O  O185  1  1.00902894  0.14134711  0.72480449  1
  O  O186  1  1.00324799  0.64615388  0.23565871  1
  O  O187  1  0.98036896  0.62883958  0.75359545  1
  O  O188  1  0.34438354  0.26098255  -0.00273775  1
  O  O189  1  0.36063681  0.24778832  0.51435698  1
  O  O190  1  0.36986425  0.75589193  0.01310524  1
  O  O191  1  0.38393465  0.77557640  0.52376985  1
  O  O192  1  0.90846264  0.31530434  -0.04928582  1
  O  O193  1  0.87730559  0.26457983  0.50767772  1
  O  O194  1  0.86229071  0.75513164  0.01198131  1
  O  O195  1  0.87271421  0.73825758  0.51181307  1
  O  O196  1  0.14196712  0.24058877  0.50491425  1
  O  O197  1  0.13627952  0.25524202  0.99645344  1
  O  O198  1  0.17077418  0.75262804  0.44733030  1
  O  O199  1  0.14219299  0.74592030  1.00747667  1
  O  O200  1  0.62836232  0.23340561  0.49907259  1
  O  O201  1  0.67881056  0.21696378  1.02719149  1
  O  O202  1  0.61348379  0.74400734  0.48586227  1
  O  O203  1  0.62751819  0.74339515  0.99061944  1
  O  O204  1  0.49039297  0.22884822  0.11836980  1
  O  O205  1  0.49075488  0.24389300  0.61472521  1
  O  O206  1  0.48910289  0.75427466  0.14050891  1
  O  O207  1  0.50600180  0.74861038  0.63627242  1
  O  O208  1  0.99504872  0.22667101  0.11757259  1
  O  O209  1  0.99472599  0.25102769  0.62516352  1
  O  O210  1  0.99100425  0.75225527  0.12487386  1
  O  O211  1  0.97876148  0.73654444  0.63493661  1
  O  O212  1  -0.00943338  0.26409514  0.37274489  1
  O  O213  1  -0.00259483  0.22816528  0.85185985  1
  O  O214  1  -0.01131546  0.74770311  0.36082633  1
  O  O215  1  -0.00558763  0.75511011  0.85128483  1
  O  O216  1  0.50174220  0.24103402  0.37952260  1
  O  O217  1  0.50041724  0.26094058  0.89121677  1
  O  O218  1  0.49904903  0.75746849  0.36837401  1
  O  O219  1  0.50578754  0.76123871  0.87736769  1
  O  O220  1  0.24048338  0.12863096  0.49557695  1
  O  O221  1  0.24596816  0.13384093  0.99369486  1
  O  O222  1  0.25753479  0.67530135  0.56062664  1
  O  O223  1  0.25492200  0.63330176  0.98411940  1
  O  O224  1  0.73401463  0.11509749  0.51014683  1
  O  O225  1  0.81221939  0.17080175  0.95890169  1
  O  O226  1  0.73399869  0.62944273  0.49030562  1
  O  O227  1  0.74316709  0.63817780  0.99164073  1
  O  O228  1  0.24065306  0.37049490  0.01181384  1
  O  O229  1  0.24628646  0.36114533  0.49118622  1
  O  O230  1  0.25612274  0.86004643  0.00594500  1
  O  O231  1  0.26704604  0.86465194  0.49534813  1
  O  O232  1  0.74494327  0.36775641  0.02031949  1
  O  O233  1  0.75849020  0.37404816  0.51240401  1
  O  O234  1  0.73851526  0.86536977  0.00435656  1
  O  O235  1  0.73437073  0.87464661  0.51428215  1
  O  O236  1  0.10874333  0.48301785  0.23352922  1
  O  O237  1  0.13946924  0.48630724  0.74523300  1
  O  O238  1  0.12253797  0.98343395  0.23896147  1
  O  O239  1  0.12356811  1.00281207  0.75354861  1
  O  O240  1  0.62165820  0.47968039  0.27176944  1
  O  O241  1  0.63367820  0.50359386  0.73801184  1
  O  O242  1  0.61484846  0.99496429  0.25236858  1
  O  O243  1  0.64296356  0.98903493  0.75103070  1
  O  O244  1  0.37535560  -0.00301980  0.26719314  1
  O  O245  1  0.36873333  0.00359220  0.77473990  1
  O  O246  1  0.36054110  0.48461147  0.27435846  1
  O  O247  1  0.36611375  0.50271333  0.75674326  1
  O  O248  1  0.87376197  0.00790852  0.26607678  1
  O  O249  1  0.87143683  -0.01811413  0.75723951  1
  O  O250  1  0.86225912  0.49500817  0.26127054  1
  O  O251  1  0.87210257  0.51535661  0.74732629  1
  O  O252  1  0.10572480  0.38418880  0.35895412  1
  O  O253  1  0.13012598  0.37758904  0.86067735  1
  O  O254  1  0.13034464  0.88234525  0.36209075  1
  O  O255  1  0.09154637  0.88097354  0.90658655  1
  O  O256  1  0.69057347  0.35929393  0.34421272  1
  O  O257  1  0.61885610  0.38337104  0.87634449  1
  O  O258  1  0.61450037  0.86369896  0.38338230  1
  O  O259  1  0.61881255  0.87200864  0.86720702  1
  O  O260  1  0.38751926  0.10585738  0.13040633  1
  O  O261  1  0.38969874  0.13262615  0.62267768  1
  O  O262  1  0.37097790  0.63855424  0.12386641  1
  O  O263  1  0.39248463  0.62288566  0.64085943  1
  O  O264  1  0.88606746  0.10458583  0.14011825  1
  O  O265  1  0.89322983  0.13481538  0.60702272  1
  O  O266  1  0.88346290  0.64561948  0.12648604  1
  O  O267  1  0.85708367  0.63148957  0.63778378  1
  O  O268  1  0.24023513  0.25918362  0.11635308  1
  O  O269  1  0.25980887  0.24834885  0.61750792  1
  O  O270  1  0.25781304  0.75171410  0.11867127  1
  O  O271  1  0.21082019  0.80691737  0.63232967  1
  O  O272  1  0.72479328  0.21794669  0.08539643  1
  O  O273  1  0.76336087  0.25684511  0.62266017  1
  O  O274  1  0.75160349  0.76237486  0.12332446  1
  O  O275  1  0.75585126  0.75811713  0.63115589  1
  O  O276  1  0.26160099  0.23576417  0.39155044  1
  O  O277  1  0.24449963  0.23630872  0.87999821  1
  O  O278  1  0.31879652  0.71799381  0.40080335  1
  O  O279  1  0.25529217  0.73999637  0.88515412  1
  O  O280  1  0.76720602  0.21759702  0.38878807  1
  O  O281  1  0.70860241  0.23200497  0.83299974  1
  O  O282  1  0.73189647  0.74345894  0.37033210  1
  O  O283  1  0.74157158  0.74532205  0.88314656  1
  O  O284  1  -0.01186188  0.11606852  0.01000919  1
  O  O285  1  0.01640177  0.12930355  0.50679200  1
  O  O286  1  -0.00384303  0.64205565  0.01189310  1
  O  O287  1  0.02762640  0.65371977  0.48645307  1
  O  O288  1  0.49616298  0.11512913  0.01455392  1
  O  O289  1  0.50728757  0.11639941  0.49952366  1
  O  O290  1  0.50647355  0.62702401  0.00535516  1
  O  O291  1  0.50372440  0.63803970  0.52233537  1
  O  O292  1  0.56396411  0.39142052  0.46951050  1
  O  O293  1  0.50955861  0.38700366  0.98760788  1
  O  O294  1  0.49157221  0.88902240  0.49853827  1
  O  O295  1  0.48840553  0.86857168  0.99284544  1
  O  O296  1  0.99476294  0.37524545  0.48429872  1
  O  O297  1  0.97017160  0.35864541  0.97565404  1
  O  O298  1  1.01798311  0.85978104  0.50910813  1
  O  O299  1  1.03669336  0.87500393  0.96076237  1
  O  O300  1  0.47146508  0.50573849  0.39786789  1
  O  O301  1  0.48925229  0.49541087  0.87048789  1
  O  O302  1  0.48741196  0.99759947  0.38625591  1
  O  O303  1  0.48610537  0.99079429  0.88995758  1
  O  O304  1  0.97845348  0.50170297  0.36831282  1
  O  O305  1  1.00468422  0.49298315  0.86843042  1
  O  O306  1  0.99054656  0.99738235  0.37428599  1
  O  O307  1  0.96883764  1.01792909  0.86285666  1
  O  O308  1  0.00670046  -0.00112519  0.12447700  1
  O  O309  1  -0.00114927  0.01018394  0.63536322  1
  O  O310  1  -0.00678381  0.52149954  0.12320542  1
  O  O311  1  0.01181216  0.50346286  0.61924640  1
  O  O312  1  0.50960798  -0.00542321  0.13141313  1
  O  O313  1  0.49455651  0.01523956  0.61485590  1
  O  O314  1  0.48695157  0.48972181  0.14369565  1
  O  O315  1  0.51188616  0.49789100  0.63535859  1
  O  O316  1  0.22380396  0.35839053  0.23319938  1
  O  O317  1  0.24699891  0.38419142  0.75483713  1
  O  O318  1  0.23736709  0.85784312  0.24291713  1
  O  O319  1  0.23959697  0.89884310  0.77444736  1
  O  O320  1  0.74777967  0.33997465  0.21348949  1
  O  O321  1  0.75192751  0.37308622  0.74117599  1
  O  O322  1  0.73990478  0.86817938  0.24731343  1
  O  O323  1  0.74122865  0.87847722  0.74446772  1
  O  O324  1  0.24295470  0.15315224  0.26724158  1
  O  O325  1  0.23676058  0.11864870  0.77092737  1
  O  O326  1  0.21108899  0.63317038  0.28657831  1
  O  O327  1  0.26400057  0.61989595  0.75577060  1
  O  O328  1  0.75151580  0.12273179  0.26071629  1
  O  O329  1  0.76397753  0.10043790  0.72768945  1
  O  O330  1  0.73422325  0.62286304  0.26834066  1
  O  O331  1  0.75396924  0.62625974  0.76684347  1
  O  O332  1  0.36237521  0.11267923  0.38139864  1
  O  O333  1  0.38196739  0.11601697  0.89007255  1
  O  O334  1  0.41372391  0.55203779  0.42824516  1
  O  O335  1  0.37503295  0.61726201  0.86299758  1
  O  O336  1  0.87381514  0.10976461  0.37054142  1
  O  O337  1  0.84975342  0.16770677  0.89549215  1
  O  O338  1  0.85319760  0.61100024  0.37622843  1
  O  O339  1  0.86125110  0.63588900  0.86780102  1
  O  O340  1  0.09682442  0.38427897  0.12870067  1
  O  O341  1  0.12277194  0.38777447  0.63467061  1
  O  O342  1  0.12961341  0.88221688  0.12997719  1
  O  O343  1  0.16144439  0.86385158  0.63315209  1
  O  O344  1  0.64020562  0.38775539  0.14232907  1
  O  O345  1  0.63063100  0.38175327  0.62968405  1
  O  O346  1  0.63017449  0.87997276  0.12946113  1
  O  O347  1  0.63384866  0.86798930  0.64005100  1
  O  O348  1  0.09928559  0.26747766  0.23891419  1
  O  O349  1  0.11781337  0.26396434  0.74072334  1
  O  O350  1  0.10998388  0.76351042  0.24412645  1
  O  O351  1  0.10599071  0.72945170  0.73837452  1
  O  O352  1  0.60830240  0.25742638  0.24817285  1
  O  O353  1  0.65118319  0.24128178  0.76720893  1
  O  O354  1  0.60587202  0.74614826  0.26563657  1
  O  O355  1  0.63016518  0.75870031  0.76502405  1
  O  O356  1  0.40106084  0.28350665  0.25633045  1
  O  O357  1  0.36719232  0.25073386  0.73413792  1
  O  O358  1  0.38031863  0.75151883  0.23945660  1
  O  O359  1  0.36836026  0.73956784  0.75380963  1
  O  O360  1  0.87079973  0.22376702  0.25682041  1
  O  O361  1  0.89146445  0.25595236  0.73459499  1
  O  O362  1  0.88742401  0.76337392  0.23701618  1
  O  O363  1  0.87782477  0.74042716  0.74058522  1
  O  O364  1  0.36840834  0.51164843  0.48376888  1
  O  O365  1  0.37326169  0.50848662  0.98359783  1
  O  O366  1  0.38133927  0.99514140  0.49622690  1
  O  O367  1  0.35952014  0.98438494  0.98985849  1
  O  O368  1  0.87049902  0.49207899  0.49582462  1
  O  O369  1  0.95810289  0.51249762  0.92083939  1
  O  O370  1  0.88234985  0.99240267  0.49029476  1
  O  O371  1  0.86132296  0.99871875  0.98226006  1
  O  O372  1  0.12742276  -0.00159886  0.01718113  1
  O  O373  1  0.13190639  0.01190777  0.50693884  1
  O  O374  1  0.11326819  0.49291639  0.01095709  1
  O  O375  1  0.14082705  0.49899110  0.51492224  1
  O  O376  1  0.61946732  -0.00298310  0.00414358  1
  O  O377  1  0.60768845  0.00400504  0.49701204  1
  O  O378  1  0.62535291  0.51741575  0.00435981  1
  O  O379  1  0.62801759  0.51656839  0.52369620  1
  O  O380  1  0.35327601  0.38226749  0.12855082  1
  O  O381  1  0.38561026  0.36469695  0.62508199  1
  O  O382  1  0.36535048  0.86861841  0.11948556  1
  O  O383  1  0.37405004  0.89534489  0.62244416  1
  O  O384  1  0.87097352  0.36971600  0.11975713  1
  O  O385  1  0.87290686  0.37257156  0.61943873  1
  O  O386  1  0.85327670  0.87892908  0.13014792  1
  O  O387  1  0.86341046  0.85516901  0.61247134  1
  O  O388  1  0.13771753  0.11794798  0.38580578  1
  O  O389  1  0.12325983  0.12067613  0.88543501  1
  O  O390  1  0.15573230  0.61948607  0.33758711  1
  O  O391  1  0.14407540  0.61756803  0.86563638  1
  O  O392  1  0.63723804  0.11517504  0.38626475  1
  O  O393  1  0.60203862  0.10862167  0.88752385  1
  O  O394  1  0.62405312  0.62872439  0.38590481  1
  O  O395  1  0.63156295  0.63237783  0.88288817  1
