# generated using pymatgen
data_V35Zn35O128
_symmetry_space_group_name_H-M   'P 1'
_cell_length_a   16.86251789
_cell_length_b   16.87212934
_cell_length_c   16.87765790
_cell_angle_alpha   89.96596580
_cell_angle_beta   89.89601034
_cell_angle_gamma   90.23045386
_symmetry_Int_Tables_number   1
_chemical_formula_structural   V35Zn35O128
_chemical_formula_sum   'V70 Zn70 O256'
_cell_volume   4801.75715708
_cell_formula_units_Z   2
loop_
 _symmetry_equiv_pos_site_id
 _symmetry_equiv_pos_as_xyz
  1  'x, y, z'
loop_
 _atom_site_type_symbol
 _atom_site_label
 _atom_site_symmetry_multiplicity
 _atom_site_fract_x
 _atom_site_fract_y
 _atom_site_fract_z
 _atom_site_occupancy
  V  V0  1  0.62016603  0.75232632  0.88076719  1
  V  V1  1  0.36487103  -0.00730808  0.37462337  1
  V  V2  1  0.12956095  0.61790174  0.49171611  1
  V  V3  1  0.62828408  0.02325755  0.60590403  1
  V  V4  1  0.75079454  0.74540877  0.49699717  1
  V  V5  1  0.37870904  0.47866945  0.38379351  1
  V  V6  1  0.74489334  0.11998069  0.87420088  1
  V  V7  1  -0.00671387  -0.00388871  -0.01392239  1
  V  V8  1  0.75776011  0.63037522  0.89451498  1
  V  V9  1  0.75291447  0.51155799  0.75391096  1
  V  V10  1  0.49736487  0.86714152  0.37995358  1
  V  V11  1  0.87247620  0.24696917  0.12500958  1
  V  V12  1  0.50309448  0.02110200  0.49083597  1
  V  V13  1  0.61228016  0.12006922  0.00801219  1
  V  V14  1  0.60799295  0.62278966  0.01255785  1
  V  V15  1  0.26109371  0.74185523  0.52082121  1
  V  V16  1  0.00963385  0.86123493  0.35838137  1
  V  V17  1  0.63324681  0.88135982  0.23607113  1
  V  V18  1  0.47800144  0.62768412  0.66905273  1
  V  V19  1  0.25107130  0.65362853  0.87196961  1
  V  V20  1  0.00229131  0.63704419  0.63092186  1
  V  V21  1  0.50401754  0.88623919  0.87300812  1
  V  V22  1  0.61809875  0.26279356  0.88675105  1
  V  V23  1  0.24985710  0.26540997  0.01305192  1
  V  V24  1  0.86834134  0.76171900  0.11085915  1
  V  V25  1  0.00286203  0.26508976  0.25482603  1
  V  V26  1  0.09874706  0.74993827  0.85105005  1
  V  V27  1  0.74736916  0.25702739  0.00554391  1
  V  V28  1  0.00233471  0.36017983  0.86291467  1
  V  V29  1  0.12255643  0.48630192  0.63021533  1
  V  V30  1  0.49789395  0.73585797  0.24244647  1
  V  V31  1  0.49750837  0.11420274  0.13387478  1
  V  V32  1  0.12382434  0.48289508  0.11815229  1
  V  V33  1  0.13393971  0.24892241  0.86734728  1
  V  V34  1  0.37373855  0.74324094  0.10954036  1
  V  V35  1  0.26251027  0.25412381  0.53777817  1
  V  V36  1  0.36061478  0.61371141  0.25094502  1
  V  V37  1  0.01281651  0.63100794  0.09735910  1
  V  V38  1  0.72891781  0.87279395  0.61423243  1
  V  V39  1  0.88154575  0.37855248  0.00676691  1
  V  V40  1  0.36484322  0.12301466  0.25542076  1
  V  V41  1  0.62420136  0.59705571  0.49825377  1
  V  V42  1  0.11448643  -0.00423084  0.59703177  1
  V  V43  1  0.37709766  0.26383538  0.13201726  1
  V  V44  1  0.38871884  0.38032502  0.52888292  1
  V  V45  1  0.92769822  0.43180171  0.44267749  1
  V  V46  1  -0.00316564  0.13490925  0.60562816  1
  V  V47  1  0.13410819  0.12041174  -0.00273999  1
  V  V48  1  0.88116614  0.86772086  0.50279679  1
  V  V49  1  0.14473249  0.25386064  0.38800663  1
  V  V50  1  0.49120458  0.38772073  0.90172809  1
  V  V51  1  0.01307073  0.11926918  0.12808834  1
  V  V52  1  0.88788627  0.49849489  0.87870642  1
  V  V53  1  0.24323663  0.88369475  0.12351254  1
  V  V54  1  0.87911391  0.12917099  0.74375440  1
  V  V55  1  0.36382914  0.50481723  0.89501353  1
  V  V56  1  0.25271046  0.48822401  0.74901279  1
  V  V57  1  0.22600661  -0.00699431  0.74841267  1
  V  V58  1  0.76101632  0.36910853  0.63614248  1
  V  V59  1  0.62463869  0.74397699  0.37075495  1
  V  V60  1  0.73867536  0.12349014  0.37395312  1
  V  V61  1  0.89248537  0.63308518  0.24824852  1
  V  V62  1  0.75447733  0.48716619  0.23816278  1
  V  V63  1  0.38611154  0.90100261  0.00250281  1
  V  V64  1  0.75909658  0.61872345  0.36422257  1
  V  V65  1  0.87436139  0.10639010  0.24477938  1
  V  V66  1  0.61690376  0.48688149  0.12752638  1
  V  V67  1  0.62130594  0.39215423  0.75359681  1
  V  V68  1  0.49668476  0.25663253  0.73836264  1
  V  V69  1  0.87930973  -0.00611128  0.38036847  1
  Zn  Zn70  1  0.21237785  -0.00337073  0.24883130  1
  Zn  Zn71  1  0.35352560  0.13572316  0.77561067  1
  Zn  Zn72  1  0.23907236  0.47408822  0.24492221  1
  Zn  Zn73  1  0.88498916  0.62980677  0.74893247  1
  Zn  Zn74  1  0.75266370  0.23668928  0.52062969  1
  Zn  Zn75  1  0.72823632  -0.00463184  0.75884849  1
  Zn  Zn76  1  0.18735912  0.19602430  0.20046273  1
  Zn  Zn77  1  0.18140323  0.16982579  0.68518064  1
  Zn  Zn78  1  0.19232046  0.69089600  0.17832980  1
  Zn  Zn79  1  0.18877047  0.68015205  0.69366039  1
  Zn  Zn80  1  0.69975508  0.16576918  0.18037173  1
  Zn  Zn81  1  0.66291164  0.19220444  0.69676420  1
  Zn  Zn82  1  0.68991599  0.69056897  0.18224341  1
  Zn  Zn83  1  0.64790446  0.69516349  0.67212168  1
  Zn  Zn84  1  0.31179053  0.31351368  0.31506589  1
  Zn  Zn85  1  0.31622606  0.31607320  0.81718022  1
  Zn  Zn86  1  0.31415140  0.81669661  0.29892865  1
  Zn  Zn87  1  0.29897584  0.86036319  0.82194889  1
  Zn  Zn88  1  0.82078734  0.30729501  0.31684243  1
  Zn  Zn89  1  0.81058362  0.31135368  0.81456976  1
  Zn  Zn90  1  0.81602810  0.81059047  0.30391940  1
  Zn  Zn91  1  0.75675705  0.79497786  0.78648646  1
  Zn  Zn92  1  0.20061381  0.43163191  0.44376078  1
  Zn  Zn93  1  0.17833699  0.43836548  0.94278240  1
  Zn  Zn94  1  0.18862036  0.92140637  0.44950591  1
  Zn  Zn95  1  0.19079916  0.93765807  0.94979579  1
  Zn  Zn96  1  0.73360655  0.42886989  0.43382713  1
  Zn  Zn97  1  0.69228457  0.44437545  0.94508311  1
  Zn  Zn98  1  0.68839383  0.93828708  0.42477583  1
  Zn  Zn99  1  0.68706623  0.93729849  0.96282491  1
  Zn  Zn100  1  0.31053551  0.06615199  0.06840691  1
  Zn  Zn101  1  0.31097743  0.05587810  0.56598044  1
  Zn  Zn102  1  0.27972284  0.57459393  0.05431153  1
  Zn  Zn103  1  0.31393516  0.56530676  0.56687333  1
  Zn  Zn104  1  0.80732319  0.05059638  0.05691971  1
  Zn  Zn105  1  0.81511054  0.06386789  0.55489773  1
  Zn  Zn106  1  0.82143078  0.56275549  0.07234340  1
  Zn  Zn107  1  0.81463100  0.56504468  0.56634647  1
  Zn  Zn108  1  0.40665243  0.47414610  0.11065959  1
  Zn  Zn109  1  0.44249336  0.45788441  0.70438598  1
  Zn  Zn110  1  0.44200512  0.93138288  0.19256490  1
  Zn  Zn111  1  0.49921634  0.95603116  0.70241883  1
  Zn  Zn112  1  0.94264006  0.45186932  0.18650725  1
  Zn  Zn113  1  0.94170948  0.43765889  0.68558966  1
  Zn  Zn114  1  0.95186827  0.93093079  0.18019883  1
  Zn  Zn115  1  0.91267224  0.96522921  0.67147972  1
  Zn  Zn116  1  0.08192491  0.05772609  0.39087550  1
  Zn  Zn117  1  0.06165248  0.06040630  0.80743165  1
  Zn  Zn118  1  0.06200516  0.53666659  0.31443842  1
  Zn  Zn119  1  0.07059770  0.56298029  0.81125267  1
  Zn  Zn120  1  0.55569027  0.05832228  0.30619117  1
  Zn  Zn121  1  0.52059081  0.09094079  0.83759730  1
  Zn  Zn122  1  0.56232427  0.54970681  0.30982948  1
  Zn  Zn123  1  0.55922565  0.56758334  0.82671314  1
  Zn  Zn124  1  0.40531640  0.18445934  0.45241245  1
  Zn  Zn125  1  0.42844725  0.19371261  0.94496143  1
  Zn  Zn126  1  0.43777714  0.66755664  0.43459211  1
  Zn  Zn127  1  0.43769030  0.68553157  0.92884373  1
  Zn  Zn128  1  0.93279465  0.19526017  0.43334402  1
  Zn  Zn129  1  0.93549189  0.17867408  0.93776472  1
  Zn  Zn130  1  0.94698635  0.68009994  0.44089147  1
  Zn  Zn131  1  0.93665182  0.69753115  0.93478820  1
  Zn  Zn132  1  0.05793919  0.30695689  0.05695099  1
  Zn  Zn133  1  0.06494212  0.31180754  0.55510259  1
  Zn  Zn134  1  0.05520051  0.81192083  0.05846891  1
  Zn  Zn135  1  0.07168502  0.80149488  0.55208633  1
  Zn  Zn136  1  0.55760938  0.31144285  0.07764438  1
  Zn  Zn137  1  0.57126579  0.34136414  0.56239313  1
  Zn  Zn138  1  0.56204296  0.80950695  0.05794548  1
  Zn  Zn139  1  0.55201921  0.79275004  0.55683712  1
  O  O140  1  0.11681716  0.13439226  0.11904810  1
  O  O141  1  0.10289282  0.11587693  0.62302619  1
  O  O142  1  0.11436897  0.64217208  0.11587660  1
  O  O143  1  0.11724877  0.61490544  0.62359528  1
  O  O144  1  0.61064950  0.13763987  0.12100880  1
  O  O145  1  0.63825380  0.12245882  0.60659685  1
  O  O146  1  0.62311064  0.62403233  0.11522845  1
  O  O147  1  0.65392414  0.60950891  0.59598755  1
  O  O148  1  0.38061285  0.37457525  0.38306487  1
  O  O149  1  0.38497347  0.38464131  0.88594828  1
  O  O150  1  0.38361084  0.88495477  0.36276329  1
  O  O151  1  0.39195379  0.88117973  0.89060231  1
  O  O152  1  0.84275477  0.38419273  0.39644886  1
  O  O153  1  0.88438777  0.37657698  0.88156623  1
  O  O154  1  0.87688833  0.88007444  0.37736587  1
  O  O155  1  0.85152006  0.88556374  0.86796767  1
  O  O156  1  0.26486415  -0.01270870  0.37932122  1
  O  O157  1  0.23810655  -0.03030096  0.85165979  1
  O  O158  1  0.27095712  0.48233328  0.35869706  1
  O  O159  1  0.25704129  0.49554400  0.87860911  1
  O  O160  1  0.76713967  0.00735880  0.37233500  1
  O  O161  1  0.72567908  0.01710069  0.87853962  1
  O  O162  1  0.74832263  0.51397987  0.35459651  1
  O  O163  1  0.76338217  0.50888729  0.87499493  1
  O  O164  1  0.23275402  0.50137622  0.12480480  1
  O  O165  1  0.24729272  0.50433000  0.64466808  1
  O  O166  1  0.24575796  0.98975888  0.12488332  1
  O  O167  1  0.22092790  1.01283475  0.62240007  1
  O  O168  1  0.74362117  0.50395253  0.13356394  1
  O  O169  1  0.76026197  0.49607506  0.65229578  1
  O  O170  1  0.74748194  0.95689240  0.05469408  1
  O  O171  1  0.73359728  0.98844880  0.59877357  1
  O  O172  1  -0.00655647  0.36213185  0.23162896  1
  O  O173  1  -0.00415353  0.36777441  0.76469199  1
  O  O174  1  0.00666900  0.87062163  0.25780266  1
  O  O175  1  -0.07888827  0.81419237  0.73769950  1
  O  O176  1  0.50802864  0.29321069  0.33515517  1
  O  O177  1  0.51068796  0.37915063  0.76581147  1
  O  O178  1  0.50673312  0.85885038  0.25909120  1
  O  O179  1  0.49833727  0.86795365  0.77234036  1
  O  O180  1  0.49067360  0.12729469  0.24015157  1
  O  O181  1  0.53062353  0.15931382  0.74447304  1
  O  O182  1  0.49576095  0.63384280  0.24793275  1
  O  O183  1  0.48665569  0.63498650  0.77180570  1
  O  O184  1  0.98565636  0.13737275  0.23336600  1
  O  O185  1  0.98085539  0.12331389  0.75241874  1
  O  O186  1  0.98996582  0.62168562  0.26165369  1
  O  O187  1  1.00232760  0.62248888  0.73905260  1
  O  O188  1  0.35934817  0.24734185  0.01657274  1
  O  O189  1  0.38076358  0.27177860  0.52318120  1
  O  O190  1  0.38362828  0.75061403  0.00943884  1
  O  O191  1  0.35947002  0.72393327  0.49227344  1
  O  O192  1  0.86732934  0.25310180  0.00585348  1
  O  O193  1  0.85840525  0.25726732  0.48949919  1
  O  O194  1  0.87790639  0.75633833  0.00868537  1
  O  O195  1  0.86159842  0.75711206  0.49127759  1
  O  O196  1  0.15876413  0.25450812  0.50599389  1
  O  O197  1  0.13626879  0.24192781  0.99889655  1
  O  O198  1  0.14142957  0.72816711  0.49863525  1
  O  O199  1  0.12694859  0.78009817  0.96102906  1
  O  O200  1  0.64404730  0.28939975  0.47996735  1
  O  O201  1  0.63007329  0.25636050  1.00129435  1
  O  O202  1  0.63435200  0.73773155  0.48414162  1
  O  O203  1  0.62535586  0.73290407  0.99450593  1
  O  O204  1  0.48103436  0.24333159  0.12621847  1
  O  O205  1  0.51313410  0.27338033  0.64151822  1
  O  O206  1  0.48698705  0.75284952  0.13651722  1
  O  O207  1  0.53558689  0.71367097  0.63516698  1
  O  O208  1  0.98910715  0.23859037  0.12558294  1
  O  O209  1  1.00447616  0.23461206  0.61794685  1
  O  O210  1  0.99124934  0.73737530  0.11775021  1
  O  O211  1  1.00904157  0.73718111  0.62558103  1
  O  O212  1  -0.02945973  0.26507134  0.34988112  1
  O  O213  1  0.00847402  0.25414901  0.87965184  1
  O  O214  1  -0.00546751  0.76178763  0.37642577  1
  O  O215  1  -0.00200857  0.74567144  0.85284195  1
  O  O216  1  0.50813163  0.23221495  0.38568606  1
  O  O217  1  0.50461482  0.27158315  0.88055885  1
  O  O218  1  0.50585792  0.74628159  0.36395013  1
  O  O219  1  0.51693104  0.75511714  0.87882417  1
  O  O220  1  0.29388127  0.15496389  0.50836313  1
  O  O221  1  0.23731940  0.13017039  1.00506747  1
  O  O222  1  0.24007527  0.62749895  0.50345262  1
  O  O223  1  0.24388350  0.64184567  0.97361327  1
  O  O224  1  0.75256447  0.12553094  0.48083489  1
  O  O225  1  0.73322933  0.13632377  0.99508284  1
  O  O226  1  0.75209215  0.62716555  0.48061790  1
  O  O227  1  0.75561815  0.61927179  0.99431768  1
  O  O228  1  0.24515523  0.36357347  0.00688323  1
  O  O229  1  0.27148030  0.36226592  0.50842259  1
  O  O230  1  0.27479111  0.88318955  0.00970326  1
  O  O231  1  0.25223075  0.83790405  0.48449895  1
  O  O232  1  0.76509106  0.36429470  -0.00869589  1
  O  O233  1  0.75229420  0.39176497  0.53964829  1
  O  O234  1  0.82955261  0.88475909  -0.06201640  1
  O  O235  1  0.75243960  0.86327959  0.49630360  1
  O  O236  1  0.12707494  0.50519258  0.23002457  1
  O  O237  1  0.13810385  0.49765017  0.74417268  1
  O  O238  1  0.11946035  1.04060948  0.28581442  1
  O  O239  1  0.12251043  0.99112744  0.73832212  1
  O  O240  1  0.64035875  0.50494612  0.23707687  1
  O  O241  1  0.63917077  0.49838081  0.77291552  1
  O  O242  1  0.61708262  0.98042180  0.24811712  1
  O  O243  1  0.61647805  1.00136937  0.70924881  1
  O  O244  1  0.38140053  0.00807910  0.26206558  1
  O  O245  1  0.39934987  0.02336163  0.71234656  1
  O  O246  1  0.37090676  0.51541962  0.22041685  1
  O  O247  1  0.36085527  0.49798953  0.77512758  1
  O  O248  1  0.88419896  0.00466496  0.25006784  1
  O  O249  1  0.84506932  0.02184364  0.74467650  1
  O  O250  1  0.86215247  0.51831605  0.23741152  1
  O  O251  1  0.86667799  0.49919693  0.76535346  1
  O  O252  1  0.12650594  0.35503614  0.39308694  1
  O  O253  1  0.11130903  0.36147174  0.88280465  1
  O  O254  1  0.10578249  0.87984216  0.38304103  1
  O  O255  1  0.12211498  0.84734333  0.90631862  1
  O  O256  1  0.65252600  0.33459756  0.41542943  1
  O  O257  1  0.61356273  0.38054138  0.88209072  1
  O  O258  1  0.61841938  0.85930269  0.36588598  1
  O  O259  1  0.62826636  0.85926904  0.89659885  1
  O  O260  1  0.38403294  0.12776075  0.13485698  1
  O  O261  1  0.39132952  0.08204966  0.65512051  1
  O  O262  1  0.36504559  0.64016332  0.12546011  1
  O  O263  1  0.38195927  0.62678021  0.63628316  1
  O  O264  1  0.87377232  0.12558865  0.12991021  1
  O  O265  1  0.88173148  0.12067377  0.63220646  1
  O  O266  1  0.89326347  0.63094385  0.13180998  1
  O  O267  1  0.89367142  0.62194323  0.62856046  1
  O  O268  1  0.25685819  0.24692595  0.11950515  1
  O  O269  1  0.25279852  0.24798979  0.63698106  1
  O  O270  1  0.26982936  0.76611669  0.13086127  1
  O  O271  1  0.25282471  0.74473681  0.62162959  1
  O  O272  1  0.75814730  0.24347599  0.11651817  1
  O  O273  1  0.72835504  0.26620764  0.63210162  1
  O  O274  1  0.76869175  0.74068801  0.12129730  1
  O  O275  1  0.73599333  0.76131281  0.61019015  1
  O  O276  1  0.24315776  0.23537462  0.36909060  1
  O  O277  1  0.24059322  0.25640107  0.89032269  1
  O  O278  1  0.20985500  0.75578946  0.33646194  1
  O  O279  1  0.26967455  0.75162968  0.85451145  1
  O  O280  1  0.75428178  0.22325585  0.35718746  1
  O  O281  1  0.73483166  0.24623630  0.88654887  1
  O  O282  1  0.74294259  0.73997507  0.37570762  1
  O  O283  1  0.75296449  0.73475614  0.88418620  1
  O  O284  1  0.01215939  0.12589192  0.01142652  1
  O  O285  1  -0.01983251  0.12105513  0.50707197  1
  O  O286  1  0.00179852  0.62527913  -0.00154542  1
  O  O287  1  0.01611387  0.62439083  0.51403366  1
  O  O288  1  0.50700291  0.13831300  0.01626282  1
  O  O289  1  0.49994982  0.11933475  0.48722059  1
  O  O290  1  0.50971443  0.62057219  -0.00338326  1
  O  O291  1  0.52354291  0.61530185  0.49053229  1
  O  O292  1  0.48814558  0.38826890  0.50548727  1
  O  O293  1  0.49854926  0.38044496  1.00039107  1
  O  O294  1  0.50013712  0.85961482  0.48166111  1
  O  O295  1  0.49297708  0.87473571  0.99371700  1
  O  O296  1  0.98412841  0.36929067  0.50022570  1
  O  O297  1  0.98434461  0.36706215  0.98821610  1
  O  O298  1  0.98127117  0.86210017  0.49736892  1
  O  O299  1  0.99767500  0.89872589  1.01251604  1
  O  O300  1  0.47700934  0.49192209  0.35488991  1
  O  O301  1  0.48463827  0.49425906  0.88236808  1
  O  O302  1  0.49605194  0.98802862  0.38173060  1
  O  O303  1  0.52800416  0.98326288  0.87104530  1
  O  O304  1  0.98405455  0.47818998  0.37156451  1
  O  O305  1  0.99331562  0.48816645  0.86990142  1
  O  O306  1  0.98381332  0.98474217  0.37636940  1
  O  O307  1  1.00918434  0.99799741  0.88583656  1
  O  O308  1  0.00179941  0.01723069  0.12008676  1
  O  O309  1  0.00550953  0.00884556  0.62354921  1
  O  O310  1  0.01143228  0.52247000  0.12620579  1
  O  O311  1  0.01726224  0.50330939  0.63256914  1
  O  O312  1  0.49700927  0.01510588  0.12922434  1
  O  O313  1  0.51464234  -0.00169647  0.59591801  1
  O  O314  1  0.51732868  0.49700777  0.13049806  1
  O  O315  1  0.51283834  0.53300324  0.65180268  1
  O  O316  1  0.25039294  0.36092784  0.23616417  1
  O  O317  1  0.24977303  0.38746788  0.75904574  1
  O  O318  1  0.25449530  0.88701549  0.23214554  1
  O  O319  1  0.27822993  0.90851515  0.71967433  1
  O  O320  1  0.76198058  0.38908406  0.24979280  1
  O  O321  1  0.73749836  0.38691803  0.75984513  1
  O  O322  1  0.73221246  0.86669047  0.25384024  1
  O  O323  1  0.74461272  0.88382048  0.71920628  1
  O  O324  1  0.26342585  0.11312655  0.23881914  1
  O  O325  1  0.24968243  0.10023520  0.75046971  1
  O  O326  1  0.26062640  0.62709709  0.24622514  1
  O  O327  1  0.24716618  0.61005829  0.77175784  1
  O  O328  1  0.76729506  0.11373536  0.25097059  1
  O  O329  1  0.72684707  0.12876817  0.77110052  1
  O  O330  1  0.75750893  0.62760121  0.25755007  1
  O  O331  1  0.75553662  0.61616676  0.76364146  1
  O  O332  1  0.37684586  0.11295768  0.36137221  1
  O  O333  1  0.41290305  0.11609629  0.86784044  1
  O  O334  1  0.37556907  0.60554302  0.35488887  1
  O  O335  1  0.36294907  0.61242481  0.88209100  1
  O  O336  1  0.87905854  0.10919839  0.35869185  1
  O  O337  1  0.85011250  0.12855814  0.87130923  1
  O  O338  1  0.86603972  0.63167775  0.36377592  1
  O  O339  1  0.86945095  0.61845211  0.87480985  1
  O  O340  1  0.11272333  0.38284355  0.12048597  1
  O  O341  1  0.12288885  0.38689722  0.62343214  1
  O  O342  1  0.14617644  0.86247408  0.11042549  1
  O  O343  1  0.11417978  0.89488342  0.60014929  1
  O  O344  1  0.62985476  0.38694527  0.12186887  1
  O  O345  1  0.63050707  0.39090788  0.65151758  1
  O  O346  1  0.62024717  0.86351688  0.13705550  1
  O  O347  1  0.62803995  0.87426186  0.60471338  1
  O  O348  1  0.10831052  0.24809894  0.26580156  1
  O  O349  1  0.13515847  0.23938181  0.76962680  1
  O  O350  1  0.15490802  0.74746508  0.28520846  1
  O  O351  1  0.13139824  0.76438430  0.75660689  1
  O  O352  1  0.56716532  0.29862875  0.28843526  1
  O  O353  1  0.61921172  0.27733578  0.76990425  1
  O  O354  1  0.61312830  0.74681897  0.25344149  1
  O  O355  1  0.64558260  0.74471764  0.77701302  1
  O  O356  1  0.36786356  0.23364537  0.24146940  1
  O  O357  1  0.39226542  0.25022606  0.75717221  1
  O  O358  1  0.38513362  0.73791211  0.24869612  1
  O  O359  1  0.38822349  0.79634056  0.67192752  1
  O  O360  1  0.87629565  0.24266863  0.23392592  1
  O  O361  1  0.85576811  0.22753068  0.75312826  1
  O  O362  1  0.87733942  0.73629107  0.24004712  1
  O  O363  1  0.86687065  0.76082958  0.74399845  1
  O  O364  1  0.36791579  0.49147852  0.48999497  1
  O  O365  1  0.36548642  0.50355004  1.00101527  1
  O  O366  1  0.38775466  1.00417747  0.48388263  1
  O  O367  1  0.38547481  0.99983831  1.00606610  1
  O  O368  1  0.88085768  0.50128448  0.50048891  1
  O  O369  1  0.87117506  0.48461469  0.99564231  1
  O  O370  1  0.87150639  0.98423594  0.48674058  1
  O  O371  1  0.89637726  1.02515243  0.99154561  1
  O  O372  1  0.11945977  0.01682616  -0.00239008  1
  O  O373  1  0.12544822  0.01123573  0.49298607  1
  O  O374  1  0.12317509  0.50352018  0.01555303  1
  O  O375  1  0.14425307  0.50603532  0.52056721  1
  O  O376  1  0.61261759  0.02274645  0.00425886  1
  O  O377  1  0.61288688  0.00048504  0.49094653  1
  O  O378  1  0.63299042  0.51293741  0.01519127  1
  O  O379  1  0.64051826  0.50045612  0.47650171  1
  O  O380  1  0.38032082  0.36251694  0.13319987  1
  O  O381  1  0.38309130  0.39719006  0.62749931  1
  O  O382  1  0.37890103  0.87043319  0.11401521  1
  O  O383  1  0.41470229  0.84564483  0.62523931  1
  O  O384  1  0.88149280  0.36725077  0.11081985  1
  O  O385  1  0.85957777  0.36589097  0.65500566  1
  O  O386  1  0.87788061  0.86033750  0.13330554  1
  O  O387  1  0.85848041  0.88380479  0.60431040  1
  O  O388  1  0.08291183  0.17180781  0.40198874  1
  O  O389  1  0.11837455  0.13818490  0.88970271  1
  O  O390  1  0.11860762  0.60093559  0.39399978  1
  O  O391  1  0.13256198  0.64755640  0.86758773  1
  O  O392  1  0.64036522  0.11320898  0.35917604  1
  O  O393  1  0.61718868  0.14441445  0.89482260  1
  O  O394  1  0.63666348  0.62783378  0.37315526  1
  O  O395  1  0.63909046  0.62808617  0.89213525  1
