# generated using pymatgen
data_V35Zn35O128
_symmetry_space_group_name_H-M   'P 1'
_cell_length_a   16.90797967
_cell_length_b   16.90614767
_cell_length_c   16.88161325
_cell_angle_alpha   89.92402455
_cell_angle_beta   90.11900413
_cell_angle_gamma   90.22653566
_symmetry_Int_Tables_number   1
_chemical_formula_structural   V35Zn35O128
_chemical_formula_sum   'V70 Zn70 O256'
_cell_volume   4825.53659109
_cell_formula_units_Z   2
loop_
 _symmetry_equiv_pos_site_id
 _symmetry_equiv_pos_as_xyz
  1  'x, y, z'
loop_
 _atom_site_type_symbol
 _atom_site_label
 _atom_site_symmetry_multiplicity
 _atom_site_fract_x
 _atom_site_fract_y
 _atom_site_fract_z
 _atom_site_occupancy
  V  V0  1  0.73982158  0.50316652  0.74340816  1
  V  V1  1  0.88035427  0.24912195  0.62435081  1
  V  V2  1  0.73337022  0.37765189  0.12489286  1
  V  V3  1  0.51150854  0.61143409  0.10594850  1
  V  V4  1  0.36037701  0.35745439  0.53245642  1
  V  V5  1  0.88040805  0.75481131  0.61934912  1
  V  V6  1  0.87559103  0.37537043  -0.01122211  1
  V  V7  1  0.74889153  -0.00517133  0.75652393  1
  V  V8  1  0.86645973  0.12854669  0.25370590  1
  V  V9  1  0.41174109  -0.00754596  0.87603836  1
  V  V10  1  0.38562097  0.12313053  0.25922642  1
  V  V11  1  -0.00424223  -0.01051212  0.48897717  1
  V  V12  1  0.24158215  0.73452201  0.49864425  1
  V  V13  1  -0.00255354  0.26619750  0.26166943  1
  V  V14  1  0.13625257  0.12980374  0.48612668  1
  V  V15  1  0.50271366  0.76411800  0.75913808  1
  V  V16  1  0.73807654  0.13064561  0.87328758  1
  V  V17  1  0.37212095  0.62341858  0.75227342  1
  V  V18  1  0.50488475  0.74396288  0.22861012  1
  V  V19  1  0.88874135  0.73892675  0.13942816  1
  V  V20  1  0.12326121  0.65665462  -0.01408612  1
  V  V21  1  0.74967332  0.87625821  0.61076182  1
  V  V22  1  0.39780239  0.88258433  0.00890004  1
  V  V23  1  0.24475656  0.85055967  0.14319614  1
  V  V24  1  0.51069597  0.11106734  0.11815149  1
  V  V25  1  0.49609386  0.49460425  0.53973957  1
  V  V26  1  0.53462900  0.24882089  0.75777691  1
  V  V27  1  0.50911478  0.39767971  0.86126127  1
  V  V28  1  0.38523254  0.48700630  0.37298529  1
  V  V29  1  0.88541401  0.12326194  0.75556595  1
  V  V30  1  0.01769381  0.49616464  -0.00501285  1
  V  V31  1  0.24939101  0.01804922  0.25650401  1
  V  V32  1  0.62637526  0.00166846  0.61205566  1
  V  V33  1  0.74080216  0.37550622  0.63016040  1
  V  V34  1  0.13696782  0.27097717  0.37332750  1
  V  V35  1  0.48686615  0.00167616  0.49039554  1
  V  V36  1  0.87600006  0.87285754  -0.00435352  1
  V  V37  1  0.38203691  0.75271529  0.62063472  1
  V  V38  1  0.72958439  0.49767941  0.24693749  1
  V  V39  1  0.22467324  0.39149639  0.12552497  1
  V  V40  1  0.25052676  0.61723771  0.36017226  1
  V  V41  1  0.73422483  0.73590607  0.49955704  1
  V  V42  1  0.87294180  -0.00775665  0.37089872  1
  V  V43  1  0.74753354  0.75065782  0.00921438  1
  V  V44  1  0.63421950  0.88303770  0.24349851  1
  V  V45  1  0.37311684  0.36454953  0.00513969  1
  V  V46  1  0.26043239  0.77344576  -0.01816849  1
  V  V47  1  0.73782325  0.24495989  -0.00386173  1
  V  V48  1  0.50400246  0.26403094  0.24149063  1
  V  V49  1  0.63644686  0.76735792  0.86740756  1
  V  V50  1  0.61893041  0.27714420  0.37485008  1
  V  V51  1  0.74461054  0.25510279  0.49885785  1
  V  V52  1  0.00957527  0.61731946  0.61781656  1
  V  V53  1  0.50085344  0.13267515  0.62137227  1
  V  V54  1  0.25478836  0.88153192  0.60500523  1
  V  V55  1  -0.00116880  -0.00401992  0.00046504  1
  V  V56  1  0.69201568  0.57994554  0.92328585  1
  V  V57  1  0.00019927  0.12583759  0.61903242  1
  V  V58  1  0.50103595  0.85304191  0.38669561  1
  V  V59  1  0.87885060  0.50951092  0.87271088  1
  V  V60  1  0.22320128  -0.01723626  0.78963075  1
  V  V61  1  0.88843736  0.38244277  0.49851536  1
  V  V62  1  0.00354715  0.12173411  0.12911027  1
  V  V63  1  0.00537644  0.76364865  0.76235441  1
  V  V64  1  0.74026166  0.12398525  0.37854789  1
  V  V65  1  0.87943181  0.49778193  0.36465190  1
  V  V66  1  0.12563605  -0.00588203  0.62153534  1
  V  V67  1  0.87205119  0.25902485  0.12497665  1
  V  V68  1  0.24585447  0.62157454  0.86518825  1
  V  V69  1  0.36933499  0.11758067  0.75686193  1
  Zn  Zn70  1  0.73881384  0.62910588  0.36094557  1
  Zn  Zn71  1  0.19010310  0.42598706  0.69198423  1
  Zn  Zn72  1  0.16040384  0.02953156  0.11586602  1
  Zn  Zn73  1  0.87186871  0.63488979  0.75256708  1
  Zn  Zn74  1  0.03495883  0.62690080  0.14321362  1
  Zn  Zn75  1  0.38038112  0.61594014  0.24272481  1
  Zn  Zn76  1  0.19040374  0.20061216  0.19625399  1
  Zn  Zn77  1  0.18675153  0.16239285  0.69562299  1
  Zn  Zn78  1  0.24692452  0.63047279  0.13412040  1
  Zn  Zn79  1  0.18188690  0.70175158  0.68748751  1
  Zn  Zn80  1  0.68120305  0.19268570  0.19041593  1
  Zn  Zn81  1  0.69469184  0.17861116  0.68094358  1
  Zn  Zn82  1  0.67766028  0.67991537  0.18562295  1
  Zn  Zn83  1  0.68338549  0.68644778  0.68446247  1
  Zn  Zn84  1  0.31917652  0.31550737  0.30193422  1
  Zn  Zn85  1  0.33230102  0.29665846  0.84228051  1
  Zn  Zn86  1  0.33089834  0.79947999  0.32506407  1
  Zn  Zn87  1  0.32081264  0.82513306  0.81022585  1
  Zn  Zn88  1  0.80742439  0.32085363  0.31411582  1
  Zn  Zn89  1  0.81224663  0.30890861  0.80760967  1
  Zn  Zn90  1  0.81243891  0.80238765  0.31585834  1
  Zn  Zn91  1  0.81985962  0.81807398  0.81128408  1
  Zn  Zn92  1  0.20290378  0.43896200  0.44488128  1
  Zn  Zn93  1  0.22314766  0.44057125  0.94336220  1
  Zn  Zn94  1  0.19513640  0.94353937  0.44085794  1
  Zn  Zn95  1  0.20820788  0.97902225  0.96287076  1
  Zn  Zn96  1  0.65370421  0.48340193  0.42296520  1
  Zn  Zn97  1  0.68528841  0.41720251  0.93238206  1
  Zn  Zn98  1  0.68139411  0.93428303  0.42713000  1
  Zn  Zn99  1  0.69776985  0.93432808  0.93779558  1
  Zn  Zn100  1  0.33968560  0.06941167  0.06726774  1
  Zn  Zn101  1  0.31808858  0.07259895  0.56114933  1
  Zn  Zn102  1  0.36411084  0.52832058  0.06346530  1
  Zn  Zn103  1  0.32399174  0.56116438  0.56443119  1
  Zn  Zn104  1  0.81317710  0.06772845  0.05996676  1
  Zn  Zn105  1  0.81361717  0.06365410  0.55523314  1
  Zn  Zn106  1  0.81465027  0.55983898  0.06664453  1
  Zn  Zn107  1  0.81683755  0.56370839  0.56708324  1
  Zn  Zn108  1  0.43955106  0.43596140  0.18801695  1
  Zn  Zn109  1  0.41550652  0.41645573  0.71455102  1
  Zn  Zn110  1  0.43882310  0.93574209  0.19467960  1
  Zn  Zn111  1  0.43992333  0.93717176  0.68172959  1
  Zn  Zn112  1  0.97732181  0.47278320  0.20469116  1
  Zn  Zn113  1  0.93564266  0.43793439  0.68759831  1
  Zn  Zn114  1  0.90198159  0.94550706  0.16977800  1
  Zn  Zn115  1  0.93131882  0.94094415  0.67914121  1
  Zn  Zn116  1  0.05979088  0.06639796  0.30559439  1
  Zn  Zn117  1  0.04552560  -0.05971506  0.82130978  1
  Zn  Zn118  1  0.06347790  0.56814671  0.34135527  1
  Zn  Zn119  1  0.05715867  0.57480106  0.80702197  1
  Zn  Zn120  1  0.56574387  0.06034802  0.30406152  1
  Zn  Zn121  1  0.56676111  0.06282549  0.80257455  1
  Zn  Zn122  1  0.55637401  0.56514250  0.31052592  1
  Zn  Zn123  1  0.54693788  0.55710042  0.71649621  1
  Zn  Zn124  1  0.43589894  0.19797649  0.43752280  1
  Zn  Zn125  1  0.44197867  0.18808319  0.93680562  1
  Zn  Zn126  1  0.43805993  0.66912018  0.44642088  1
  Zn  Zn127  1  0.43807063  0.69103938  0.92910072  1
  Zn  Zn128  1  0.93632382  0.18715861  0.43932141  1
  Zn  Zn129  1  0.93424316  0.18204123  0.94456287  1
  Zn  Zn130  1  0.91769301  0.67238332  0.44694385  1
  Zn  Zn131  1  0.93562003  0.68728603  0.94076351  1
  Zn  Zn132  1  0.05386851  0.31798837  0.06849505  1
  Zn  Zn133  1  0.06921215  0.30988949  0.55951880  1
  Zn  Zn134  1  0.05970748  0.81863119  0.07386395  1
  Zn  Zn135  1  0.06516100  0.80943486  0.55667212  1
  Zn  Zn136  1  0.55079016  0.31442848  0.04875950  1
  Zn  Zn137  1  0.55746215  0.31912324  0.55788970  1
  Zn  Zn138  1  0.57270693  0.80692807  0.06331253  1
  Zn  Zn139  1  0.56241520  0.81751920  0.56705623  1
  O  O140  1  0.10429789  0.13955137  0.13078089  1
  O  O141  1  0.11728612  0.11702045  0.61044853  1
  O  O142  1  0.13990632  0.62751371  0.08667297  1
  O  O143  1  0.10905949  0.63083258  0.63554300  1
  O  O144  1  0.61244938  0.12584014  0.13342129  1
  O  O145  1  0.61528339  0.11184770  0.62639775  1
  O  O146  1  0.61172908  0.62001151  0.10942766  1
  O  O147  1  0.60213213  0.62501315  0.64300497  1
  O  O148  1  0.37024283  0.38542405  0.37912958  1
  O  O149  1  0.40410858  0.38363109  0.82892883  1
  O  O150  1  0.40403271  0.87719618  0.36668402  1
  O  O151  1  0.39006743  0.88761298  0.88343521  1
  O  O152  1  0.87156990  0.38072541  0.39084001  1
  O  O153  1  0.86495174  0.38226464  0.88286300  1
  O  O154  1  0.86626996  0.89462448  0.36657678  1
  O  O155  1  0.87274991  0.87866609  0.89534032  1
  O  O156  1  0.24832804  -0.02129086  0.34945031  1
  O  O157  1  0.28471584  -0.00094252  0.86957254  1
  O  O158  1  0.26409550  0.51084999  0.38137305  1
  O  O159  1  0.24355022  0.52292232  0.86625736  1
  O  O160  1  0.76158159  0.01536507  0.38860889  1
  O  O161  1  0.75008596  0.00926667  0.86313968  1
  O  O162  1  0.75299517  0.48061885  0.35152041  1
  O  O163  1  0.75201500  0.50498469  0.86357733  1
  O  O164  1  0.25508470  0.49054435  0.11240823  1
  O  O165  1  0.21788549  0.49655146  0.60428402  1
  O  O166  1  0.25809172  0.96452239  0.16371715  1
  O  O167  1  0.24319527  0.98883304  0.60460113  1
  O  O168  1  0.75578210  0.48386423  0.13087820  1
  O  O169  1  0.75848194  0.48465683  0.63289723  1
  O  O170  1  0.71015690  1.00484958  0.09098495  1
  O  O171  1  0.74479021  0.99526266  0.62170844  1
  O  O172  1  -0.00653111  0.36340767  0.24125475  1
  O  O173  1  0.01005055  0.36698887  0.74958143  1
  O  O174  1  0.08901323  0.88564793  0.31877074  1
  O  O175  1  -0.01156918  0.87471726  0.75257077  1
  O  O176  1  0.50201068  0.36320528  0.24816995  1
  O  O177  1  0.51833251  0.35105781  0.74524783  1
  O  O178  1  0.50740000  0.85576653  0.25403886  1
  O  O179  1  0.50207745  0.86284016  0.74567729  1
  O  O180  1  0.49773174  0.13149704  0.24519947  1
  O  O181  1  0.49645576  0.13320009  0.74018982  1
  O  O182  1  0.50448208  0.62612894  0.22816937  1
  O  O183  1  0.47691480  0.64245106  0.75457747  1
  O  O184  1  0.98529236  0.13846017  0.24388013  1
  O  O185  1  0.98691135  0.11506359  0.73126635  1
  O  O186  1  1.02208985  0.72727014  0.33341352  1
  O  O187  1  0.99275176  0.64570937  0.74028594  1
  O  O188  1  0.35968733  0.26940500  -0.04683448  1
  O  O189  1  0.38204451  0.25785388  0.51407256  1
  O  O190  1  0.36685664  0.77229234  -0.01673983  1
  O  O191  1  0.36934339  0.74493651  0.51858689  1
  O  O192  1  0.86848830  0.25613661  0.00538557  1
  O  O193  1  0.86923343  0.25905883  0.50545563  1
  O  O194  1  0.86664688  0.75654964  0.00261797  1
  O  O195  1  0.85799973  0.75049906  0.51709506  1
  O  O196  1  0.11926177  0.23904404  0.48217384  1
  O  O197  1  0.08723675  0.25271965  0.96844700  1
  O  O198  1  0.14239743  0.75055104  0.49976438  1
  O  O199  1  0.12254557  0.75779592  0.98951268  1
  O  O200  1  0.63397452  0.25882373  0.48861236  1
  O  O201  1  0.63948095  0.25012158  1.00128540  1
  O  O202  1  0.63627444  0.75356370  0.51036897  1
  O  O203  1  0.64202321  0.75422317  0.98688505  1
  O  O204  1  0.51495137  0.24884628  0.13962204  1
  O  O205  1  0.51371127  0.23486244  0.63397928  1
  O  O206  1  0.49884905  0.73715538  0.12573735  1
  O  O207  1  0.48672367  0.75799032  0.63199018  1
  O  O208  1  0.98764088  0.24279755  0.13198013  1
  O  O209  1  0.99198702  0.23717491  0.61627655  1
  O  O210  1  0.99552166  0.73624410  0.12491478  1
  O  O211  1  0.98686064  0.76028675  0.62727972  1
  O  O212  1  -0.00451345  0.25464722  0.36434761  1
  O  O213  1  0.03314549  0.24574792  0.91369309  1
  O  O214  1  -0.03977397  0.75892738  0.37954761  1
  O  O215  1  -0.00978406  0.75206035  0.86110368  1
  O  O216  1  0.51761779  0.25148499  0.37450981  1
  O  O217  1  0.50555354  0.23859974  0.85429363  1
  O  O218  1  0.50269158  0.75352350  0.40116987  1
  O  O219  1  0.51305341  0.75349164  0.86500036  1
  O  O220  1  0.23517616  0.12271632  0.50144052  1
  O  O221  1  0.23479371  0.06472109  1.03358269  1
  O  O222  1  0.25190227  0.63481035  0.51125540  1
  O  O223  1  0.23954423  0.65298751  0.97437024  1
  O  O224  1  0.75813386  0.14175848  0.48787380  1
  O  O225  1  0.76275235  0.13097090  0.98012952  1
  O  O226  1  0.74320794  0.63663114  0.51896304  1
  O  O227  1  0.75455360  0.63556109  0.98975535  1
  O  O228  1  0.25337253  0.36160040  0.02129400  1
  O  O229  1  0.26302093  0.36231735  0.50167188  1
  O  O230  1  0.25499025  0.87617854  0.00688627  1
  O  O231  1  0.25633811  0.86525321  0.50207720  1
  O  O232  1  0.75698534  0.36482210  0.00614281  1
  O  O233  1  0.76353060  0.36404182  0.51705306  1
  O  O234  1  0.76159874  0.86087080  0.00318662  1
  O  O235  1  0.74530328  0.87048573  0.50814485  1
  O  O236  1  0.03784660  0.56378386  0.23477099  1
  O  O237  1  0.09986042  0.47296999  0.75603158  1
  O  O238  1  0.14420994  1.02761695  0.23864920  1
  O  O239  1  0.12619429  1.00706885  0.72550679  1
  O  O240  1  0.63141151  0.49037339  0.24560371  1
  O  O241  1  0.64259029  0.49605808  0.74666580  1
  O  O242  1  0.62683260  0.98476120  0.24836573  1
  O  O243  1  0.64487565  1.00702965  0.73573565  1
  O  O244  1  0.37275365  0.01599087  0.25295727  1
  O  O245  1  0.39801232  0.00260220  0.76465822  1
  O  O246  1  0.38314045  0.49756293  0.26675798  1
  O  O247  1  0.36241127  0.52624305  0.73906375  1
  O  O248  1  0.87348027  0.01251563  0.26033830  1
  O  O249  1  0.86124367  0.01632072  0.73605867  1
  O  O250  1  0.87395153  0.48889561  0.26231464  1
  O  O251  1  0.87021726  0.49583951  0.76595499  1
  O  O252  1  0.12733122  0.36982545  0.38608398  1
  O  O253  1  0.06486784  0.40191718  0.79371673  1
  O  O254  1  0.12392801  0.85758051  0.37799264  1
  O  O255  1  0.15054385  0.94893422  0.86003765  1
  O  O256  1  0.62595376  0.37469380  0.37784483  1
  O  O257  1  0.60813641  0.36650090  0.87321919  1
  O  O258  1  0.60612910  0.87854356  0.36340966  1
  O  O259  1  0.62934512  0.86741419  0.87574840  1
  O  O260  1  0.39554304  0.13135607  0.14141289  1
  O  O261  1  0.39214656  0.11207401  0.64157755  1
  O  O262  1  0.36270111  0.62099056  0.12638686  1
  O  O263  1  0.35774059  0.64766819  0.64149545  1
  O  O264  1  0.87103726  0.13692479  0.13588780  1
  O  O265  1  0.88045101  0.13182666  0.62325754  1
  O  O266  1  0.87600876  0.63947676  0.11558162  1
  O  O267  1  0.88238506  0.64266353  0.62791159  1
  O  O268  1  0.25049706  0.28140515  0.14724921  1
  O  O269  1  0.20659097  0.26696163  0.64922716  1
  O  O270  1  0.25227746  0.75325966  0.09540227  1
  O  O271  1  0.25354097  0.76624142  0.61793448  1
  O  O272  1  0.75357417  0.25687889  0.11817645  1
  O  O273  1  0.75967392  0.25282715  0.61892988  1
  O  O274  1  0.75073085  0.73962841  0.11006297  1
  O  O275  1  0.75208531  0.76420504  0.62486238  1
  O  O276  1  0.23369543  0.25598775  0.35814884  1
  O  O277  1  0.21641351  0.35400513  0.85164399  1
  O  O278  1  0.26479107  0.73187440  0.39260514  1
  O  O279  1  0.24504552  0.77091182  0.87946331  1
  O  O280  1  0.73881380  0.24773497  0.37999461  1
  O  O281  1  0.75508219  0.23783135  0.87906194  1
  O  O282  1  0.75543190  0.74129467  0.39578609  1
  O  O283  1  0.74186690  0.75591855  0.87385815  1
  O  O284  1  -0.01788708  0.10942208  0.02116464  1
  O  O285  1  0.00636561  0.11699686  0.50429226  1
  O  O286  1  0.02022826  0.62007302  -0.01560436  1
  O  O287  1  -0.00128122  0.63543095  0.51735348  1
  O  O288  1  0.49444433  0.13423401  0.01914408  1
  O  O289  1  0.49361301  0.11753585  0.51636263  1
  O  O290  1  0.48505625  0.63054422  0.00953451  1
  O  O291  1  0.47684524  0.59489290  0.52252029  1
  O  O292  1  0.47475689  0.38289103  0.51878129  1
  O  O293  1  0.48384600  0.36940366  0.97219983  1
  O  O294  1  0.50715544  0.89002636  0.49263107  1
  O  O295  1  0.49549810  0.86957678  1.00844834  1
  O  O296  1  0.98830471  0.37429033  0.51076817  1
  O  O297  1  0.98659572  0.38889573  1.00023327  1
  O  O298  1  1.00627009  0.89100052  0.49607810  1
  O  O299  1  0.98706509  0.88204513  1.00815506  1
  O  O300  1  0.48611919  0.50257531  0.38645953  1
  O  O301  1  0.51649440  0.49359515  0.84100498  1
  O  O302  1  0.50582277  1.01180131  0.39234394  1
  O  O303  1  0.51185171  0.99913684  0.87956020  1
  O  O304  1  0.97868894  0.50573994  0.38190213  1
  O  O305  1  0.98485874  0.50635405  0.88219923  1
  O  O306  1  0.98807909  1.00626056  0.37923030  1
  O  O307  1  0.99461378  1.00583479  0.90139159  1
  O  O308  1  -0.00782825  0.01815118  0.14004183  1
  O  O309  1  0.00424020  0.00386910  0.60822172  1
  O  O310  1  -0.00570824  0.51489805  0.09329650  1
  O  O311  1  -0.00957911  0.51862445  0.63052638  1
  O  O312  1  0.49923707  0.01019607  0.12920395  1
  O  O313  1  0.51347777  0.00141762  0.61605876  1
  O  O314  1  0.48321917  0.51087726  0.11304143  1
  O  O315  1  0.48645165  0.48620748  0.64449233  1
  O  O316  1  0.25806959  0.37878714  0.22790280  1
  O  O317  1  0.24606460  0.36965520  0.77731908  1
  O  O318  1  0.26105614  0.82604978  0.23841960  1
  O  O319  1  0.25608048  0.89810703  0.74086687  1
  O  O320  1  0.74761319  0.37403940  0.23006295  1
  O  O321  1  0.75833712  0.38183029  0.73743637  1
  O  O322  1  0.73203103  0.86368186  0.26328810  1
  O  O323  1  0.75847106  0.89313515  0.74230127  1
  O  O324  1  0.26839304  0.12425568  0.24286235  1
  O  O325  1  0.26224177  0.08520567  0.74217129  1
  O  O326  1  0.25344687  0.62886835  0.25897812  1
  O  O327  1  0.25251854  0.64696761  0.76077175  1
  O  O328  1  0.75703238  0.13726040  0.26568592  1
  O  O329  1  0.76134252  0.11919753  0.75972812  1
  O  O330  1  0.74385472  0.60312199  0.24180204  1
  O  O331  1  0.75650046  0.60739143  0.73531100  1
  O  O332  1  0.38356638  0.13169286  0.36079817  1
  O  O333  1  0.39035967  0.10711324  0.86421524  1
  O  O334  1  0.36720913  0.61089127  0.37640713  1
  O  O335  1  0.35757889  0.63853627  0.86353809  1
  O  O336  1  0.86694540  0.12326243  0.36792980  1
  O  O337  1  0.88119275  0.12969424  0.85787040  1
  O  O338  1  0.85148247  0.59913082  0.38729387  1
  O  O339  1  0.87133036  0.61322382  0.87378408  1
  O  O340  1  0.12295692  0.38739786  0.12302684  1
  O  O341  1  0.14506954  0.32241316  0.64888767  1
  O  O342  1  0.14352265  0.86350363  0.13557716  1
  O  O343  1  0.14033062  0.88312912  0.61406854  1
  O  O344  1  0.63584633  0.37455919  0.10888704  1
  O  O345  1  0.64359520  0.36373954  0.62447716  1
  O  O346  1  0.62549461  0.86451496  0.14304032  1
  O  O347  1  0.63857780  0.88978448  0.62657985  1
  O  O348  1  0.10640941  0.24765784  0.26587003  1
  O  O349  1  0.14030393  0.19806451  0.80992766  1
  O  O350  1  0.03930575  0.76483748  0.27071656  1
  O  O351  1  0.10433597  0.76403311  0.74705374  1
  O  O352  1  0.61840291  0.25244779  0.26752990  1
  O  O353  1  0.63389984  0.23911014  0.75521340  1
  O  O354  1  0.60858935  0.74387206  0.25394622  1
  O  O355  1  0.61622927  0.75162152  0.75893826  1
  O  O356  1  0.39799795  0.24359810  0.25670695  1
  O  O357  1  0.34897152  0.21622894  0.76113910  1
  O  O358  1  0.40716189  0.73421238  0.26586403  1
  O  O359  1  0.38508435  0.75566067  0.74437896  1
  O  O360  1  0.87923696  0.24903141  0.24586063  1
  O  O361  1  0.87141487  0.23497293  0.73624812  1
  O  O362  1  0.87051926  0.74258160  0.23800605  1
  O  O363  1  0.87871826  0.75533254  0.73666798  1
  O  O364  1  0.37562788  0.48033330  0.50409982  1
  O  O365  1  0.35607639  0.46235206  0.97146524  1
  O  O366  1  0.38786772  1.00136057  0.50258139  1
  O  O367  1  0.38903569  0.99028073  0.98929639  1
  O  O368  1  0.86747659  0.48367315  0.50080027  1
  O  O369  1  0.86866129  0.49340332  0.98460534  1
  O  O370  1  0.88743735  1.00423002  0.48734491  1
  O  O371  1  0.87971450  0.98055254  1.02765946  1
  O  O372  1  0.09812599  -0.01348643  0.02344236  1
  O  O373  1  0.11491714  0.00964048  0.49742819  1
  O  O374  1  0.11520094  0.48575494  -0.02054825  1
  O  O375  1  0.16039205  0.48886394  0.54755737  1
  O  O376  1  0.66010813  -0.00280420  0.03363258  1
  O  O377  1  0.62397407  0.00165429  0.50959491  1
  O  O378  1  0.64090130  0.51550686  -0.02011556  1
  O  O379  1  0.59536733  0.48052153  0.52012769  1
  O  O380  1  0.39221584  0.36581177  0.10388592  1
  O  O381  1  0.34974535  0.36990368  0.63386043  1
  O  O382  1  0.37169624  0.87779451  0.11128133  1
  O  O383  1  0.36201839  0.86835190  0.62715066  1
  O  O384  1  0.86647821  0.36387398  0.11156209  1
  O  O385  1  0.87388542  0.36381589  0.62036429  1
  O  O386  1  0.87776613  0.84970622  0.11875990  1
  O  O387  1  0.85950416  0.86951853  0.62239623  1
  O  O388  1  0.12270946  0.12618911  0.38444829  1
  O  O389  1  0.18190482  0.18130793  0.86918326  1
  O  O390  1  0.15116210  0.61676910  0.38377711  1
  O  O391  1  0.13305735  0.63194525  0.87520514  1
  O  O392  1  0.64089388  0.12202646  0.37396927  1
  O  O393  1  0.64058968  0.12255924  0.87324381  1
  O  O394  1  0.63538638  0.59074601  0.38599678  1
  O  O395  1  0.63154807  0.64138976  0.87411788  1
