# generated using pymatgen
data_V35Zn35O128
_symmetry_space_group_name_H-M   'P 1'
_cell_length_a   16.92695421
_cell_length_b   16.84843346
_cell_length_c   16.90445699
_cell_angle_alpha   90.12660744
_cell_angle_beta   89.87851169
_cell_angle_gamma   90.16875378
_symmetry_Int_Tables_number   1
_chemical_formula_structural   V35Zn35O128
_chemical_formula_sum   'V70 Zn70 O256'
_cell_volume   4820.98363070
_cell_formula_units_Z   2
loop_
 _symmetry_equiv_pos_site_id
 _symmetry_equiv_pos_as_xyz
  1  'x, y, z'
loop_
 _atom_site_type_symbol
 _atom_site_label
 _atom_site_symmetry_multiplicity
 _atom_site_fract_x
 _atom_site_fract_y
 _atom_site_fract_z
 _atom_site_occupancy
  V  V0  1  0.88229955  0.00016530  0.85455415  1
  V  V1  1  0.74740078  0.36083872  0.13055561  1
  V  V2  1  0.11682044  0.12081346  0.00954780  1
  V  V3  1  0.25052533  0.50720843  0.76612289  1
  V  V4  1  0.74728153  0.25468936  0.50842385  1
  V  V5  1  0.49181374  0.87646248  0.38808333  1
  V  V6  1  0.86430006  0.74740346  0.60831159  1
  V  V7  1  0.37578918  0.74801034  0.61865078  1
  V  V8  1  0.25673176  0.00139835  0.24580090  1
  V  V9  1  0.74258939  0.12536909  0.86547031  1
  V  V10  1  0.38395742  0.62523552  0.75921378  1
  V  V11  1  0.87657913  0.48979850  0.87432815  1
  V  V12  1  0.62184745  0.00658628  0.11787369  1
  V  V13  1  -0.01595051  0.87328584  0.38072260  1
  V  V14  1  0.88640311  0.74445315  0.12882198  1
  V  V15  1  -0.01744950  -0.00242250  0.50502569  1
  V  V16  1  0.37995457  0.25226485  0.62058790  1
  V  V17  1  0.38301415  0.37952069  -0.00785845  1
  V  V18  1  0.23172552  0.72874669  0.49686709  1
  V  V19  1  0.76477717  -0.00060437  0.26648939  1
  V  V20  1  0.23933482  0.37950610  0.13895688  1
  V  V21  1  0.12924846  0.87230650  0.26258770  1
  V  V22  1  0.12134298  0.37760732  0.75277190  1
  V  V23  1  0.38021785  0.50408751  0.37794340  1
  V  V24  1  0.00400429  0.22869677  0.23288973  1
  V  V25  1  0.25407786  0.12440884  0.37450695  1
  V  V26  1  0.11684447  0.87984591  0.75649181  1
  V  V27  1  0.25433568  0.25150514  0.49985721  1
  V  V28  1  0.89064585  0.36985347  0.01599126  1
  V  V29  1  0.00096010  0.24896518  0.71415607  1
  V  V30  1  0.75402478  0.87743634  0.12564630  1
  V  V31  1  0.25369515  0.38172455  0.62065783  1
  V  V32  1  0.24135201  0.12590094  0.87277722  1
  V  V33  1  0.86366233  0.62367242  0.76271327  1
  V  V34  1  0.60772761  0.12507173  0.50468796  1
  V  V35  1  0.37554647  -0.00489500  0.39181446  1
  V  V36  1  0.00469485  0.62214564  0.61525546  1
  V  V37  1  0.00493246  0.51114098  0.01166346  1
  V  V38  1  0.24728886  0.25114464  0.00103986  1
  V  V39  1  0.87711027  0.38458629  0.50902566  1
  V  V40  1  0.12041398  -0.00819350  0.12416688  1
  V  V41  1  0.74530706  0.74516890  -0.00250401  1
  V  V42  1  0.74464638  0.38235563  0.64178211  1
  V  V43  1  0.38452753  0.13181506  0.74455035  1
  V  V44  1  0.37933969  0.22754325  0.13511731  1
  V  V45  1  0.13425971  0.62612012  0.01028972  1
  V  V46  1  0.11429572  0.25820052  0.38017514  1
  V  V47  1  0.51270511  0.26751535  0.75756142  1
  V  V48  1  0.24023399  0.87232003  0.61572394  1
  V  V49  1  0.48042556  0.75363109  0.24004437  1
  V  V50  1  0.88025847  0.12838355  0.72084144  1
  V  V51  1  0.74289546  0.88683139  0.62687514  1
  V  V52  1  0.62800954  0.60425404  0.02005080  1
  V  V53  1  0.10498128  0.24857600  0.87473803  1
  V  V54  1  0.89037929  0.88179000  -0.00469265  1
  V  V55  1  0.49712585  0.37560023  0.41156129  1
  V  V56  1  0.23829444  0.00386312  0.74180304  1
  V  V57  1  0.24972617  0.62131029  0.33994075  1
  V  V58  1  0.63217259  0.26603193  0.36795292  1
  V  V59  1  0.12444619  0.11228072  0.51207920  1
  V  V60  1  0.87890386  0.61896228  0.25047723  1
  V  V61  1  0.38363295  -0.00251558  0.87145514  1
  V  V62  1  0.48045027  0.61405533  0.12614360  1
  V  V63  1  0.62457311  0.74238842  0.38566554  1
  V  V64  1  0.88143919  0.50552124  0.38982317  1
  V  V65  1  0.62557376  0.87268725  0.25343408  1
  V  V66  1  0.62604493  0.50905963  0.65306605  1
  V  V67  1  0.49772886  0.61380927  0.60795424  1
  V  V68  1  0.13586558  0.73945262  0.87448993  1
  V  V69  1  -0.00470314  0.74774995  0.75806024  1
  Zn  Zn70  1  0.73915469  0.62229594  0.37481643  1
  Zn  Zn71  1  0.12814680  0.51660478  0.60834918  1
  Zn  Zn72  1  -0.05766092  0.06713711  0.08410410  1
  Zn  Zn73  1  0.75250859  0.49427800  0.24547325  1
  Zn  Zn74  1  0.63583093  0.84862509  0.77194584  1
  Zn  Zn75  1  0.01152986  0.74502370  0.25850662  1
  Zn  Zn76  1  0.18643009  0.19072888  0.19244800  1
  Zn  Zn77  1  0.18596861  0.19517345  0.68544441  1
  Zn  Zn78  1  0.16790176  0.66438103  0.20973821  1
  Zn  Zn79  1  0.18791800  0.68914264  0.69134663  1
  Zn  Zn80  1  0.70316379  0.19011946  0.19585326  1
  Zn  Zn81  1  0.66905214  0.16235239  0.70399255  1
  Zn  Zn82  1  0.68922420  0.68748823  0.19056184  1
  Zn  Zn83  1  0.66244098  0.71623831  0.66781566  1
  Zn  Zn84  1  0.32292872  0.31298888  0.31201785  1
  Zn  Zn85  1  0.30585255  0.31565749  0.81213469  1
  Zn  Zn86  1  0.30418653  0.81156202  0.31938131  1
  Zn  Zn87  1  0.31321656  0.81143523  0.80803846  1
  Zn  Zn88  1  0.82709887  0.31979258  0.31561828  1
  Zn  Zn89  1  0.82175172  0.30477157  0.81325337  1
  Zn  Zn90  1  0.80767600  0.80632155  0.31638325  1
  Zn  Zn91  1  0.81321042  0.81619787  0.81458085  1
  Zn  Zn92  1  0.19318002  0.45146361  0.42917416  1
  Zn  Zn93  1  0.18138685  0.43527138  0.94080632  1
  Zn  Zn94  1  0.18663940  0.93624831  0.43703036  1
  Zn  Zn95  1  0.19050351  0.93667975  0.93377636  1
  Zn  Zn96  1  0.69695325  0.44047596  0.43610362  1
  Zn  Zn97  1  0.71543347  0.44645360  0.95947645  1
  Zn  Zn98  1  0.68584043  0.93417484  0.44474972  1
  Zn  Zn99  1  0.70121031  0.93916320  0.93682286  1
  Zn  Zn100  1  0.34925365  0.02076275  0.07850332  1
  Zn  Zn101  1  0.31282866  0.06395815  0.56452844  1
  Zn  Zn102  1  0.30957715  0.56200855  0.05348337  1
  Zn  Zn103  1  0.31552255  0.55926122  0.55453910  1
  Zn  Zn104  1  0.75979664  0.10118029  0.06465894  1
  Zn  Zn105  1  0.79840733  0.05984356  0.55910583  1
  Zn  Zn106  1  0.81448266  0.55477391  0.06801513  1
  Zn  Zn107  1  0.80667851  0.56729391  0.57774110  1
  Zn  Zn108  1  0.38586270  0.45244282  0.16991201  1
  Zn  Zn109  1  0.43612668  0.44327781  0.69152948  1
  Zn  Zn110  1  0.44812846  0.94849340  0.19833386  1
  Zn  Zn111  1  0.41866308  0.92223791  0.71186285  1
  Zn  Zn112  1  0.95825602  0.43129989  0.19548802  1
  Zn  Zn113  1  0.93781804  0.44105995  0.68818215  1
  Zn  Zn114  1  0.93986448  0.93079961  0.19490707  1
  Zn  Zn115  1  0.93340404  0.92862878  0.67627662  1
  Zn  Zn116  1  0.05864666  0.06290989  0.32036087  1
  Zn  Zn117  1  0.05298735  0.06749245  0.80954541  1
  Zn  Zn118  1  0.05844021  0.54185201  0.30194152  1
  Zn  Zn119  1  0.05776692  0.55917041  0.81307806  1
  Zn  Zn120  1  0.61393981  0.08466516  0.30323564  1
  Zn  Zn121  1  0.58366923  0.01570044  0.82535012  1
  Zn  Zn122  1  0.53717185  0.56992227  0.31728990  1
  Zn  Zn123  1  0.68260297  0.66679373  0.83592267  1
  Zn  Zn124  1  0.47094076  0.16263061  0.38098751  1
  Zn  Zn125  1  0.42640111  0.20354888  0.92470797  1
  Zn  Zn126  1  0.42908988  0.69335261  0.43539075  1
  Zn  Zn127  1  0.49854685  0.64707740  0.90850279  1
  Zn  Zn128  1  0.95554051  0.20831290  0.50796940  1
  Zn  Zn129  1  0.90986676  0.16839077  0.95562600  1
  Zn  Zn130  1  0.94425511  0.68542157  0.43072771  1
  Zn  Zn131  1  0.94237962  0.69048424  0.94200240  1
  Zn  Zn132  1  0.06023898  0.31694753  0.06138129  1
  Zn  Zn133  1  0.08720605  0.35550975  0.53405502  1
  Zn  Zn134  1  0.07058458  0.80812852  0.06178091  1
  Zn  Zn135  1  0.05540441  0.81023757  0.56301816  1
  Zn  Zn136  1  0.54927984  0.31871975  0.08282784  1
  Zn  Zn137  1  0.57085336  0.31208925  0.57838624  1
  Zn  Zn138  1  0.56492841  0.81293432  0.06750118  1
  Zn  Zn139  1  0.56354620  0.81686953  0.56506471  1
  O  O140  1  0.12966254  0.11700074  0.11352291  1
  O  O141  1  0.13281791  0.12736501  0.61066851  1
  O  O142  1  0.12774020  0.63612369  0.11038434  1
  O  O143  1  0.10986935  0.63097178  0.63047867  1
  O  O144  1  0.65767851  0.10823187  0.12183400  1
  O  O145  1  0.62418094  0.13088558  0.60560309  1
  O  O146  1  0.61465759  0.63040154  0.12374984  1
  O  O147  1  0.60512940  0.62091382  0.62751709  1
  O  O148  1  0.39579924  0.37062794  0.37919171  1
  O  O149  1  0.37067254  0.35873567  0.89214001  1
  O  O150  1  0.38008532  0.88111908  0.37549837  1
  O  O151  1  0.38658310  0.89763115  0.82712204  1
  O  O152  1  0.87346200  0.39648996  0.39492392  1
  O  O153  1  0.87409557  0.38613549  0.87939633  1
  O  O154  1  0.88543089  0.87206062  0.37009646  1
  O  O155  1  0.87513517  0.88762150  0.88411901  1
  O  O156  1  0.25641244  0.00315884  0.37085169  1
  O  O157  1  0.24632126  0.00662719  0.85701260  1
  O  O158  1  0.25602136  0.51663163  0.36337235  1
  O  O159  1  0.24499390  0.49827577  0.86425878  1
  O  O160  1  0.75672068  -0.02224164  0.36411836  1
  O  O161  1  0.77446774  0.00499211  0.87239997  1
  O  O162  1  0.76024063  0.50462078  0.36318980  1
  O  O163  1  0.77660247  0.51163544  0.88922009  1
  O  O164  1  0.26918831  0.48070655  0.13070233  1
  O  O165  1  0.25028321  0.48865613  0.62824764  1
  O  O166  1  0.23883240  1.00476652  0.14294080  1
  O  O167  1  0.25437309  0.98445270  0.63248399  1
  O  O168  1  0.75896796  0.47929324  0.13068592  1
  O  O169  1  0.73443707  0.50114032  0.63932932  1
  O  O170  1  0.74981050  0.98429318  0.13263947  1
  O  O171  1  0.74446652  0.98825059  0.62998517  1
  O  O172  1  -0.07152327  0.28841124  0.26725337  1
  O  O173  1  0.00895396  0.36092900  0.73374395  1
  O  O174  1  0.01248995  0.87622657  0.26472228  1
  O  O175  1  0.01013313  0.86269547  0.73956669  1
  O  O176  1  0.57149995  0.42386755  0.23423423  1
  O  O177  1  0.49268259  0.36685545  0.75047422  1
  O  O178  1  0.50731379  0.86934136  0.25974612  1
  O  O179  1  0.53442542  0.95450680  0.72771105  1
  O  O180  1  0.50857849  0.11258652  0.28685111  1
  O  O181  1  0.48223924  0.13655794  0.74406673  1
  O  O182  1  0.49362598  0.64351403  0.23821891  1
  O  O183  1  0.47979546  0.62379534  0.72876797  1
  O  O184  1  0.99104349  0.12961851  0.25502364  1
  O  O185  1  0.99720662  0.14018484  0.73892122  1
  O  O186  1  0.98367390  0.63126780  0.25813607  1
  O  O187  1  0.99626124  0.63930151  0.74439592  1
  O  O188  1  0.35960815  0.24759870  0.00543597  1
  O  O189  1  0.36520039  0.24417917  0.51770969  1
  O  O190  1  0.34233769  0.81044296  -0.03405948  1
  O  O191  1  0.35453392  0.74366294  0.51292349  1
  O  O192  1  0.90454525  0.27507281  -0.00851839  1
  O  O193  1  0.86165285  0.27308746  0.50206909  1
  O  O194  1  0.86981408  0.74926664  0.01443103  1
  O  O195  1  0.87598091  0.74076636  0.51025459  1
  O  O196  1  0.13986239  0.24517596  0.49720696  1
  O  O197  1  0.12698541  0.23864202  0.99369050  1
  O  O198  1  0.13492787  0.75231438  0.49941744  1
  O  O199  1  0.11817709  0.73856676  0.98349238  1
  O  O200  1  0.63520943  0.25224508  0.50186145  1
  O  O201  1  0.58328595  0.19787025  1.00165687  1
  O  O202  1  0.61027360  0.74631642  0.48396302  1
  O  O203  1  0.64541763  0.75818759  1.00697048  1
  O  O204  1  0.47958549  0.24409011  0.12928794  1
  O  O205  1  0.48191883  0.25741762  0.63528535  1
  O  O206  1  0.49562180  0.75720220  0.13796982  1
  O  O207  1  0.47935606  0.74498073  0.61741424  1
  O  O208  1  1.01407724  0.24089873  0.13340005  1
  O  O209  1  1.00531089  0.24708409  0.61520516  1
  O  O210  1  0.98823630  0.75492522  0.13113492  1
  O  O211  1  0.98669326  0.74412339  0.63306524  1
  O  O212  1  0.01810147  0.25111357  0.40593831  1
  O  O213  1  0.00747450  0.24224867  0.87527801  1
  O  O214  1  0.00289634  0.76643741  0.37530979  1
  O  O215  1  0.00637454  0.75106714  0.86081009  1
  O  O216  1  0.51634751  0.27192980  0.37869536  1
  O  O217  1  0.50332238  0.24602850  0.85654703  1
  O  O218  1  0.49922762  0.75885364  0.36399375  1
  O  O219  1  0.49798687  0.78701672  0.91056355  1
  O  O220  1  0.24345652  0.13060115  0.49547545  1
  O  O221  1  0.23493927  0.13239439  0.98394641  1
  O  O222  1  0.23399535  0.62754497  0.50452488  1
  O  O223  1  0.23322848  0.62024311  0.99439411  1
  O  O224  1  0.75635295  0.15253866  0.50624655  1
  O  O225  1  0.71296267  0.11285099  0.95991063  1
  O  O226  1  0.71690943  0.59642025  0.49910823  1
  O  O227  1  0.73930105  0.63554807  1.01710581  1
  O  O228  1  0.24724389  0.36113577  0.00152823  1
  O  O229  1  0.24970687  0.36534338  0.51528379  1
  O  O230  1  0.22886422  0.86306564  0.01679992  1
  O  O231  1  0.24297908  0.86852082  0.51327743  1
  O  O232  1  0.77935232  0.37336478  0.01733860  1
  O  O233  1  0.75590275  0.37825526  0.51469249  1
  O  O234  1  0.76598937  0.86399305  0.00729347  1
  O  O235  1  0.73461962  0.87107118  0.52517284  1
  O  O236  1  0.04931213  0.44093435  0.25613927  1
  O  O237  1  0.13371964  0.49399628  0.74693310  1
  O  O238  1  0.13026146  0.99127785  0.24480586  1
  O  O239  1  0.12225090  0.98799081  0.75220846  1
  O  O240  1  0.60748681  0.48803009  0.24899199  1
  O  O241  1  0.61911017  0.51077752  0.74806310  1
  O  O242  1  0.63854221  0.98369598  0.24620321  1
  O  O243  1  0.54328150  0.99573826  0.65114300  1
  O  O244  1  0.35850498  -0.00304165  0.26129904  1
  O  O245  1  0.35910126  0.02188799  0.74798545  1
  O  O246  1  0.37894026  0.48358668  0.27659180  1
  O  O247  1  0.36129772  0.51175180  0.74921535  1
  O  O248  1  0.86338092  -0.00033610  0.24367273  1
  O  O249  1  0.88968087  0.01187764  0.74735970  1
  O  O250  1  0.88225692  0.51274308  0.26023988  1
  O  O251  1  0.88150929  0.51344522  0.76311820  1
  O  O252  1  0.14051222  0.35525340  0.38264414  1
  O  O253  1  0.12797915  0.36395992  0.86016134  1
  O  O254  1  0.12478858  0.87256060  0.36461825  1
  O  O255  1  0.12500323  0.86663808  0.86135869  1
  O  O256  1  0.61010576  0.37818316  0.39076598  1
  O  O257  1  0.63242492  0.38246220  0.88487763  1
  O  O258  1  0.61093584  0.86664047  0.37262032  1
  O  O259  1  0.62216149  0.91490538  0.86098877  1
  O  O260  1  0.36605990  0.12848765  0.11150616  1
  O  O261  1  0.36346325  0.13887194  0.63624859  1
  O  O262  1  0.38379450  0.63292278  0.10821126  1
  O  O263  1  0.37967167  0.62798276  0.62295896  1
  O  O264  1  0.86322608  0.13589058  0.05959566  1
  O  O265  1  0.88225963  0.12302532  0.62173037  1
  O  O266  1  0.87274618  0.63550363  0.13600806  1
  O  O267  1  0.88421193  0.63125253  0.64005977  1
  O  O268  1  0.24735684  0.25168337  0.11479251  1
  O  O269  1  0.25792034  0.25950623  0.62135016  1
  O  O270  1  0.28707426  0.80523535  0.01646849  1
  O  O271  1  0.24899017  0.75368784  0.61381143  1
  O  O272  1  0.76916808  0.25931440  0.13522344  1
  O  O273  1  0.74088414  0.27454712  0.61554361  1
  O  O274  1  0.76004671  0.76054400  0.12126680  1
  O  O275  1  0.76526404  0.72737607  0.61959218  1
  O  O276  1  0.25374440  0.24106455  0.38429765  1
  O  O277  1  0.23588417  0.24135760  0.87731500  1
  O  O278  1  0.25586969  0.72804990  0.38581290  1
  O  O279  1  0.23458931  0.75155707  0.86525490  1
  O  O280  1  0.74028435  0.28015397  0.39346767  1
  O  O281  1  0.75783954  0.22699990  0.86429771  1
  O  O282  1  0.72947156  0.74733983  0.37602828  1
  O  O283  1  0.75975991  0.74664708  0.89453464  1
  O  O284  1  0.01698497  0.11952464  -0.00269709  1
  O  O285  1  0.01442404  0.10994135  0.49810379  1
  O  O286  1  0.01228430  0.61952264  -0.00418988  1
  O  O287  1  -0.00319072  0.63021765  0.51635786  1
  O  O288  1  0.53079643  0.14729314  -0.01144488  1
  O  O289  1  0.50835760  0.13552760  0.49008545  1
  O  O290  1  0.51491799  0.62460750  0.02175136  1
  O  O291  1  0.49075993  0.62512093  0.50928928  1
  O  O292  1  0.49575570  0.37287029  0.51018926  1
  O  O293  1  0.48291704  0.36599703  1.00598003  1
  O  O294  1  0.49872162  0.86894863  0.48678155  1
  O  O295  1  0.49277780  0.83426901  0.96883367  1
  O  O296  1  0.97499833  0.37680700  0.52288574  1
  O  O297  1  1.00150884  0.39648502  1.00040371  1
  O  O298  1  1.00062308  0.88200966  0.48973860  1
  O  O299  1  0.98786128  0.86069783  1.00032693  1
  O  O300  1  0.49164229  0.49051361  0.38714986  1
  O  O301  1  0.56821210  0.41780932  0.88149521  1
  O  O302  1  0.48244758  0.98489825  0.37646913  1
  O  O303  1  0.47957097  1.02289010  0.87630941  1
  O  O304  1  0.97978013  0.52021364  0.38857924  1
  O  O305  1  0.98588774  0.50637689  0.88359906  1
  O  O306  1  1.00684993  0.98505714  0.38834206  1
  O  O307  1  0.98167330  1.00701506  0.87667641  1
  O  O308  1  0.01514118  0.00178796  0.13476964  1
  O  O309  1  0.00047166  -0.01499332  0.60405824  1
  O  O310  1  -0.00406408  0.51259444  0.11017397  1
  O  O311  1  0.00215995  0.51909331  0.63374327  1
  O  O312  1  0.52505171  0.01461021  0.13996847  1
  O  O313  1  0.48273796  -0.02063725  0.60682188  1
  O  O314  1  0.48077902  0.51424631  0.13903921  1
  O  O315  1  0.50800530  0.50759699  0.62321646  1
  O  O316  1  0.24845463  0.36106205  0.23775616  1
  O  O317  1  0.24443539  0.38721237  0.74416597  1
  O  O318  1  0.23857227  0.88773669  0.25821745  1
  O  O319  1  0.23320999  0.88270061  0.74254556  1
  O  O320  1  0.76179317  0.37442067  0.23836878  1
  O  O321  1  0.75792326  0.36918495  0.73954118  1
  O  O322  1  0.74611412  0.87598402  0.24367336  1
  O  O323  1  0.75042897  0.86426926  0.73687766  1
  O  O324  1  0.23702362  0.11086376  0.26362183  1
  O  O325  1  0.23893221  0.11943190  0.75577048  1
  O  O326  1  0.27637249  0.63853340  0.24523166  1
  O  O327  1  0.25308199  0.61100384  0.74660946  1
  O  O328  1  0.73291923  0.10021011  0.26488251  1
  O  O329  1  0.77961085  0.13387874  0.73720678  1
  O  O330  1  0.76309251  0.62175136  0.24957008  1
  O  O331  1  0.76453775  0.63131880  0.75787608  1
  O  O332  1  0.36296131  0.10899224  0.38117228  1
  O  O333  1  0.35972004  0.12367069  0.85966686  1
  O  O334  1  0.37040278  0.61259307  0.37561971  1
  O  O335  1  0.39867789  0.63759398  0.85897964  1
  O  O336  1  0.88010568  0.12514399  0.38877609  1
  O  O337  1  0.86686034  0.11378569  0.86368667  1
  O  O338  1  0.86526219  0.62505409  0.36713890  1
  O  O339  1  0.88140410  0.62839714  0.86365241  1
  O  O340  1  0.14038139  0.37673842  0.11860036  1
  O  O341  1  0.14412352  0.36599350  0.64082762  1
  O  O342  1  0.12064878  0.88850510  0.13136448  1
  O  O343  1  0.13517010  0.86447544  0.63641753  1
  O  O344  1  0.64765219  0.35743242  0.11166548  1
  O  O345  1  0.63297971  0.39870354  0.62671531  1
  O  O346  1  0.63267572  0.88025552  0.13548647  1
  O  O347  1  0.63776977  0.84370357  0.64383916  1
  O  O348  1  0.10900264  0.24188194  0.26884504  1
  O  O349  1  0.11092039  0.25341267  0.75324080  1
  O  O350  1  0.12763172  0.77050183  0.23503415  1
  O  O351  1  0.11581514  0.75712929  0.75746834  1
  O  O352  1  0.63965756  0.25681457  0.26883953  1
  O  O353  1  0.60990321  0.25760996  0.73375898  1
  O  O354  1  0.61843441  0.76239387  0.25572901  1
  O  O355  1  0.62104810  0.73542128  0.77056835  1
  O  O356  1  0.35982514  0.23602597  0.23468883  1
  O  O357  1  0.36885180  0.24206928  0.74291065  1
  O  O358  1  0.38269939  0.76473615  0.24939201  1
  O  O359  1  0.35604829  0.73089048  0.73193082  1
  O  O360  1  0.84695760  0.16503419  0.33799093  1
  O  O361  1  0.89554387  0.24389594  0.73949492  1
  O  O362  1  0.87376525  0.74384857  0.23949416  1
  O  O363  1  0.88577951  0.74341363  0.75151461  1
  O  O364  1  0.35516968  0.48707438  0.47815592  1
  O  O365  1  0.36907294  0.47959182  0.99871294  1
  O  O366  1  0.36566207  0.99443121  0.49082545  1
  O  O367  1  0.35131009  0.99375338  0.96575883  1
  O  O368  1  0.86289785  0.50375130  0.49582433  1
  O  O369  1  0.88900993  0.49759179  0.99408661  1
  O  O370  1  0.88367855  1.00739276  0.49921851  1
  O  O371  1  0.88490795  0.98095880  1.00865650  1
  O  O372  1  0.13506018  0.00604162  0.01387381  1
  O  O373  1  0.12977498  0.01089876  0.50182656  1
  O  O374  1  0.11554900  0.51432194  -0.00758088  1
  O  O375  1  0.11872460  0.46423921  0.50976181  1
  O  O376  1  0.62919843  -0.01709617  0.02030428  1
  O  O377  1  0.63202779  0.02838805  0.47982533  1
  O  O378  1  0.63575545  0.50490165  0.01776583  1
  O  O379  1  0.66071939  0.53798929  0.50174875  1
  O  O380  1  0.35881067  0.35414914  0.11090232  1
  O  O381  1  0.36081692  0.36489448  0.63565728  1
  O  O382  1  0.38777277  0.92072230  0.11005076  1
  O  O383  1  0.35639982  0.85576876  0.63831192  1
  O  O384  1  0.89378191  0.37607858  0.11890901  1
  O  O385  1  0.85496873  0.40049424  0.61861985  1
  O  O386  1  0.87323336  0.86403541  0.11981185  1
  O  O387  1  0.85767304  0.85601994  0.62733811  1
  O  O388  1  0.13610388  0.13297856  0.38864462  1
  O  O389  1  0.12559849  0.12823518  0.88017662  1
  O  O390  1  0.14418139  0.61715387  0.32176340  1
  O  O391  1  0.12381478  0.63711765  0.87146059  1
  O  O392  1  0.63229985  0.15977100  0.39213251  1
  O  O393  1  0.65184930  0.10571730  0.81022151  1
  O  O394  1  0.61597231  0.63966296  0.36213992  1
  O  O395  1  0.61131366  0.62524401  0.91234201  1
