# generated using pymatgen
data_V35Zn35O128
_symmetry_space_group_name_H-M   'P 1'
_cell_length_a   16.91909106
_cell_length_b   16.96856367
_cell_length_c   17.03672603
_cell_angle_alpha   90.25952391
_cell_angle_beta   89.66830258
_cell_angle_gamma   89.92685343
_symmetry_Int_Tables_number   1
_chemical_formula_structural   V35Zn35O128
_chemical_formula_sum   'V70 Zn70 O256'
_cell_volume   4890.98294081
_cell_formula_units_Z   2
loop_
 _symmetry_equiv_pos_site_id
 _symmetry_equiv_pos_as_xyz
  1  'x, y, z'
loop_
 _atom_site_type_symbol
 _atom_site_label
 _atom_site_symmetry_multiplicity
 _atom_site_fract_x
 _atom_site_fract_y
 _atom_site_fract_z
 _atom_site_occupancy
  V  V0  1  0.87471734  0.75796702  0.11717201  1
  V  V1  1  0.01696489  0.24058165  0.74264917  1
  V  V2  1  0.60536984  -0.00164904  0.62088098  1
  V  V3  1  0.74574451  0.37826195  0.11658207  1
  V  V4  1  -0.04073398  0.79032675  0.69908453  1
  V  V5  1  0.87388285  0.25230103  0.12469756  1
  V  V6  1  0.00156295  -0.00948613  -0.00235437  1
  V  V7  1  -0.05488855  0.03370111  0.48835654  1
  V  V8  1  0.12571609  0.74670143  0.87297632  1
  V  V9  1  0.13124167  0.62448081  0.00393548  1
  V  V10  1  0.88125273  0.12265810  0.76558188  1
  V  V11  1  0.73744284  0.00040522  0.26208034  1
  V  V12  1  0.89495549  0.60315677  0.76563277  1
  V  V13  1  0.37247622  0.00440003  0.86747485  1
  V  V14  1  0.13475557  0.88266907  0.74848592  1
  V  V15  1  0.11987476  0.37941029  0.25646373  1
  V  V16  1  -0.02293982  0.49655464  0.00146448  1
  V  V17  1  0.12694528  0.50171415  0.12665588  1
  V  V18  1  0.86541234  0.62825148  0.25644059  1
  V  V19  1  0.35758025  0.35834882  0.51580244  1
  V  V20  1  -0.01019469  0.86914627  0.88089327  1
  V  V21  1  0.74302458  0.75654181  -0.00674193  1
  V  V22  1  0.50302031  0.51689938  0.00570859  1
  V  V23  1  0.36313457  0.50885650  0.86992224  1
  V  V24  1  0.75269806  0.50035641  0.26564214  1
  V  V25  1  0.39935944  0.63452055  0.25691044  1
  V  V26  1  0.10267014  0.87841430  0.24061949  1
  V  V27  1  0.50979437  0.87543744  0.86882766  1
  V  V28  1  0.24220653  0.11675292  0.88882860  1
  V  V29  1  -0.01274942  0.40236796  0.37340000  1
  V  V30  1  0.37538608  0.88269723  -0.00011746  1
  V  V31  1  0.74717030  0.77289895  0.51583498  1
  V  V32  1  0.75035598  0.49214694  0.76005784  1
  V  V33  1  0.88201260  0.39167162  0.50772990  1
  V  V34  1  0.73536402  0.24483216  -0.00379569  1
  V  V35  1  0.36309015  0.36770127  0.02036320  1
  V  V36  1  0.50416910  0.24993846  0.26208748  1
  V  V37  1  0.22744264  0.24398953  0.45193309  1
  V  V38  1  0.37697179  0.47180945  0.36229122  1
  V  V39  1  0.74517627  0.61466535  0.87948245  1
  V  V40  1  0.48499843  0.23540307  0.74085764  1
  V  V41  1  0.74523431  -0.01431985  0.75102614  1
  V  V42  1  0.51814736  0.13738573  0.11784361  1
  V  V43  1  -0.02155275  0.86164784  0.39467725  1
  V  V44  1  0.73233120  0.12738621  0.87473605  1
  V  V45  1  0.51626822  0.00386260  0.00921321  1
  V  V46  1  0.51848249  0.87473632  0.35348124  1
  V  V47  1  0.13806596  0.37541012  0.74662702  1
  V  V48  1  0.72041398  0.26754173  0.48390510  1
  V  V49  1  0.37881084  -0.00436897  0.37599786  1
  V  V50  1  -0.00432804  0.60751867  0.61723825  1
  V  V51  1  0.74096027  0.88795027  0.11828813  1
  V  V52  1  0.04290553  0.20405384  0.29630695  1
  V  V53  1  0.38677086  0.74222532  0.12336669  1
  V  V54  1  0.13599739  0.49607135  0.60623279  1
  V  V55  1  0.87920273  0.23924738  0.62502108  1
  V  V56  1  0.36944765  0.11754132  0.24320750  1
  V  V57  1  0.25185352  0.75371832  0.49560944  1
  V  V58  1  0.50312785  0.36325492  0.88562764  1
  V  V59  1  0.62287714  0.37259257  0.26064382  1
  V  V60  1  0.85826274  0.12577425  0.25782008  1
  V  V61  1  0.64105892  0.73505765  0.36804749  1
  V  V62  1  0.75505106  0.37307633  0.63935727  1
  V  V63  1  0.00327971  0.12734849  0.11181020  1
  V  V64  1  -0.00749445  0.62898174  0.12830495  1
  V  V65  1  0.51243671  0.70157918  0.71145504  1
  V  V66  1  0.24023886  0.52792876  0.25528126  1
  V  V67  1  0.24945783  0.89137420  0.13322334  1
  V  V68  1  0.24951868  0.74975319  0.00165917  1
  V  V69  1  0.12866992  0.24651529  0.90407463  1
  Zn  Zn70  1  0.59186802  0.53255915  0.61551773  1
  Zn  Zn71  1  0.10136379  0.74035739  0.35472404  1
  Zn  Zn72  1  -0.00270960  0.38011644  0.87545367  1
  Zn  Zn73  1  0.60694873  0.36876847  0.75043897  1
  Zn  Zn74  1  0.62045399  0.74848117  0.86697132  1
  Zn  Zn75  1  0.61557956  0.52457162  0.12811558  1
  Zn  Zn76  1  0.19494429  0.18559994  0.16872396  1
  Zn  Zn77  1  0.28045276  0.22263911  0.73009256  1
  Zn  Zn78  1  0.18639359  0.69942156  0.18080359  1
  Zn  Zn79  1  0.17418231  0.67634138  0.68641592  1
  Zn  Zn80  1  0.68533443  0.18947393  0.18670716  1
  Zn  Zn81  1  0.67668875  0.18921426  0.69477247  1
  Zn  Zn82  1  0.68606773  0.69105600  0.18427715  1
  Zn  Zn83  1  0.67723595  0.69653269  0.67532463  1
  Zn  Zn84  1  0.29961352  0.30144163  0.26204510  1
  Zn  Zn85  1  0.31447559  0.31924185  0.84629736  1
  Zn  Zn86  1  0.32659121  0.82317547  0.30041119  1
  Zn  Zn87  1  0.32793256  0.78684723  0.71797109  1
  Zn  Zn88  1  0.81437596  0.31802982  0.31094385  1
  Zn  Zn89  1  0.82483201  0.30707084  0.82037738  1
  Zn  Zn90  1  0.80187142  0.81432828  0.30493747  1
  Zn  Zn91  1  0.81475167  0.79970684  0.81025258  1
  Zn  Zn92  1  0.18931494  0.43445618  0.42664228  1
  Zn  Zn93  1  0.18740057  0.43122458  0.94022958  1
  Zn  Zn94  1  0.16707596  0.96182677  0.38603645  1
  Zn  Zn95  1  0.18274474  0.93725324  0.94163573  1
  Zn  Zn96  1  0.68904302  0.44598464  0.44693044  1
  Zn  Zn97  1  0.68158646  0.43674800  0.94139501  1
  Zn  Zn98  1  0.68932981  0.93155562  0.44372933  1
  Zn  Zn99  1  0.69558649  0.94107719  0.93220259  1
  Zn  Zn100  1  0.32264491  0.07272604  0.06416424  1
  Zn  Zn101  1  0.30370354  0.07176568  0.50682649  1
  Zn  Zn102  1  0.31561866  0.55708547  0.06476049  1
  Zn  Zn103  1  0.30441124  0.55085003  0.53358880  1
  Zn  Zn104  1  0.82336582  0.06939946  0.05046750  1
  Zn  Zn105  1  0.74256074  0.06852094  0.55345912  1
  Zn  Zn106  1  0.78896185  0.57650436  0.07400224  1
  Zn  Zn107  1  0.78954201  0.58158776  0.58908216  1
  Zn  Zn108  1  0.44048777  0.44416648  0.18861689  1
  Zn  Zn109  1  0.42739905  0.42543068  0.69291750  1
  Zn  Zn110  1  0.44500631  0.93357844  0.18168933  1
  Zn  Zn111  1  0.43947793  0.93995849  0.68179916  1
  Zn  Zn112  1  0.93209683  0.44170289  0.18316081  1
  Zn  Zn113  1  0.94625900  0.43087782  0.69354070  1
  Zn  Zn114  1  0.92218148  0.95068012  0.17637866  1
  Zn  Zn115  1  0.88193484  0.96555203  0.63643442  1
  Zn  Zn116  1  0.03784052  0.04129335  0.31254349  1
  Zn  Zn117  1  0.06523337  0.05986502  0.81956359  1
  Zn  Zn118  1  0.04941304  0.57002160  0.31537969  1
  Zn  Zn119  1  0.07592287  0.55217241  0.82619993  1
  Zn  Zn120  1  0.54133239  0.04210113  0.28928878  1
  Zn  Zn121  1  0.55861467  0.05906367  0.80928647  1
  Zn  Zn122  1  0.56481719  0.55769203  0.32155279  1
  Zn  Zn123  1  0.55800783  0.55167201  0.81568838  1
  Zn  Zn124  1  0.41327357  0.20658525  0.41625029  1
  Zn  Zn125  1  0.43025833  0.18721061  0.94577800  1
  Zn  Zn126  1  0.44350598  0.72147340  0.43634117  1
  Zn  Zn127  1  0.43281768  0.69079739  0.92840661  1
  Zn  Zn128  1  0.91640421  0.20512081  0.43449366  1
  Zn  Zn129  1  0.93259234  0.21744610  0.93300832  1
  Zn  Zn130  1  0.93504159  0.67943942  0.44167623  1
  Zn  Zn131  1  0.93794113  0.68325203  0.94195112  1
  Zn  Zn132  1  0.05414500  0.31995284  0.07575753  1
  Zn  Zn133  1  0.06442540  0.31498625  0.56025952  1
  Zn  Zn134  1  0.06370829  0.81529779  0.06700196  1
  Zn  Zn135  1  0.06508761  0.91630918  0.55765531  1
  Zn  Zn136  1  0.55985614  0.32267099  0.06568828  1
  Zn  Zn137  1  0.55016415  0.38502177  0.53617149  1
  Zn  Zn138  1  0.56471739  0.81345038  0.05622726  1
  Zn  Zn139  1  0.56189449  0.81640213  0.55141697  1
  O  O140  1  0.10041209  0.13822003  0.13947126  1
  O  O141  1  0.18373492  0.03228701  0.62404768  1
  O  O142  1  0.11274073  0.62182028  0.12304719  1
  O  O143  1  0.10968769  0.60208940  0.63439473  1
  O  O144  1  0.61746181  0.12662254  0.11758805  1
  O  O145  1  0.65139061  0.09951796  0.63291751  1
  O  O146  1  0.67971070  0.61345693  0.10895061  1
  O  O147  1  0.67847471  0.60292846  0.61669772  1
  O  O148  1  0.36760844  0.37915808  0.32850614  1
  O  O149  1  0.38489706  0.38832148  0.89892911  1
  O  O150  1  0.39811676  0.88791817  0.35693857  1
  O  O151  1  0.38595146  0.88765760  0.89200014  1
  O  O152  1  0.88096887  0.37542886  0.39117368  1
  O  O153  1  0.90251327  0.32508108  0.89637227  1
  O  O154  1  0.88648862  0.87182627  0.35445232  1
  O  O155  1  0.89220022  0.85705072  0.87748152  1
  O  O156  1  0.27838950  -0.01166863  0.36825551  1
  O  O157  1  0.26118370  0.00522412  0.88744677  1
  O  O158  1  0.25789635  0.50493515  0.35697106  1
  O  O159  1  0.26239868  0.49684984  0.88556809  1
  O  O160  1  0.74228286  -0.00666802  0.35927865  1
  O  O161  1  0.74889353  0.01890669  0.86486382  1
  O  O162  1  0.75264443  0.49123294  0.36372374  1
  O  O163  1  0.75214782  0.50554217  0.87610334  1
  O  O164  1  0.23658004  0.51004369  0.14269723  1
  O  O165  1  0.23619633  0.51183466  0.61548082  1
  O  O166  1  0.26000385  0.98860554  0.11943934  1
  O  O167  1  0.25309262  1.00949553  0.62026967  1
  O  O168  1  0.75842617  0.47907562  0.12910952  1
  O  O169  1  0.77126501  0.48219586  0.65206276  1
  O  O170  1  0.76069829  0.98592980  0.10190757  1
  O  O171  1  0.76917156  0.99141720  0.64864015  1
  O  O172  1  -0.00320177  0.39339491  0.26559182  1
  O  O173  1  0.01624588  0.35819863  0.75579818  1
  O  O174  1  0.00528165  0.88461335  0.22172268  1
  O  O175  1  0.01157009  0.85253249  0.77261750  1
  O  O176  1  0.51354721  0.36245534  0.23911781  1
  O  O177  1  0.48941674  0.36225163  0.77563482  1
  O  O178  1  0.51329020  0.87450424  0.25250905  1
  O  O179  1  0.49863453  0.88613158  0.77213691  1
  O  O180  1  0.51666648  0.13983845  0.23666087  1
  O  O181  1  0.49417039  0.13510573  0.75982463  1
  O  O182  1  0.49638898  0.61882113  0.24296472  1
  O  O183  1  0.52411744  0.59706560  0.71635789  1
  O  O184  1  0.98078931  0.12820997  0.24560040  1
  O  O185  1  0.99485948  0.13060485  0.75336185  1
  O  O186  1  0.97990114  0.61803304  0.23539360  1
  O  O187  1  0.99621274  0.60756758  0.76292978  1
  O  O188  1  0.37562900  0.26798659  0.00482680  1
  O  O189  1  0.34064588  0.24925856  0.49039091  1
  O  O190  1  0.36756901  0.75815086  0.00704052  1
  O  O191  1  0.35433254  0.74398324  0.51680518  1
  O  O192  1  0.85789602  0.24236948  0.02215665  1
  O  O193  1  0.86776943  0.26176668  0.51959313  1
  O  O194  1  0.86386847  0.74336147  0.01206437  1
  O  O195  1  0.85128676  0.71893243  0.51369963  1
  O  O196  1  0.13249681  0.26619441  0.48678542  1
  O  O197  1  0.11573126  0.25962365  1.00079513  1
  O  O198  1  0.15172920  0.75336654  0.46631529  1
  O  O199  1  0.13154047  0.74125512  1.00838200  1
  O  O200  1  0.62544482  0.29624604  0.50055378  1
  O  O201  1  0.63754968  0.25230702  1.00667185  1
  O  O202  1  0.64383635  0.75717146  0.48908063  1
  O  O203  1  0.64131513  0.74812533  0.99690052  1
  O  O204  1  0.50654521  0.23956885  0.12606010  1
  O  O205  1  0.47214613  0.24581499  0.64615392  1
  O  O206  1  0.48514628  0.75379739  0.11237638  1
  O  O207  1  0.51913570  0.73011204  0.61605563  1
  O  O208  1  0.98082673  0.24718351  0.12888200  1
  O  O209  1  0.99176302  0.25278467  0.63350251  1
  O  O210  1  0.98424462  0.74289079  0.11654990  1
  O  O211  1  1.00769183  0.71887182  0.64320176  1
  O  O212  1  -0.01083899  0.26077643  0.36117032  1
  O  O213  1  0.02795182  0.23730825  0.85865319  1
  O  O214  1  -0.01136993  0.75477739  0.37851350  1
  O  O215  1  0.01698576  0.75821516  0.90006791  1
  O  O216  1  0.50794651  0.24506923  0.36018997  1
  O  O217  1  0.49880379  0.26257758  0.89255284  1
  O  O218  1  0.52442111  0.75626040  0.36286623  1
  O  O219  1  0.50438947  0.77150152  0.89375566  1
  O  O220  1  0.23063516  0.14199988  0.46960283  1
  O  O221  1  0.26074861  0.12900101  0.99083426  1
  O  O222  1  0.25885233  0.64768246  0.48632150  1
  O  O223  1  0.23873000  0.63453390  1.01672820  1
  O  O224  1  0.73069219  0.17237368  0.51015089  1
  O  O225  1  0.74995348  0.13422979  0.98650595  1
  O  O226  1  0.79050192  0.65983416  0.50188355  1
  O  O227  1  0.76010150  0.63652728  0.97970358  1
  O  O228  1  0.26270858  0.38128971  0.00816724  1
  O  O229  1  0.25296813  0.35866641  0.47912217  1
  O  O230  1  0.25653759  0.87090735  0.00949760  1
  O  O231  1  0.25560503  0.85556846  0.51545786  1
  O  O232  1  0.74606302  0.36519809  0.01109507  1
  O  O233  1  0.76330017  0.37215332  0.52187311  1
  O  O234  1  0.75338428  0.86285460  -0.00260827  1
  O  O235  1  0.77027002  0.86915732  0.49707861  1
  O  O236  1  0.12693058  0.50789686  0.24639839  1
  O  O237  1  0.13544597  0.47559886  0.76366109  1
  O  O238  1  0.12747264  0.97782206  0.27502032  1
  O  O239  1  0.12964012  0.98219219  0.76581350  1
  O  O240  1  0.63667103  0.49380428  0.24551027  1
  O  O241  1  0.64807674  0.48584304  0.75968771  1
  O  O242  1  0.63973120  1.00828699  0.24168199  1
  O  O243  1  0.64032181  0.99843774  0.74342069  1
  O  O244  1  0.40293543  0.01326608  0.25510260  1
  O  O245  1  0.37732805  -0.00429401  0.77034930  1
  O  O246  1  0.36194802  0.52214521  0.25235775  1
  O  O247  1  0.37524820  0.48781930  0.77192667  1
  O  O248  1  0.86050760  0.01835935  0.24317008  1
  O  O249  1  0.87032311  0.02133937  0.75112018  1
  O  O250  1  0.85991719  0.51035516  0.24382011  1
  O  O251  1  0.87926171  0.49884605  0.76710038  1
  O  O252  1  0.10146311  0.39028669  0.36359099  1
  O  O253  1  0.12337631  0.35702528  0.87075745  1
  O  O254  1  0.08753619  0.86376573  0.35603062  1
  O  O255  1  0.12180853  0.85941393  0.87234133  1
  O  O256  1  0.62442487  0.38666482  0.35689480  1
  O  O257  1  0.60745410  0.37900189  0.87670617  1
  O  O258  1  0.62037859  0.86955444  0.37681991  1
  O  O259  1  0.61354380  0.87738068  0.88070504  1
  O  O260  1  0.39773479  0.11782479  0.13933132  1
  O  O261  1  0.33197765  0.13088487  0.61170131  1
  O  O262  1  0.37143022  0.63960431  0.13038359  1
  O  O263  1  0.41485835  0.60084981  0.56214541  1
  O  O264  1  0.88150241  0.13494375  0.13295581  1
  O  O265  1  0.87015858  0.14071683  0.63814026  1
  O  O266  1  0.87709559  0.63460580  0.12794334  1
  O  O267  1  0.88992991  0.60903436  0.65164838  1
  O  O268  1  0.26170139  0.26893365  0.16115211  1
  O  O269  1  0.27639761  0.18276857  0.62167615  1
  O  O270  1  0.25966343  0.76272124  0.11553704  1
  O  O271  1  0.21786328  0.74216144  0.59314996  1
  O  O272  1  0.75130744  0.25677993  0.11681852  1
  O  O273  1  0.77028281  0.26403894  0.64755794  1
  O  O274  1  0.75569140  0.76346579  0.10867047  1
  O  O275  1  0.74009300  0.76979412  0.61699463  1
  O  O276  1  0.23834303  0.25530524  0.35333339  1
  O  O277  1  0.23300021  0.24253340  0.88740991  1
  O  O278  1  0.27460158  0.77048701  0.39500261  1
  O  O279  1  0.23252715  0.75157991  0.89718747  1
  O  O280  1  0.74328849  0.27312344  0.38666147  1
  O  O281  1  0.74959402  0.24408606  0.88952759  1
  O  O282  1  0.74556014  0.75582839  0.38487810  1
  O  O283  1  0.74557791  0.74177822  0.88060072  1
  O  O284  1  -0.00141594  0.14074110  0.01312810  1
  O  O285  1  -0.01851699  0.12636873  0.48512805  1
  O  O286  1  0.00735018  0.61477921  0.01104230  1
  O  O287  1  -0.01167085  0.61702811  0.51979954  1
  O  O288  1  0.49579397  0.11482248  0.01138427  1
  O  O289  1  0.49962050  0.15154648  0.51179513  1
  O  O290  1  0.49715346  0.61567862  -0.00645561  1
  O  O291  1  0.46196982  0.62089409  0.50693476  1
  O  O292  1  0.45415927  0.35111411  0.48394281  1
  O  O293  1  0.49260406  0.38415808  0.99821515  1
  O  O294  1  0.48417505  0.82845236  0.46772813  1
  O  O295  1  0.49518619  0.89003421  1.00090609  1
  O  O296  1  0.98834067  0.37666171  0.48988957  1
  O  O297  1  0.99571563  0.39633610  1.01487444  1
  O  O298  1  0.98065019  0.86054552  0.49386137  1
  O  O299  1  1.00086019  0.88318909  0.99789867  1
  O  O300  1  0.47505118  0.49626144  0.35902678  1
  O  O301  1  0.49216753  0.49281787  0.88889247  1
  O  O302  1  0.50803705  0.98126093  0.37653077  1
  O  O303  1  0.49262207  0.99526101  0.88819203  1
  O  O304  1  0.98544785  0.50057897  0.38117497  1
  O  O305  1  1.00507445  0.49609268  0.89864062  1
  O  O306  1  0.98788256  0.98616132  0.39973479  1
  O  O307  1  1.00405246  0.97630068  0.88053952  1
  O  O308  1  -0.00625273  0.01754159  0.11042387  1
  O  O309  1  -0.02058071  -0.00380752  0.57988450  1
  O  O310  1  0.00324913  0.51162302  0.11788196  1
  O  O311  1  0.01071276  0.50114529  0.62945667  1
  O  O312  1  0.50782907  0.00568050  0.11312812  1
  O  O313  1  0.50586651  0.01578481  0.62992160  1
  O  O314  1  0.50176786  0.50547208  0.11410027  1
  O  O315  1  0.51989729  0.44640949  0.63201833  1
  O  O316  1  0.21979957  0.39449843  0.25655113  1
  O  O317  1  0.23454191  0.34064902  0.75459359  1
  O  O318  1  0.25315409  0.87701152  0.23381734  1
  O  O319  1  0.23192387  0.85602803  0.74784860  1
  O  O320  1  0.74170292  0.38355236  0.24382814  1
  O  O321  1  0.76870776  0.38179335  0.75554799  1
  O  O322  1  0.75582110  0.89421195  0.22801472  1
  O  O323  1  0.75847556  0.88962898  0.77082994  1
  O  O324  1  0.27123606  0.11674825  0.23525991  1
  O  O325  1  0.25559754  0.12898659  0.78788239  1
  O  O326  1  0.24842954  0.62782704  0.24964697  1
  O  O327  1  0.28206507  0.68468429  0.70406617  1
  O  O328  1  0.75147307  0.11396117  0.24141143  1
  O  O329  1  0.76204543  0.13497803  0.76766071  1
  O  O330  1  0.75570831  0.60818745  0.25138164  1
  O  O331  1  0.76768549  0.60276305  0.76422085  1
  O  O332  1  0.38948583  0.11148526  0.35580656  1
  O  O333  1  0.37325086  0.10691874  0.88699172  1
  O  O334  1  0.39122025  0.64817398  0.35603487  1
  O  O335  1  0.37542310  0.61001351  0.87795740  1
  O  O336  1  0.86486761  0.13729058  0.35577505  1
  O  O337  1  0.87682962  0.13594365  0.86575506  1
  O  O338  1  0.87809097  0.63246880  0.35301467  1
  O  O339  1  0.86864514  0.63114269  0.86620123  1
  O  O340  1  0.10621098  0.39490551  0.14580474  1
  O  O341  1  0.12371173  0.38666860  0.63833526  1
  O  O342  1  0.13827171  0.87820974  0.13200694  1
  O  O343  1  0.10065253  0.86738549  0.65237612  1
  O  O344  1  0.63930181  0.37703758  0.13415978  1
  O  O345  1  0.65688008  0.36989703  0.64073213  1
  O  O346  1  0.64212762  0.87569190  0.11484232  1
  O  O347  1  0.60572982  0.89544372  0.62166065  1
  O  O348  1  0.10736447  0.27249262  0.24499915  1
  O  O349  1  0.11634706  0.24827937  0.72990723  1
  O  O350  1  0.12837620  0.77189683  0.24656429  1
  O  O351  1  0.12424403  0.73541926  0.77376983  1
  O  O352  1  0.62237592  0.26423129  0.24970304  1
  O  O353  1  0.59923143  0.25383195  0.74503832  1
  O  O354  1  0.64804416  0.75088165  0.26673285  1
  O  O355  1  0.60477045  0.73797839  0.75288110  1
  O  O356  1  0.39728755  0.23062411  0.25406091  1
  O  O357  1  0.37954119  0.25267898  0.77682527  1
  O  O358  1  0.37626191  0.74337269  0.23308287  1
  O  O359  1  0.42753260  0.73490310  0.75568320  1
  O  O360  1  0.85413711  0.23723574  0.23618569  1
  O  O361  1  0.89327044  0.24221228  0.74389167  1
  O  O362  1  0.85236062  0.73467239  0.22909215  1
  O  O363  1  0.88847135  0.73362110  0.75070411  1
  O  O364  1  0.35507758  0.47008672  0.46909525  1
  O  O365  1  0.38589817  0.49557067  1.00042103  1
  O  O366  1  0.38957006  1.00866224  0.47764535  1
  O  O367  1  0.38509036  0.99171110  1.00173448  1
  O  O368  1  0.86509425  0.48723672  0.51459117  1
  O  O369  1  0.87976860  0.51090674  1.00951876  1
  O  O370  1  0.84481353  1.03522736  0.50014545  1
  O  O371  1  0.90224342  1.01743464  0.98765273  1
  O  O372  1  0.10448982  0.00599779  -0.00822331  1
  O  O373  1  0.15092854  -0.04659548  0.49427171  1
  O  O374  1  0.12891337  0.50886328  0.01460548  1
  O  O375  1  0.12586057  0.48941159  0.50809073  1
  O  O376  1  0.61372345  0.00107486  -0.00747946  1
  O  O377  1  0.64565886  0.00339294  0.52011346  1
  O  O378  1  0.60818314  0.49802606  0.00386219  1
  O  O379  1  0.60725914  0.48227922  0.50872203  1
  O  O380  1  0.37659906  0.38317978  0.12021309  1
  O  O381  1  0.35544735  0.37563567  0.61368437  1
  O  O382  1  0.36878898  0.86763903  0.11872247  1
  O  O383  1  0.37274086  0.86014233  0.64682311  1
  O  O384  1  0.86096755  0.36009601  0.13748693  1
  O  O385  1  0.88020773  0.36819534  0.62026036  1
  O  O386  1  0.86837208  0.86100096  0.12453182  1
  O  O387  1  0.90547162  0.85340475  0.64569415  1
  O  O388  1  0.09918965  0.14117807  0.34609275  1
  O  O389  1  0.13274240  0.13141360  0.88717257  1
  O  O390  1  0.12230587  0.63350573  0.36465638  1
  O  O391  1  0.12018771  0.63448392  0.89518440  1
  O  O392  1  0.56112542  0.13021398  0.47944017  1
  O  O393  1  0.63451683  0.12812996  0.86986049  1
  O  O394  1  0.62623770  0.63490814  0.37671837  1
  O  O395  1  0.64318827  0.62278736  0.86776901  1
