# generated using pymatgen
data_V35Zn35O128
_symmetry_space_group_name_H-M   'P 1'
_cell_length_a   16.95032517
_cell_length_b   16.95927210
_cell_length_c   16.88897512
_cell_angle_alpha   89.81693703
_cell_angle_beta   89.81694044
_cell_angle_gamma   89.83269060
_symmetry_Int_Tables_number   1
_chemical_formula_structural   V35Zn35O128
_chemical_formula_sum   'V70 Zn70 O256'
_cell_volume   4854.92210348
_cell_formula_units_Z   2
loop_
 _symmetry_equiv_pos_site_id
 _symmetry_equiv_pos_as_xyz
  1  'x, y, z'
loop_
 _atom_site_type_symbol
 _atom_site_label
 _atom_site_symmetry_multiplicity
 _atom_site_fract_x
 _atom_site_fract_y
 _atom_site_fract_z
 _atom_site_occupancy
  V  V0  1  0.25276793  0.37882350  0.12030252  1
  V  V1  1  0.24621673  0.11095936  0.37980882  1
  V  V2  1  0.11217450  0.12268642  -0.01337439  1
  V  V3  1  0.73808392  0.38170643  0.12086838  1
  V  V4  1  0.88592961  0.76178091  0.11543968  1
  V  V5  1  0.35944587  0.36667056  0.50734920  1
  V  V6  1  0.23484923  0.48254035  0.74611812  1
  V  V7  1  0.00854310  0.61275491  0.63306351  1
  V  V8  1  0.12865947  0.63170294  0.00510497  1
  V  V9  1  0.37482682  0.49553120  0.37484066  1
  V  V10  1  0.77098088  0.36638510  0.61481168  1
  V  V11  1  0.62602131  0.23405890  0.38030642  1
  V  V12  1  0.24919688  0.49965656  0.24626615  1
  V  V13  1  0.87115685  0.50928810  0.87293775  1
  V  V14  1  0.75454007  0.76057203  0.49045929  1
  V  V15  1  0.12616398  0.62121519  0.49966749  1
  V  V16  1  0.51224827  0.37901068  0.37755867  1
  V  V17  1  0.49973822  0.50765763  0.51097308  1
  V  V18  1  0.25353922  0.62603844  0.86857390  1
  V  V19  1  0.37604395  0.25512393  0.12740873  1
  V  V20  1  0.24998507  0.62710034  0.37718648  1
  V  V21  1  0.63948476  0.70988447  0.86529930  1
  V  V22  1  0.14025512  0.87931463  0.25700139  1
  V  V23  1  -0.00796453  0.89059977  0.88743117  1
  V  V24  1  -0.01373158  0.49860170  0.48593583  1
  V  V25  1  0.86913177  0.62820993  0.25165293  1
  V  V26  1  0.38059485  0.74088320  0.11642335  1
  V  V27  1  0.75220297  -0.03073975  0.24546866  1
  V  V28  1  0.11526818  0.37964714  0.24714761  1
  V  V29  1  0.89475823  0.22684546  0.62200075  1
  V  V30  1  0.49847593  0.86600484  0.36406435  1
  V  V31  1  0.63345377  0.49506285  0.62944971  1
  V  V32  1  -0.00765908  0.87881365  0.36585283  1
  V  V33  1  0.50544719  0.50036162  -0.00004432  1
  V  V34  1  0.72957537  0.24847904  -0.01217929  1
  V  V35  1  0.25025185  0.91333262  0.62738325  1
  V  V36  1  0.61185527  0.12148509  0.51694798  1
  V  V37  1  0.75117099  0.50170889  0.25460823  1
  V  V38  1  0.02162162  0.47125352  -0.01000658  1
  V  V39  1  0.86951442  0.36956739  -0.00324410  1
  V  V40  1  0.35168128  0.12574890  0.75793344  1
  V  V41  1  0.00357715  0.61843853  0.12678763  1
  V  V42  1  0.12496215  0.25800730  0.37238955  1
  V  V43  1  0.49441291  0.25680787  0.25512750  1
  V  V44  1  0.25054882  0.23447284  -0.00273405  1
  V  V45  1  0.64319594  0.61866352  0.49377629  1
  V  V46  1  0.11842551  0.12763905  0.50649789  1
  V  V47  1  0.87272236  0.12077625  0.77688382  1
  V  V48  1  0.36703737  0.11246261  0.25675048  1
  V  V49  1  0.37445060  0.86355329  -0.01424998  1
  V  V50  1  0.00778214  0.77162699  0.74346480  1
  V  V51  1  0.39024394  0.62581603  0.24488897  1
  V  V52  1  0.50520274  0.11302777  0.12474153  1
  V  V53  1  0.01453448  0.25888080  0.77351521  1
  V  V54  1  0.62507658  0.53045979  0.11923587  1
  V  V55  1  0.24883557  0.87120194  0.11384163  1
  V  V56  1  0.61525064  0.35478563  0.75147319  1
  V  V57  1  0.88023029  0.75635195  0.62836167  1
  V  V58  1  0.52372462  0.86846727  0.87175147  1
  V  V59  1  -0.00174466  0.22341209  0.23295117  1
  V  V60  1  0.12491421  0.74952178  0.37420040  1
  V  V61  1  -0.00274145  0.00341028  0.50869696  1
  V  V62  1  0.75731105  0.73308672  -0.00104236  1
  V  V63  1  0.38123660  0.24907364  0.64447056  1
  V  V64  1  0.74833411  0.87999873  0.64799757  1
  V  V65  1  0.37833136  0.46806456  0.87825637  1
  V  V66  1  0.12866262  0.76060005  0.87513403  1
  V  V67  1  0.36463920  0.00651815  0.88145142  1
  V  V68  1  0.12321647  0.00836120  0.12621721  1
  V  V69  1  0.34962732  0.73220670  0.61238974  1
  Zn  Zn70  1  0.49608158  0.72489080  0.72719197  1
  Zn  Zn71  1  0.86805864  0.03498527  0.36314697  1
  Zn  Zn72  1  0.82369448  0.66591386  0.79613722  1
  Zn  Zn73  1  0.81876332  0.56085736  0.42233237  1
  Zn  Zn74  1  0.60810695  -0.01701191  0.63331651  1
  Zn  Zn75  1  0.87239073  0.88534200  0.49838894  1
  Zn  Zn76  1  0.18938494  0.19129495  0.19151574  1
  Zn  Zn77  1  0.18109199  0.29253256  0.68203737  1
  Zn  Zn78  1  0.19033942  0.69273839  0.19120103  1
  Zn  Zn79  1  0.18454397  0.68057509  0.69395901  1
  Zn  Zn80  1  0.66697518  0.21844053  0.17695195  1
  Zn  Zn81  1  0.65651575  0.14156353  0.72568264  1
  Zn  Zn82  1  0.67498424  0.78677616  0.17723530  1
  Zn  Zn83  1  0.68790279  0.68013214  0.67924797  1
  Zn  Zn84  1  0.30695163  0.31219875  0.31760419  1
  Zn  Zn85  1  0.30533758  0.30927204  0.81532522  1
  Zn  Zn86  1  0.31351050  0.80496233  0.30861982  1
  Zn  Zn87  1  0.29900134  0.81647951  0.78983375  1
  Zn  Zn88  1  0.83625588  0.24647934  0.33357671  1
  Zn  Zn89  1  0.77404158  0.26773392  0.77731721  1
  Zn  Zn90  1  0.81477062  0.80407766  0.30559078  1
  Zn  Zn91  1  0.78083933  0.85551058  0.85935012  1
  Zn  Zn92  1  0.17273271  0.43862299  0.56002044  1
  Zn  Zn93  1  0.19212045  0.44325032  0.94475460  1
  Zn  Zn94  1  0.18290402  0.93839492  0.45398585  1
  Zn  Zn95  1  0.18325285  0.94600641  0.93601767  1
  Zn  Zn96  1  0.74133951  0.37966728  0.40567640  1
  Zn  Zn97  1  0.68812832  0.44369439  0.92711022  1
  Zn  Zn98  1  0.70384849  0.99098609  0.45031680  1
  Zn  Zn99  1  0.72210788  0.89984162  1.05963299  1
  Zn  Zn100  1  0.31402082  0.05424268  0.06952408  1
  Zn  Zn101  1  0.25202207  0.12449499  0.61632212  1
  Zn  Zn102  1  0.31566671  0.56485312  0.05330688  1
  Zn  Zn103  1  0.31173006  0.55760603  0.56770804  1
  Zn  Zn104  1  0.70048021  0.07259063  0.08452438  1
  Zn  Zn105  1  0.80627246  0.06820581  0.56015480  1
  Zn  Zn106  1  0.82561835  0.55604532  0.05979475  1
  Zn  Zn107  1  0.81902618  0.56785056  0.60731768  1
  Zn  Zn108  1  0.44580383  0.44108759  0.18289417  1
  Zn  Zn109  1  0.43327394  0.43353347  0.69467283  1
  Zn  Zn110  1  0.42918787  0.93729518  0.17668269  1
  Zn  Zn111  1  0.43784323  0.86882009  0.66827156  1
  Zn  Zn112  1  0.93111320  0.43977188  0.17522468  1
  Zn  Zn113  1  0.94562484  0.42823801  0.69876134  1
  Zn  Zn114  1  0.93847745  0.94911322  0.18661154  1
  Zn  Zn115  1  0.93108875  0.94530088  0.69448844  1
  Zn  Zn116  1  0.06271127  0.05942275  0.31210812  1
  Zn  Zn117  1  0.06634838  0.06871166  0.79787178  1
  Zn  Zn118  1  0.06209440  0.55829898  0.31358774  1
  Zn  Zn119  1  0.06370095  0.56557207  0.81687514  1
  Zn  Zn120  1  0.56999869  0.06480058  0.29656195  1
  Zn  Zn121  1  0.50293304  0.00823543  0.75911101  1
  Zn  Zn122  1  0.60567336  0.62626157  0.28095219  1
  Zn  Zn123  1  0.55063481  0.54953900  0.80615620  1
  Zn  Zn124  1  0.43269228  0.18659708  0.44096269  1
  Zn  Zn125  1  0.43002036  0.18260219  0.94858325  1
  Zn  Zn126  1  0.42966201  0.68152410  0.44470298  1
  Zn  Zn127  1  0.46167865  0.66469850  0.90264269  1
  Zn  Zn128  1  0.94848284  0.19406792  0.43305150  1
  Zn  Zn129  1  0.93059663  0.19052193  0.94331236  1
  Zn  Zn130  1  0.94439932  0.69415652  0.44051753  1
  Zn  Zn131  1  0.94895669  0.69104835  0.93690620  1
  Zn  Zn132  1  0.06911949  0.30996952  0.05469626  1
  Zn  Zn133  1  0.03564951  0.30708654  0.55745211  1
  Zn  Zn134  1  0.06190295  0.81267890  0.06438172  1
  Zn  Zn135  1  0.07863608  0.82068171  0.55433441  1
  Zn  Zn136  1  0.55698789  0.32671174  0.06011103  1
  Zn  Zn137  1  0.56023837  0.31098909  0.56182826  1
  Zn  Zn138  1  0.56176984  0.78700748  0.03405834  1
  Zn  Zn139  1  0.57413619  0.80449865  0.56336950  1
  O  O140  1  0.13637050  0.10830311  0.13248917  1
  O  O141  1  0.12951062  0.13688951  0.60367294  1
  O  O142  1  0.11861155  0.64106204  0.11518785  1
  O  O143  1  0.11451893  0.63273856  0.61289561  1
  O  O144  1  0.61036980  0.12888887  0.13496589  1
  O  O145  1  0.62187300  0.14546917  0.61252065  1
  O  O146  1  0.62397628  0.62590788  0.10993011  1
  O  O147  1  0.62676131  0.60675326  0.60976369  1
  O  O148  1  0.37544759  0.38105790  0.38540112  1
  O  O149  1  0.37443420  0.36953056  0.88435188  1
  O  O150  1  0.39376129  0.87199720  0.37556167  1
  O  O151  1  0.35667553  0.86447279  0.88487478  1
  O  O152  1  0.84615170  0.35107336  0.37345026  1
  O  O153  1  0.87476756  0.39007153  0.89726115  1
  O  O154  1  0.89181195  0.86407795  0.37115218  1
  O  O155  1  0.89367182  0.88367491  0.87033805  1
  O  O156  1  0.24387415  0.01104302  0.38406717  1
  O  O157  1  0.26648994  -0.00860418  0.87112041  1
  O  O158  1  0.26569866  0.50805308  0.36197126  1
  O  O159  1  0.25579903  0.50265367  0.87017487  1
  O  O160  1  0.76357335  -0.02520191  0.35861837  1
  O  O161  1  0.71299218  0.03722655  0.85743453  1
  O  O162  1  0.74980713  0.49341668  0.35856760  1
  O  O163  1  0.77158139  0.51041790  0.88472444  1
  O  O164  1  0.26184971  0.48727712  0.13122591  1
  O  O165  1  0.24413712  0.49774449  0.64082774  1
  O  O166  1  0.24389718  0.97980434  0.12694576  1
  O  O167  1  0.26170778  1.01257280  0.61229193  1
  O  O168  1  0.73620230  0.50618117  0.11675829  1
  O  O169  1  0.73520207  0.48741331  0.62006049  1
  O  O170  1  0.75167874  0.98386125  0.12821165  1
  O  O171  1  0.75668688  0.97860614  0.62114497  1
  O  O172  1  0.01723460  0.39077314  0.23487208  1
  O  O173  1  0.00898849  0.36087854  0.75883749  1
  O  O174  1  0.01525453  0.88104488  0.26333099  1
  O  O175  1  0.00533158  0.87223304  0.75509069  1
  O  O176  1  0.48953055  0.37011890  0.26756663  1
  O  O177  1  0.51360611  0.36886725  0.74373777  1
  O  O178  1  0.48153476  0.86571965  0.25916445  1
  O  O179  1  0.49909759  0.84352403  0.77633239  1
  O  O180  1  0.48627914  0.13357308  0.24843435  1
  O  O181  1  0.51261652  0.16446397  0.80431978  1
  O  O182  1  0.48770196  0.62091449  0.25211426  1
  O  O183  1  0.48200323  0.63646887  0.79235674  1
  O  O184  1  0.99906322  0.12208308  0.24106794  1
  O  O185  1  0.98289583  0.13954779  0.76652464  1
  O  O186  1  0.99864532  0.61299597  0.23243972  1
  O  O187  1  1.01268576  0.63148146  0.73481239  1
  O  O188  1  0.36432520  0.24572767  0.01789567  1
  O  O189  1  0.37010769  0.26503613  0.49927681  1
  O  O190  1  0.36321371  0.75842672  0.01060404  1
  O  O191  1  0.36649047  0.74386803  0.50960741  1
  O  O192  1  0.85987810  0.26605539  0.00127113  1
  O  O193  1  0.92510819  0.25760812  0.52456407  1
  O  O194  1  0.88010235  0.74814033  0.00921446  1
  O  O195  1  0.86914116  0.75576524  0.50821687  1
  O  O196  1  0.10455536  0.23773192  0.47769742  1
  O  O197  1  0.14212683  0.22911473  1.01280715  1
  O  O198  1  0.12432182  0.73525154  0.48437251  1
  O  O199  1  0.12317324  0.74420899  0.98497739  1
  O  O200  1  0.61863252  0.24254491  0.48552167  1
  O  O201  1  0.62890105  0.26309160  1.00106602  1
  O  O202  1  0.64686316  0.73080468  0.50995858  1
  O  O203  1  0.65266222  0.72942844  0.98410745  1
  O  O204  1  0.49149712  0.25362390  0.13797936  1
  O  O205  1  0.47853948  0.25105874  0.61754555  1
  O  O206  1  0.47901712  0.74920819  0.11373868  1
  O  O207  1  0.48665319  0.76818157  0.62070491  1
  O  O208  1  1.02088606  0.24518029  0.13590754  1
  O  O209  1  0.99501085  0.24900397  0.65242082  1
  O  O210  1  0.99315772  0.73701391  0.12000756  1
  O  O211  1  1.00647998  0.76848351  0.63318599  1
  O  O212  1  0.01901036  0.23948880  0.34932842  1
  O  O213  1  -0.00283985  0.25385266  0.87547185  1
  O  O214  1  0.01421985  0.76755413  0.38033489  1
  O  O215  1  0.01133526  0.76274895  0.86383858  1
  O  O216  1  0.50181412  0.26279917  0.37394852  1
  O  O217  1  0.51556821  0.20828002  0.86514372  1
  O  O218  1  0.48586901  0.76142093  0.36908929  1
  O  O219  1  0.53795639  0.75459816  0.90118684  1
  O  O220  1  0.23076545  0.12979616  0.48439718  1
  O  O221  1  0.25355156  0.13198673  1.00844599  1
  O  O222  1  0.24077599  0.60773348  0.48479538  1
  O  O223  1  0.23575264  0.62237683  0.98886688  1
  O  O224  1  0.72340136  0.10185717  0.49017342  1
  O  O225  1  0.74189862  0.15024503  1.01444139  1
  O  O226  1  0.74960359  0.62225258  0.50033627  1
  O  O227  1  0.77640649  0.63482681  0.99251374  1
  O  O228  1  0.24602155  0.36527092  0.01806287  1
  O  O229  1  0.26287719  0.38810307  0.50115323  1
  O  O230  1  0.25084699  0.87337600  0.01026805  1
  O  O231  1  0.37849566  0.99802800  0.48982129  1
  O  O232  1  0.75115082  0.37580173  0.00345284  1
  O  O233  1  0.73865951  0.37322825  0.51765544  1
  O  O234  1  0.76249629  0.84439958  -0.02795222  1
  O  O235  1  0.75100203  0.86378094  0.49973491  1
  O  O236  1  0.13853622  0.48928962  0.25706889  1
  O  O237  1  0.13660230  0.49417747  0.76210767  1
  O  O238  1  0.12961490  0.98468142  0.24301212  1
  O  O239  1  0.11712108  1.01442922  0.71410391  1
  O  O240  1  0.64364087  0.52639663  0.23316200  1
  O  O241  1  0.61570109  0.49878033  0.72994033  1
  O  O242  1  0.66222861  1.01907907  0.25057738  1
  O  O243  1  0.60979172  1.03773042  0.73660693  1
  O  O244  1  0.37621495  0.01404627  0.24824893  1
  O  O245  1  0.38236933  0.02220460  0.76604857  1
  O  O246  1  0.37161267  0.50923173  0.25233082  1
  O  O247  1  0.36061517  0.48534214  0.76969313  1
  O  O248  1  0.85727067  -0.00166035  0.24675745  1
  O  O249  1  0.87491043  0.02191746  0.75223006  1
  O  O250  1  0.86248874  0.51411458  0.23694697  1
  O  O251  1  0.88951173  0.49223955  0.77501096  1
  O  O252  1  0.12534962  0.36180728  0.35780280  1
  O  O253  1  0.09065586  0.39246918  0.96496800  1
  O  O254  1  0.13034613  0.87120868  0.36831671  1
  O  O255  1  0.13001598  0.86185507  0.87819673  1
  O  O256  1  0.61153560  0.37312073  0.38047630  1
  O  O257  1  0.63465447  0.38715086  0.84617439  1
  O  O258  1  0.59903515  0.84759335  0.34106248  1
  O  O259  1  0.61916533  0.88628496  0.87355855  1
  O  O260  1  0.38013278  0.13214783  0.14081922  1
  O  O261  1  0.38035257  0.13568965  0.65322123  1
  O  O262  1  0.36671116  0.63141424  0.13251120  1
  O  O263  1  0.37006702  0.63317901  0.62650446  1
  O  O264  1  0.83626773  0.14305054  0.16153172  1
  O  O265  1  0.88349284  0.12652173  0.61914332  1
  O  O266  1  0.89182276  0.62922223  0.12906062  1
  O  O267  1  0.90742995  0.64870192  0.61601376  1
  O  O268  1  0.25941210  0.25924765  0.12581064  1
  O  O269  1  0.27251676  0.23980377  0.62806815  1
  O  O270  1  0.25868534  0.76476142  0.13164262  1
  O  O271  1  0.24774186  0.73851655  0.62178620  1
  O  O272  1  0.74137127  0.27704369  0.11885741  1
  O  O273  1  0.79189128  0.26105248  0.61363915  1
  O  O274  1  0.76884734  0.75028793  0.10609936  1
  O  O275  1  0.76535436  0.76254116  0.62086241  1
  O  O276  1  0.23147337  0.24162855  0.36726043  1
  O  O277  1  0.25454901  0.25094231  0.89943173  1
  O  O278  1  0.24539182  0.73431518  0.36918930  1
  O  O279  1  0.23389052  0.73905894  0.85625514  1
  O  O280  1  0.72171043  0.25797776  0.35926222  1
  O  O281  1  0.74425161  0.25535207  0.88922246  1
  O  O282  1  0.76164801  0.74850522  0.39212575  1
  O  O283  1  0.74851242  0.73293211  0.86545939  1
  O  O284  1  0.01431681  0.13234601  0.00096759  1
  O  O285  1  0.00766805  0.11305547  0.49414099  1
  O  O286  1  0.01640796  0.62732974  0.00752951  1
  O  O287  1  0.01005431  0.62233061  0.50588454  1
  O  O288  1  0.49113808  0.12875791  0.02645464  1
  O  O289  1  0.51080390  0.12865086  0.49635177  1
  O  O290  1  0.48019644  0.60132854  -0.00330966  1
  O  O291  1  0.50223269  0.60947215  0.49416936  1
  O  O292  1  0.49086463  0.38334757  0.48928661  1
  O  O293  1  0.48284272  0.39965384  1.01832588  1
  O  O294  1  0.51981869  0.86588907  0.46468229  1
  O  O295  1  0.47874570  0.86441704  0.98457696  1
  O  O296  1  0.99659342  0.40225666  0.50347668  1
  O  O297  1  0.97295643  0.37773843  1.03265808  1
  O  O298  1  1.00648257  0.88916004  0.48486690  1
  O  O299  1  1.00857117  0.87613235  0.98696126  1
  O  O300  1  0.48773550  0.48764172  0.38135841  1
  O  O301  1  0.48564573  0.48865870  0.88449008  1
  O  O302  1  0.51139259  0.96868570  0.35787316  1
  O  O303  1  0.47617230  0.97016671  0.86919241  1
  O  O304  1  0.99088885  0.50772099  0.38535960  1
  O  O305  1  1.00404420  0.50054804  0.89235266  1
  O  O306  1  0.99367338  0.98967126  0.37515846  1
  O  O307  1  1.02133948  0.98462025  0.86770879  1
  O  O308  1  0.02457362  -0.00821573  0.12643591  1
  O  O309  1  -0.00345225  -0.01101822  0.60685857  1
  O  O310  1  0.00409579  0.51371148  0.10609936  1
  O  O311  1  -0.00205231  0.51360623  0.62629950  1
  O  O312  1  0.50012665  0.01347559  0.13468898  1
  O  O313  1  0.49465175  -0.03613913  0.65296084  1
  O  O314  1  0.51599160  0.50731157  0.12068467  1
  O  O315  1  0.49523119  0.49562573  0.61235032  1
  O  O316  1  0.24670404  0.38430076  0.24493879  1
  O  O317  1  0.24009183  0.37711915  0.75181849  1
  O  O318  1  0.24377917  0.87403064  0.24756138  1
  O  O319  1  0.23496650  0.88656635  0.72504273  1
  O  O320  1  0.74868643  0.40051947  0.23023838  1
  O  O321  1  0.73291359  0.36156907  0.71914471  1
  O  O322  1  0.74376380  0.86579254  0.24006096  1
  O  O323  1  0.75838528  0.87436833  0.74759950  1
  O  O324  1  0.26093875  0.12575092  0.25906081  1
  O  O325  1  0.25563447  0.12432709  0.75378858  1
  O  O326  1  0.25122774  0.61430106  0.25562987  1
  O  O327  1  0.24127651  0.60726207  0.76479717  1
  O  O328  1  0.78164637  0.14550144  0.21091985  1
  O  O329  1  0.76890610  0.14823576  0.75159325  1
  O  O330  1  0.76724928  0.61893972  0.25036850  1
  O  O331  1  0.77923351  0.62001461  0.70513794  1
  O  O332  1  0.36046614  0.12984740  0.36822224  1
  O  O333  1  0.37253470  0.11420102  0.87750294  1
  O  O334  1  0.37028513  0.61934858  0.36231117  1
  O  O335  1  0.34958727  0.63801084  0.88245606  1
  O  O336  1  0.86385553  0.14638445  0.37865635  1
  O  O337  1  0.86648531  0.12313078  0.87790892  1
  O  O338  1  0.88587709  0.63397721  0.35644866  1
  O  O339  1  0.89405531  0.61658580  0.87145582  1
  O  O340  1  0.14446907  0.37076535  0.13876985  1
  O  O341  1  0.12198990  0.35554792  0.61065893  1
  O  O342  1  0.13618183  0.87307310  0.13548125  1
  O  O343  1  0.17606439  0.88174607  0.55502506  1
  O  O344  1  0.63444190  0.39485891  0.12045920  1
  O  O345  1  0.61804867  0.38536646  0.62715930  1
  O  O346  1  0.62643946  0.85191863  0.10071533  1
  O  O347  1  0.64590197  0.86758026  0.62794030  1
  O  O348  1  0.11956833  0.26257735  0.25094035  1
  O  O349  1  0.11479692  0.23983352  0.75955844  1
  O  O350  1  0.12909774  0.76412062  0.26224281  1
  O  O351  1  0.11279605  0.74722888  0.75983051  1
  O  O352  1  0.60198581  0.24677779  0.26431599  1
  O  O353  1  0.62820742  0.25372610  0.75052628  1
  O  O354  1  0.63924330  0.72973045  0.26297641  1
  O  O355  1  0.62454134  0.72899858  0.76276005  1
  O  O356  1  0.37976405  0.24439660  0.24791992  1
  O  O357  1  0.37638550  0.24205222  0.75394356  1
  O  O358  1  0.37137302  0.73229592  0.23744698  1
  O  O359  1  0.37418316  0.77160987  0.71715702  1
  O  O360  1  0.90289581  0.25758316  0.24036690  1
  O  O361  1  0.88450408  0.23998703  0.74160906  1
  O  O362  1  0.87155891  0.73507844  0.23035592  1
  O  O363  1  0.90059185  0.74895162  0.74099597  1
  O  O364  1  0.38248318  0.49328200  0.49442098  1
  O  O365  1  0.36668354  0.49744328  0.97916885  1
  O  O366  1  0.44310991  0.99321005  0.52117900  1
  O  O367  1  0.36959357  0.98237541  0.99069156  1
  O  O368  1  0.88345331  0.52322341  0.50914592  1
  O  O369  1  0.89709941  0.49642062  0.99062077  1
  O  O370  1  0.88726988  1.00258367  0.48993996  1
  O  O371  1  0.75774848  1.00001542  0.90053981  1
  O  O372  1  0.13490735  0.01481748  0.01386262  1
  O  O373  1  0.10913003  0.01867637  0.49090911  1
  O  O374  1  0.12175857  0.52363835  0.00421853  1
  O  O375  1  0.10873595  0.51477074  0.49954619  1
  O  O376  1  0.61965401  0.01517267  -0.01003615  1
  O  O377  1  0.61297662  0.00924343  0.51817082  1
  O  O378  1  0.61203949  0.50160897  0.00130059  1
  O  O379  1  0.60971025  0.50484581  0.50896302  1
  O  O380  1  0.36426333  0.36552128  0.13812377  1
  O  O381  1  0.37411503  0.36509746  0.61675165  1
  O  O382  1  0.36542228  0.86617310  0.11591830  1
  O  O383  1  0.34075587  0.87354749  0.60037414  1
  O  O384  1  0.84794009  0.39896943  0.10892763  1
  O  O385  1  0.86688260  0.39620438  0.62341048  1
  O  O386  1  0.89207704  0.85964413  0.12893404  1
  O  O387  1  0.87018905  0.86902080  0.62356906  1
  O  O388  1  0.13657667  0.12995498  0.36679248  1
  O  O389  1  0.12619846  0.11602685  0.88913303  1
  O  O390  1  0.13094122  0.63059358  0.37578300  1
  O  O391  1  0.12898622  0.63601055  0.88554930  1
  O  O392  1  0.61741702  0.13242198  0.37797941  1
  O  O393  1  0.60658966  0.05483342  0.92926991  1
  O  O394  1  0.62647883  0.61564988  0.39585349  1
  O  O395  1  0.63237262  0.61234256  0.87147580  1
