# generated using pymatgen
data_V35Zn35O128
_symmetry_space_group_name_H-M   'P 1'
_cell_length_a   16.86628624
_cell_length_b   16.90231941
_cell_length_c   16.82749182
_cell_angle_alpha   90.41184016
_cell_angle_beta   89.99005021
_cell_angle_gamma   89.79823660
_symmetry_Int_Tables_number   1
_chemical_formula_structural   V35Zn35O128
_chemical_formula_sum   'V70 Zn70 O256'
_cell_volume   4797.01678751
_cell_formula_units_Z   2
loop_
 _symmetry_equiv_pos_site_id
 _symmetry_equiv_pos_as_xyz
  1  'x, y, z'
loop_
 _atom_site_type_symbol
 _atom_site_label
 _atom_site_symmetry_multiplicity
 _atom_site_fract_x
 _atom_site_fract_y
 _atom_site_fract_z
 _atom_site_occupancy
  V  V0  1  0.00816161  0.62239480  0.12042230  1
  V  V1  1  0.73298885  0.63335163  0.36690167  1
  V  V2  1  0.00059198  0.01371445  0.51254332  1
  V  V3  1  -0.00284650  0.88386067  0.37609405  1
  V  V4  1  0.62748858  0.47262908  0.12769998  1
  V  V5  1  0.11352037  0.00545672  0.12612815  1
  V  V6  1  0.75028480  0.46710389  0.75267941  1
  V  V7  1  0.61566894  0.13016824  0.49558640  1
  V  V8  1  0.11836986  0.26633859  0.87597065  1
  V  V9  1  0.75552084  0.00508763  0.76263692  1
  V  V10  1  0.38385766  0.74362583  0.12266820  1
  V  V11  1  0.87978262  0.62208515  0.25773715  1
  V  V12  1  0.86465837  0.50671629  0.87903651  1
  V  V13  1  0.24387512  0.38286741  0.61775525  1
  V  V14  1  0.32948225  0.49365174  0.37205818  1
  V  V15  1  0.87276319  0.87997961  -0.00680369  1
  V  V16  1  0.00060738  0.26713155  0.73803035  1
  V  V17  1  0.74390494  0.00584270  0.26389407  1
  V  V18  1  0.25735229  0.24316050  -0.01398390  1
  V  V19  1  0.87391386  0.75872295  0.12764663  1
  V  V20  1  0.13796648  0.62319495  0.50468937  1
  V  V21  1  0.24935497  0.00520859  0.25586689  1
  V  V22  1  0.38134002  -0.00849487  0.38454819  1
  V  V23  1  0.24325363  0.25046024  0.49568356  1
  V  V24  1  0.61201544  -0.00639334  0.62178528  1
  V  V25  1  0.62361577  0.86414695  0.24214651  1
  V  V26  1  0.13112882  0.86282745  0.74535526  1
  V  V27  1  0.36538891  0.13696642  0.75326763  1
  V  V28  1  0.60915523  0.50382538  0.58546768  1
  V  V29  1  0.13079346  0.12160627  -0.00580129  1
  V  V30  1  0.36828594  0.24905718  0.12883090  1
  V  V31  1  0.37507870  0.12631044  0.25809763  1
  V  V32  1  0.36354950  0.00595431  0.86928076  1
  V  V33  1  0.39019992  0.75046912  0.62712153  1
  V  V34  1  0.50817622  0.12370543  0.12595109  1
  V  V35  1  0.13848293  0.01050780  0.63320310  1
  V  V36  1  0.10799729  0.50790440  0.63335681  1
  V  V37  1  0.87448459  0.87863244  0.49664544  1
  V  V38  1  0.74217578  0.21205828  0.00084768  1
  V  V39  1  0.89712682  0.12125645  0.25618746  1
  V  V40  1  0.75707047  0.87206422  0.62630912  1
  V  V41  1  0.36231215  0.61663620  0.25047414  1
  V  V42  1  0.91451404  0.40465683  0.49145449  1
  V  V43  1  0.74457063  0.74338114  -0.00431337  1
  V  V44  1  0.75043694  0.48028951  0.25169253  1
  V  V45  1  0.51254378  0.00594063  0.00108521  1
  V  V46  1  0.38115451  0.37943166  -0.00543853  1
  V  V47  1  0.11931909  0.23538828  0.36874559  1
  V  V48  1  0.14098595  0.38466024  0.25136131  1
  V  V49  1  0.00925031  0.49126598  -0.00739341  1
  V  V50  1  0.38619835  0.62392549  0.75120080  1
  V  V51  1  0.85024107  0.37180895  0.00028139  1
  V  V52  1  0.61867903  0.86202899  0.74927730  1
  V  V53  1  0.00648804  0.75322899  0.25328984  1
  V  V54  1  0.89216896  0.12662380  0.75317281  1
  V  V55  1  -0.00387867  0.00681670  -0.01099088  1
  V  V56  1  0.49922790  0.14715415  0.63982060  1
  V  V57  1  0.88645321  0.24521185  0.12374971  1
  V  V58  1  0.25084900  0.77540201  0.51494706  1
  V  V59  1  0.24756229  0.49605763  0.76127716  1
  V  V60  1  0.24902060  0.87177825  0.11850621  1
  V  V61  1  0.38682849  0.38100826  0.49614599  1
  V  V62  1  0.62346617  0.23282293  0.86270417  1
  V  V63  1  0.12344166  0.64681370  -0.01230536  1
  V  V64  1  0.50560155  0.86593633  0.87501033  1
  V  V65  1  0.12642277  0.87595332  0.25398753  1
  V  V66  1  0.37045709  0.87530985  -0.00165766  1
  V  V67  1  0.74040252  0.74790014  0.49386283  1
  V  V68  1  0.24833487  0.65251828  0.87430173  1
  V  V69  1  0.74823043  0.24808163  0.52485922  1
  Zn  Zn70  1  0.00162096  0.87206673  0.86638379  1
  Zn  Zn71  1  0.50244926  0.86132114  0.37024630  1
  Zn  Zn72  1  0.61589052  0.62824432  0.02352400  1
  Zn  Zn73  1  0.52899961  0.37301022  0.84078710  1
  Zn  Zn74  1  0.49986375  0.49596198  -0.00072047  1
  Zn  Zn75  1  0.14732058  0.73803172  0.37374688  1
  Zn  Zn76  1  0.18605429  0.18661248  0.18584084  1
  Zn  Zn77  1  0.18492054  0.19581868  0.68943672  1
  Zn  Zn78  1  0.19342040  0.68502943  0.17890797  1
  Zn  Zn79  1  0.18934887  0.68725192  0.68832598  1
  Zn  Zn80  1  0.70230484  0.18397976  0.18554462  1
  Zn  Zn81  1  0.69207096  0.18003247  0.68625742  1
  Zn  Zn82  1  0.69285322  0.69520489  0.18020274  1
  Zn  Zn83  1  0.66310162  0.68928202  0.66194151  1
  Zn  Zn84  1  0.30300416  0.31347121  0.31109554  1
  Zn  Zn85  1  0.36546908  0.34749716  0.78042332  1
  Zn  Zn86  1  0.31167691  0.81501662  0.30893288  1
  Zn  Zn87  1  0.31860261  0.81867797  0.79972230  1
  Zn  Zn88  1  0.83310200  0.29219113  0.32424035  1
  Zn  Zn89  1  0.81416867  0.29907686  0.82618914  1
  Zn  Zn90  1  0.80867355  0.81913134  0.31284399  1
  Zn  Zn91  1  0.80834761  0.81173950  0.81751267  1
  Zn  Zn92  1  0.14218524  0.42663884  0.44686998  1
  Zn  Zn93  1  0.19857366  0.44092802  0.95985527  1
  Zn  Zn94  1  0.18530927  0.95004055  0.44301197  1
  Zn  Zn95  1  0.18318670  0.93080808  0.92830182  1
  Zn  Zn96  1  0.74271680  0.44739622  0.44886496  1
  Zn  Zn97  1  0.66826679  0.44059136  0.93219094  1
  Zn  Zn98  1  0.68156691  0.94161148  0.43457691  1
  Zn  Zn99  1  0.68959223  0.93162297  0.94294764  1
  Zn  Zn100  1  0.31418581  0.05947295  0.06516944  1
  Zn  Zn101  1  0.31379425  0.06202203  0.57467047  1
  Zn  Zn102  1  0.29253969  0.56237727  0.07297882  1
  Zn  Zn103  1  0.31437668  0.56072300  0.56670737  1
  Zn  Zn104  1  0.81059764  0.05520975  0.08625229  1
  Zn  Zn105  1  0.81013903  0.06705177  0.56702794  1
  Zn  Zn106  1  0.81364419  0.55840144  0.07183736  1
  Zn  Zn107  1  0.78203415  0.55944474  0.56776127  1
  Zn  Zn108  1  0.42419317  0.44864785  0.17816323  1
  Zn  Zn109  1  0.44846941  0.46131193  0.67014297  1
  Zn  Zn110  1  0.44148913  0.93788294  0.18896402  1
  Zn  Zn111  1  0.43129886  0.93743046  0.68995744  1
  Zn  Zn112  1  0.97084842  0.41691387  0.16725921  1
  Zn  Zn113  1  0.91261488  0.43724717  0.67567451  1
  Zn  Zn114  1  0.91623784  0.95187353  0.18498901  1
  Zn  Zn115  1  0.94144388  0.94018010  0.69077069  1
  Zn  Zn116  1  0.06302939  0.06520914  0.31950854  1
  Zn  Zn117  1  0.06927112  0.06223452  0.80992755  1
  Zn  Zn118  1  0.06819232  0.56299665  0.31372392  1
  Zn  Zn119  1  0.05622899  0.56634136  0.81353516  1
  Zn  Zn120  1  0.56078308  0.05711789  0.30975498  1
  Zn  Zn121  1  0.56361996  0.05598416  0.81217572  1
  Zn  Zn122  1  0.57390887  0.59553868  0.24270149  1
  Zn  Zn123  1  0.57772040  0.56214503  0.82616046  1
  Zn  Zn124  1  0.40589004  0.16816572  0.47026786  1
  Zn  Zn125  1  0.44774375  0.18742119  0.93179777  1
  Zn  Zn126  1  0.37949678  0.70642063  0.41105055  1
  Zn  Zn127  1  0.43727839  0.68197103  0.93727728  1
  Zn  Zn128  1  0.93113925  0.19796289  0.44081592  1
  Zn  Zn129  1  0.93363943  0.18805349  0.93242238  1
  Zn  Zn130  1  0.93444594  0.70102986  0.43914896  1
  Zn  Zn131  1  0.92665031  0.68217203  0.93975026  1
  Zn  Zn132  1  0.07077156  0.30539935  0.06856962  1
  Zn  Zn133  1  0.05912647  0.31795137  0.55977842  1
  Zn  Zn134  1  0.05537761  0.82098727  0.06447312  1
  Zn  Zn135  1  0.06590200  0.81610161  0.56633374  1
  Zn  Zn136  1  0.56370953  0.30020259  0.05904089  1
  Zn  Zn137  1  0.57262026  0.32077051  0.57309220  1
  Zn  Zn138  1  0.56268226  0.82216312  0.07014281  1
  Zn  Zn139  1  0.52762018  0.76800303  0.50547650  1
  O  O140  1  0.12880281  0.11274017  0.11400487  1
  O  O141  1  0.13072844  0.11201548  0.63209102  1
  O  O142  1  0.11634937  0.63341872  0.10694665  1
  O  O143  1  0.12735779  0.61781733  0.61774979  1
  O  O144  1  0.60616918  0.13115978  0.13919757  1
  O  O145  1  0.60901185  0.11096672  0.63028306  1
  O  O146  1  0.62632373  0.61412278  0.14074873  1
  O  O147  1  0.66898870  0.59075067  0.61343105  1
  O  O148  1  0.36127894  0.38876666  0.38132710  1
  O  O149  1  0.37526669  0.37971557  0.89431499  1
  O  O150  1  0.37943903  0.88804445  0.36797570  1
  O  O151  1  0.38439195  0.88564595  0.87651250  1
  O  O152  1  0.88335120  0.34627464  0.41343958  1
  O  O153  1  0.87461169  0.37528167  0.89776404  1
  O  O154  1  0.88777784  0.87382479  0.37980941  1
  O  O155  1  0.87929002  0.87296299  0.88997886  1
  O  O156  1  0.25544111  -0.00516325  0.36167060  1
  O  O157  1  0.26505768  -0.00036933  0.88192057  1
  O  O158  1  0.23230568  0.49068677  0.37833607  1
  O  O159  1  0.24300791  0.49413413  0.86214601  1
  O  O160  1  0.75545678  -0.00015956  0.36640394  1
  O  O161  1  0.74603259  -0.01606530  0.86029738  1
  O  O162  1  0.75311168  0.52435754  0.35693431  1
  O  O163  1  0.75817191  0.48938345  0.87060824  1
  O  O164  1  0.21755443  0.47926841  0.06763101  1
  O  O165  1  0.23800425  0.49796980  0.63308463  1
  O  O166  1  0.24070517  0.99121764  0.13414272  1
  O  O167  1  0.23790953  0.99516187  0.62021079  1
  O  O168  1  0.74854418  0.49485599  0.14399558  1
  O  O169  1  0.79277647  0.48664310  0.65649576  1
  O  O170  1  0.79817284  0.97754308  0.16572186  1
  O  O171  1  0.74079266  0.98522328  0.63407317  1
  O  O172  1  -0.03321606  0.41690988  0.29163053  1
  O  O173  1  -0.01068557  0.36521209  0.74318816  1
  O  O174  1  0.00904429  0.87108081  0.25462281  1
  O  O175  1  0.00739908  0.87657450  0.75241970  1
  O  O176  1  0.52769743  0.37816853  0.31452673  1
  O  O177  1  0.46755828  0.38446770  0.74705014  1
  O  O178  1  0.51295935  0.88277273  0.25576795  1
  O  O179  1  0.51069828  0.87921153  0.76233644  1
  O  O180  1  0.48380563  0.11490162  0.23801914  1
  O  O181  1  0.49337371  0.11864152  0.74227247  1
  O  O182  1  0.46221134  0.61130686  0.23469953  1
  O  O183  1  0.48388701  0.60794991  0.76341434  1
  O  O184  1  0.99832895  0.13039953  0.25212955  1
  O  O185  1  0.99558092  0.12823251  0.75006896  1
  O  O186  1  0.99819706  0.63214686  0.24249504  1
  O  O187  1  0.99064541  0.61969703  0.74044390  1
  O  O188  1  0.36933742  0.24440426  0.00502464  1
  O  O189  1  0.36265113  0.27597036  0.49219901  1
  O  O190  1  0.37916973  0.76974208  0.00422143  1
  O  O191  1  0.35861319  0.74348535  0.51900474  1
  O  O192  1  0.85749409  0.25447410  -0.00211963  1
  O  O193  1  0.84521799  0.21957537  0.51017904  1
  O  O194  1  0.87242421  0.75889075  0.00965452  1
  O  O195  1  0.86128584  0.76927837  0.49787882  1
  O  O196  1  0.13679529  0.25454009  0.49305106  1
  O  O197  1  0.13860022  0.24253152  0.99873423  1
  O  O198  1  0.14162723  0.74647595  0.50208487  1
  O  O199  1  0.11303480  0.74598040  0.99450046  1
  O  O200  1  0.62351653  0.23567074  0.50971118  1
  O  O201  1  0.64117458  0.23104513  1.00981105  1
  O  O202  1  0.64140942  0.74323545  0.50140099  1
  O  O203  1  0.64420832  0.75672493  1.02040620  1
  O  O204  1  0.48477635  0.23027275  0.11662958  1
  O  O205  1  0.50681952  0.24583947  0.63873744  1
  O  O206  1  0.48242942  0.75906278  0.12551587  1
  O  O207  1  0.48925534  0.73482099  0.60881902  1
  O  O208  1  0.98155166  0.23683683  0.08977381  1
  O  O209  1  1.01690272  0.25013223  0.63954064  1
  O  O210  1  0.99959222  0.74381640  0.13663257  1
  O  O211  1  1.00082765  0.71690217  0.58915103  1
  O  O212  1  0.02077910  0.24509369  0.38779381  1
  O  O213  1  0.01534491  0.25502175  0.88166955  1
  O  O214  1  0.00542738  0.76190709  0.36294043  1
  O  O215  1  -0.03653756  0.74225158  0.84132304  1
  O  O216  1  0.50295087  0.31257628  0.33310223  1
  O  O217  1  0.51588116  0.25589428  0.87706812  1
  O  O218  1  0.48351423  0.74729322  0.39951433  1
  O  O219  1  0.49165320  0.76897181  0.88043226  1
  O  O220  1  0.27481488  0.15528845  0.51458727  1
  O  O221  1  0.24375315  0.12963669  1.00303146  1
  O  O222  1  0.23895578  0.62587547  0.50008490  1
  O  O223  1  0.23402066  0.63116203  0.98443896  1
  O  O224  1  0.72421988  0.13032525  0.51450669  1
  O  O225  1  0.75524891  0.11185784  1.00615621  1
  O  O226  1  0.76101728  0.63926250  0.48039652  1
  O  O227  1  0.75453104  0.64252034  1.01619599  1
  O  O228  1  0.26710114  0.34953011  0.00214078  1
  O  O229  1  0.24329077  0.37405692  0.50797454  1
  O  O230  1  0.25739974  0.88716545  0.00789413  1
  O  O231  1  0.24581468  0.87381985  0.50652659  1
  O  O232  1  0.75269492  0.37897726  0.00608830  1
  O  O233  1  0.73582785  0.33943423  0.47975046  1
  O  O234  1  0.76743027  0.86907682  0.00342540  1
  O  O235  1  0.75160910  0.87231552  0.50747028  1
  O  O236  1  0.12202210  0.48556038  0.25409994  1
  O  O237  1  0.13540695  0.50846336  0.74218408  1
  O  O238  1  0.12893197  0.99451954  0.24509538  1
  O  O239  1  0.12447132  0.99428051  0.73885488  1
  O  O240  1  0.64202607  0.48921578  0.24496823  1
  O  O241  1  0.65766109  0.51221896  0.75513909  1
  O  O242  1  0.64126138  1.00594479  0.24770619  1
  O  O243  1  0.63314559  0.98731268  0.74240735  1
  O  O244  1  0.36689881  0.00863755  0.25618173  1
  O  O245  1  0.37630701  0.00465143  0.76455067  1
  O  O246  1  0.36614132  0.49618947  0.26536477  1
  O  O247  1  0.35516088  0.51723075  0.74383093  1
  O  O248  1  0.89339008  0.02045966  0.27723646  1
  O  O249  1  0.86274710  0.00436258  0.75011207  1
  O  O250  1  0.86285166  0.52386140  0.23906046  1
  O  O251  1  0.87081917  0.48419675  0.77641193  1
  O  O252  1  0.12419982  0.36227952  0.35526958  1
  O  O253  1  0.13594398  0.36277588  0.89030739  1
  O  O254  1  0.12220118  0.87432889  0.36268131  1
  O  O255  1  0.11755310  0.87467025  0.85886141  1
  O  O256  1  0.65993483  0.27865933  0.32087696  1
  O  O257  1  0.63296816  0.34301066  0.88612936  1
  O  O258  1  0.61843045  0.88217991  0.36240577  1
  O  O259  1  0.61554775  0.87359944  0.86488107  1
  O  O260  1  0.38023127  0.12893743  0.13466966  1
  O  O261  1  0.39023578  0.12252363  0.64007659  1
  O  O262  1  0.37372841  0.64656303  0.09490657  1
  O  O263  1  0.36745181  0.63133944  0.64233875  1
  O  O264  1  0.87855789  0.13495775  0.14498695  1
  O  O265  1  0.85956660  0.12433409  0.65340817  1
  O  O266  1  0.88737061  0.64118631  0.13209581  1
  O  O267  1  0.84410432  0.64584210  0.66313635  1
  O  O268  1  0.26435441  0.23909595  0.11464222  1
  O  O269  1  0.23845821  0.27589565  0.62052271  1
  O  O270  1  0.25581584  0.76737724  0.12288086  1
  O  O271  1  0.25416887  0.75230443  0.61800348  1
  O  O272  1  0.76694585  0.23969325  0.10784193  1
  O  O273  1  0.73933955  0.26169941  0.62475403  1
  O  O274  1  0.77194054  0.75867302  0.12468480  1
  O  O275  1  0.74361296  0.76480880  0.61208025  1
  O  O276  1  0.24296819  0.25404175  0.38983861  1
  O  O277  1  0.23901270  0.24047171  0.88675897  1
  O  O278  1  0.26293083  0.75414177  0.39561247  1
  O  O279  1  0.25007322  0.75022165  0.87163979  1
  O  O280  1  0.72397881  0.23703284  0.34315143  1
  O  O281  1  0.74181126  0.23625871  0.89368416  1
  O  O282  1  0.75158176  0.74643298  0.38350351  1
  O  O283  1  0.75112655  0.75015430  0.89473486  1
  O  O284  1  0.00420140  0.11015124  -0.00207963  1
  O  O285  1  -0.01179708  0.10943447  0.49280184  1
  O  O286  1  0.00639823  0.62759562  0.00228660  1
  O  O287  1  0.00666017  0.66489571  0.52816764  1
  O  O288  1  0.49746087  0.11267424  0.00934263  1
  O  O289  1  0.50206229  0.13094228  0.52435340  1
  O  O290  1  0.50064913  0.61210136  -0.00344933  1
  O  O291  1  0.50349185  0.59395870  0.43671313  1
  O  O292  1  0.48519834  0.37400839  0.50187154  1
  O  O293  1  0.48471874  0.36687335  1.00804009  1
  O  O294  1  0.52272505  0.87887245  0.48216356  1
  O  O295  1  0.49468699  0.88526191  0.99197575  1
  O  O296  1  1.02085813  0.40176187  0.48879552  1
  O  O297  1  1.01848319  0.39276895  1.00502256  1
  O  O298  1  0.99225925  0.87685150  0.49360350  1
  O  O299  1  0.99342534  0.88264687  0.99044120  1
  O  O300  1  0.51047417  0.53742897  0.39089700  1
  O  O301  1  0.55007531  0.47387727  0.89454182  1
  O  O302  1  0.48091204  1.00587100  0.37418843  1
  O  O303  1  0.49348741  0.99266084  0.88727698  1
  O  O304  1  0.97431057  0.47575160  0.33975673  1
  O  O305  1  0.98510856  0.50514235  0.88792819  1
  O  O306  1  1.01327896  0.98758564  0.39023925  1
  O  O307  1  1.00084008  1.00063123  0.88792844  1
  O  O308  1  0.01003638  -0.00871254  0.11842108  1
  O  O309  1  0.00021992  0.00577864  0.61562527  1
  O  O310  1  -0.00854181  0.51590247  0.10736613  1
  O  O311  1  0.00898928  0.50218764  0.63989715  1
  O  O312  1  0.49189878  0.00917187  0.11085591  1
  O  O313  1  0.51127963  -0.00970521  0.62751248  1
  O  O314  1  0.52076803  0.48526710  0.13212478  1
  O  O315  1  0.50829089  0.52326096  0.59664811  1
  O  O316  1  0.24003798  0.37214839  0.23403131  1
  O  O317  1  0.26346497  0.39047588  0.73463278  1
  O  O318  1  0.24200058  0.88260240  0.24174911  1
  O  O319  1  0.23340890  0.87350256  0.75136073  1
  O  O320  1  0.77016622  0.38651874  0.27257711  1
  O  O321  1  0.74779093  0.36772710  0.75971383  1
  O  O322  1  0.73321226  0.88409462  0.26146772  1
  O  O323  1  0.74401438  0.87213464  0.74154908  1
  O  O324  1  0.26254105  0.11375370  0.24146792  1
  O  O325  1  0.26610651  0.12917629  0.74130410  1
  O  O326  1  0.27070124  0.60092072  0.19629669  1
  O  O327  1  0.24714240  0.62024154  0.76596895  1
  O  O328  1  0.76339817  0.10939956  0.24525577  1
  O  O329  1  0.74343973  0.10516553  0.75652152  1
  O  O330  1  0.76979169  0.64650380  0.26128637  1
  O  O331  1  0.79794503  0.65613241  0.72070519  1
  O  O332  1  0.37854091  0.12563817  0.36177849  1
  O  O333  1  0.38155754  0.11321795  0.86779627  1
  O  O334  1  0.34547976  0.61025849  0.35593311  1
  O  O335  1  0.35693335  0.63248490  0.86683337  1
  O  O336  1  0.87026001  0.17457553  0.34331701  1
  O  O337  1  0.87377871  0.12489200  0.85688779  1
  O  O338  1  0.88976922  0.63045179  0.35967951  1
  O  O339  1  0.86232377  0.60670924  0.88491182  1
  O  O340  1  0.07505115  0.36237079  0.16722163  1
  O  O341  1  0.13322450  0.39724639  0.62021760  1
  O  O342  1  0.12943769  0.88189558  0.13423939  1
  O  O343  1  0.11517914  0.88834685  0.63661814  1
  O  O344  1  0.63183424  0.37305321  0.12156606  1
  O  O345  1  0.62280037  0.40982690  0.62371983  1
  O  O346  1  0.62227476  0.88645918  0.14167608  1
  O  O347  1  0.63157441  0.88262537  0.63747354  1
  O  O348  1  0.13419238  0.25084372  0.26292953  1
  O  O349  1  0.11453221  0.25040606  0.76747356  1
  O  O350  1  0.12504011  0.75490831  0.25118792  1
  O  O351  1  0.11912857  0.76214546  0.73671406  1
  O  O352  1  0.63512501  0.26369429  0.24729301  1
  O  O353  1  0.63235632  0.23989615  0.76303918  1
  O  O354  1  0.62598332  0.76318011  0.24397728  1
  O  O355  1  0.62505072  0.76176806  0.73983067  1
  O  O356  1  0.36576742  0.23624791  0.24188810  1
  O  O357  1  0.37585889  0.23464449  0.76549096  1
  O  O358  1  0.35866557  0.73085273  0.23520419  1
  O  O359  1  0.37756388  0.73548659  0.74238997  1
  O  O360  1  0.88949939  0.26972381  0.22264946  1
  O  O361  1  0.89362957  0.24203065  0.75868351  1
  O  O362  1  0.88716652  0.75210488  0.24185570  1
  O  O363  1  0.90842988  0.74422734  0.78579789  1
  O  O364  1  0.36344056  0.49802489  0.47724189  1
  O  O365  1  0.37722867  0.47996519  1.02665454  1
  O  O366  1  0.36337818  1.01224546  0.48222464  1
  O  O367  1  0.38226991  0.99256044  0.99110715  1
  O  O368  1  0.85058339  0.49123672  0.49314414  1
  O  O369  1  0.87795515  0.48841466  0.99752029  1
  O  O370  1  0.88301148  0.98802437  0.50847178  1
  O  O371  1  0.88760859  0.98806326  1.01175350  1
  O  O372  1  0.11488871  0.00234347  0.00480184  1
  O  O373  1  0.11002617  -0.00254658  0.51469107  1
  O  O374  1  0.10824177  0.52093469  -0.01472045  1
  O  O375  1  0.11974414  0.51843215  0.51497427  1
  O  O376  1  0.61132781  -0.00721754  -0.00060050  1
  O  O377  1  0.62883155  0.00955235  0.51783187  1
  O  O378  1  0.63948674  0.50421004  0.02707567  1
  O  O379  1  0.64147131  0.49334096  0.48824393  1
  O  O380  1  0.38217147  0.35129807  0.12971321  1
  O  O381  1  0.35909930  0.40058298  0.60142452  1
  O  O382  1  0.36721209  0.87338511  0.11894891  1
  O  O383  1  0.38233163  0.85099614  0.63973402  1
  O  O384  1  0.88789367  0.36467180  0.10373116  1
  O  O385  1  0.89824735  0.36538515  0.58357923  1
  O  O386  1  0.89719295  0.85976722  0.11413916  1
  O  O387  1  0.86078782  0.87734473  0.62150370  1
  O  O388  1  0.13571664  0.13451008  0.37275976  1
  O  O389  1  0.12208912  0.13064348  0.89056352  1
  O  O390  1  0.10480137  0.62849193  0.39929193  1
  O  O391  1  0.13031178  0.63325830  0.87901243  1
  O  O392  1  0.60553611  0.12037727  0.39694920  1
  O  O393  1  0.61556495  0.13089362  0.87993224  1
  O  O394  1  0.63690850  0.63327176  0.34709205  1
  O  O395  1  0.59575715  0.63942898  0.90792294  1
