# generated using pymatgen
data_V35Zn35O128
_symmetry_space_group_name_H-M   'P 1'
_cell_length_a   16.86282825
_cell_length_b   16.86796520
_cell_length_c   16.86616193
_cell_angle_alpha   90.06338355
_cell_angle_beta   90.10563964
_cell_angle_gamma   90.05246953
_symmetry_Int_Tables_number   1
_chemical_formula_structural   V35Zn35O128
_chemical_formula_sum   'V70 Zn70 O256'
_cell_volume   4797.42497531
_cell_formula_units_Z   2
loop_
 _symmetry_equiv_pos_site_id
 _symmetry_equiv_pos_as_xyz
  1  'x, y, z'
loop_
 _atom_site_type_symbol
 _atom_site_label
 _atom_site_symmetry_multiplicity
 _atom_site_fract_x
 _atom_site_fract_y
 _atom_site_fract_z
 _atom_site_occupancy
  V  V0  1  0.52534751  0.75309055  0.25081267  1
  V  V1  1  0.24846702  -0.00857105  0.74307347  1
  V  V2  1  0.24527224  0.12957105  0.88146112  1
  V  V3  1  0.86666566  0.23449872  0.13781579  1
  V  V4  1  -0.01938738  0.50211307  0.50077716  1
  V  V5  1  0.38316571  0.12869645  0.74758967  1
  V  V6  1  0.87051638  0.01392025  0.36696745  1
  V  V7  1  0.38182153  0.63528544  0.75675736  1
  V  V8  1  0.86675794  0.26615130  0.62068622  1
  V  V9  1  0.74493268  0.50570867  0.75118874  1
  V  V10  1  0.64072975  0.48381130  0.12362776  1
  V  V11  1  0.36634749  0.88525556  0.51529248  1
  V  V12  1  -0.00043175  0.62852995  0.13173730  1
  V  V13  1  0.36520002  0.74892278  0.14096413  1
  V  V14  1  0.00042619  0.38110377  0.87835337  1
  V  V15  1  0.61269967  0.12150849  -0.00759365  1
  V  V16  1  0.62557154  0.87771033  0.75488729  1
  V  V17  1  0.24469498  0.51975740  0.75606510  1
  V  V18  1  0.36692997  0.25215258  0.61899576  1
  V  V19  1  0.62688785  0.74191665  0.87754223  1
  V  V20  1  -0.00050552  0.12879706  0.63187475  1
  V  V21  1  0.13883101  0.63534496  0.00071469  1
  V  V22  1  0.62068518  0.38083074  0.73098170  1
  V  V23  1  0.86576117  0.60833851  0.25786924  1
  V  V24  1  0.13289929  0.50144834  0.13274437  1
  V  V25  1  0.48473567  0.23560543  0.25216881  1
  V  V26  1  0.11696521  0.00634999  0.09667853  1
  V  V27  1  0.88518746  0.00074885  0.87717485  1
  V  V28  1  0.87120577  0.13062049  0.75991771  1
  V  V29  1  0.88379632  0.87897192  -0.00023403  1
  V  V30  1  0.60448918  0.26023170  0.86334005  1
  V  V31  1  0.24099673  0.88179743  0.14385094  1
  V  V32  1  0.00416886  0.50276613  0.00004632  1
  V  V33  1  0.36212375  0.86465234  -0.00252303  1
  V  V34  1  0.86939665  0.38289376  0.00855212  1
  V  V35  1  -0.00100967  0.25601803  0.75808930  1
  V  V36  1  0.00352666  0.86403370  0.85867648  1
  V  V37  1  0.49923149  0.61649612  0.12324684  1
  V  V38  1  0.75703153  0.24490257  -0.02626217  1
  V  V39  1  0.13360532  0.37447702  0.74710176  1
  V  V40  1  0.13336103  0.15383464  0.50654553  1
  V  V41  1  0.00544530  0.23466079  0.25176530  1
  V  V42  1  -0.02142159  0.37616199  0.37499576  1
  V  V43  1  0.75182064  0.74342378  -0.00137816  1
  V  V44  1  0.75696965  0.87330988  0.62363998  1
  V  V45  1  0.12699222  -0.00700827  0.62880765  1
  V  V46  1  0.13202340  0.74657156  0.86337615  1
  V  V47  1  0.37506423  0.23686948  0.11248390  1
  V  V48  1  0.73166435  0.24660369  0.50187702  1
  V  V49  1  0.62015055  0.23893685  0.36803624  1
  V  V50  1  0.25976714  0.37143558  0.11860694  1
  V  V51  1  0.75296119  0.00428704  0.75744530  1
  V  V52  1  0.88850234  0.73807489  0.63023458  1
  V  V53  1  0.50086592  0.38340389  0.37042452  1
  V  V54  1  -0.00402879  -0.00342873  0.50006725  1
  V  V55  1  0.50478224  0.12706218  0.61370655  1
  V  V56  1  0.88123691  0.75697324  0.13754666  1
  V  V57  1  0.36688520  0.37294688  0.49426409  1
  V  V58  1  0.75016960  0.74412014  0.48696523  1
  V  V59  1  0.12331166  0.74996514  0.37967685  1
  V  V60  1  0.62570683  0.62182610  0.47229359  1
  V  V61  1  0.13199212  0.37535976  0.26031594  1
  V  V62  1  0.26657490  0.12123785  0.34624999  1
  V  V63  1  0.53149845  0.88614613  0.37027737  1
  V  V64  1  0.13259033  0.50257656  0.61014150  1
  V  V65  1  0.73684342  0.88274199  0.12909741  1
  V  V66  1  0.88021418  0.62159768  0.77097345  1
  V  V67  1  0.37840414  -0.00201782  0.87959698  1
  V  V68  1  0.62341966  0.00461223  0.61530054  1
  V  V69  1  0.50338803  0.87778147  0.88550880  1
  Zn  Zn70  1  0.49932287  0.50298262  0.50882740  1
  Zn  Zn71  1  0.61236917  0.60831197  -0.01111406  1
  Zn  Zn72  1  0.49787573  0.75009012  0.73408881  1
  Zn  Zn73  1  0.75289026  0.00314744  0.24796301  1
  Zn  Zn74  1  0.13489743  0.25446965  0.89306716  1
  Zn  Zn75  1  0.88420292  0.86869607  0.49115134  1
  Zn  Zn76  1  0.19154519  0.18467683  0.18590997  1
  Zn  Zn77  1  0.18964698  0.18538140  0.69516035  1
  Zn  Zn78  1  0.18162349  0.69700356  0.19540684  1
  Zn  Zn79  1  0.23748593  0.66935116  0.63853637  1
  Zn  Zn80  1  0.68280142  0.17536858  0.18773608  1
  Zn  Zn81  1  0.68848974  0.19041044  0.68970487  1
  Zn  Zn82  1  0.69031025  0.67673174  0.17978565  1
  Zn  Zn83  1  0.70037744  0.68840306  0.69051846  1
  Zn  Zn84  1  0.30726995  0.30443585  0.31617078  1
  Zn  Zn85  1  0.31642856  0.30741672  0.81285229  1
  Zn  Zn86  1  0.33199174  0.79632648  0.34514858  1
  Zn  Zn87  1  0.31079076  0.80858818  0.80748107  1
  Zn  Zn88  1  0.81483090  0.29051160  0.32357898  1
  Zn  Zn89  1  0.81420419  0.33354440  0.80855477  1
  Zn  Zn90  1  0.81711301  0.82973662  0.31339801  1
  Zn  Zn91  1  0.81472021  0.80932691  0.81131810  1
  Zn  Zn92  1  0.15812829  0.36324031  0.47250104  1
  Zn  Zn93  1  0.24238286  0.45948324  0.95443092  1
  Zn  Zn94  1  0.18766499  0.95200332  0.43990583  1
  Zn  Zn95  1  0.18590395  0.93661877  0.92926809  1
  Zn  Zn96  1  0.67290695  0.41919499  0.47292782  1
  Zn  Zn97  1  0.68234494  0.44056666  0.93084123  1
  Zn  Zn98  1  0.69932700  0.94177160  0.43663169  1
  Zn  Zn99  1  0.69439388  0.93748916  0.94367393  1
  Zn  Zn100  1  0.31023765  0.05732124  0.06463576  1
  Zn  Zn101  1  0.31560791  0.05976583  0.54970496  1
  Zn  Zn102  1  0.32169158  0.56357744  0.06883846  1
  Zn  Zn103  1  0.35214234  0.53384132  0.60191178  1
  Zn  Zn104  1  0.80774956  0.06485655  0.05524623  1
  Zn  Zn105  1  0.81265651  0.07058711  0.56515658  1
  Zn  Zn106  1  0.81063919  0.56041833  0.07372296  1
  Zn  Zn107  1  0.80411501  0.56050505  0.56757376  1
  Zn  Zn108  1  0.47769599  0.40065894  0.15465468  1
  Zn  Zn109  1  0.43091259  0.43211169  0.70542222  1
  Zn  Zn110  1  0.42697500  0.92030472  0.20170894  1
  Zn  Zn111  1  0.43815236  0.93584165  0.68425261  1
  Zn  Zn112  1  0.94026913  0.43218790  0.18758314  1
  Zn  Zn113  1  0.93923083  0.45216816  0.68797321  1
  Zn  Zn114  1  0.93474447  0.96051876  0.17809802  1
  Zn  Zn115  1  0.93912524  0.93765097  0.68679090  1
  Zn  Zn116  1  0.08571725  0.06397196  0.33206176  1
  Zn  Zn117  1  0.06323155  0.06191667  0.81790018  1
  Zn  Zn118  1  0.05619600  0.55625759  0.31662001  1
  Zn  Zn119  1  0.06805471  0.56558419  0.81115396  1
  Zn  Zn120  1  0.57753655  0.06616954  0.30109232  1
  Zn  Zn121  1  0.56601084  0.06660387  0.81701229  1
  Zn  Zn122  1  0.55894371  0.56029577  0.30080833  1
  Zn  Zn123  1  0.55618803  0.56097255  0.68221710  1
  Zn  Zn124  1  0.43402892  0.17840917  0.43375362  1
  Zn  Zn125  1  0.43548464  0.18851054  0.93665438  1
  Zn  Zn126  1  0.46086826  0.72288055  0.45806811  1
  Zn  Zn127  1  0.43133063  0.68351889  0.93581031  1
  Zn  Zn128  1  0.94634966  0.18980211  0.43991017  1
  Zn  Zn129  1  0.94180742  0.19083510  0.94588280  1
  Zn  Zn130  1  0.93541008  0.68286163  0.44285877  1
  Zn  Zn131  1  0.94115438  0.68939753  0.94374674  1
  Zn  Zn132  1  0.05597429  0.31526471  0.07691271  1
  Zn  Zn133  1  0.04044748  0.32297366  0.57408324  1
  Zn  Zn134  1  0.06384926  0.81725630  0.05952190  1
  Zn  Zn135  1  0.09474278  0.77976650  0.65682384  1
  Zn  Zn136  1  0.58928624  0.27884227  0.08153751  1
  Zn  Zn137  1  0.54867823  0.31085581  0.56332636  1
  Zn  Zn138  1  0.55756449  0.80945493  0.06323547  1
  Zn  Zn139  1  0.57483800  0.81551085  0.55288853  1
  O  O140  1  0.13685633  0.09928948  0.13374830  1
  O  O141  1  0.11527244  0.12673433  0.62579895  1
  O  O142  1  0.11878432  0.62677027  0.12108782  1
  O  O143  1  0.13157551  0.60172126  0.61196421  1
  O  O144  1  0.61897827  0.16521683  0.09101291  1
  O  O145  1  0.61678709  0.11471302  0.63490561  1
  O  O146  1  0.61224839  0.61301275  0.11640799  1
  O  O147  1  0.60365952  0.65910416  0.62869960  1
  O  O148  1  0.38409517  0.36166080  0.38653165  1
  O  O149  1  0.38077669  0.39768533  0.84442898  1
  O  O150  1  0.38727679  0.90481611  0.35406783  1
  O  O151  1  0.38164993  0.87563018  0.88231728  1
  O  O152  1  0.87942300  0.37542970  0.36959745  1
  O  O153  1  0.89020089  0.37232075  0.89177947  1
  O  O154  1  0.87903139  0.89961083  0.38008428  1
  O  O155  1  0.88511156  0.87857748  0.87781633  1
  O  O156  1  0.19773290  0.03537086  0.36304292  1
  O  O157  1  0.25758419  0.00672157  0.86155070  1
  O  O158  1  0.32121453  0.49407819  0.31414249  1
  O  O159  1  0.22618012  0.49925772  0.85342301  1
  O  O160  1  0.76503980  0.00892402  0.37451298  1
  O  O161  1  0.76595427  -0.00971680  0.86293680  1
  O  O162  1  0.73394280  0.45264385  0.32731145  1
  O  O163  1  0.74039241  0.50319917  0.85611835  1
  O  O164  1  0.24006515  0.49088785  0.12835212  1
  O  O165  1  0.23862008  0.49176816  0.64300898  1
  O  O166  1  0.24273713  0.98516541  0.11868038  1
  O  O167  1  0.23933015  1.00827875  0.63429746  1
  O  O168  1  0.74203865  0.48344944  0.12435501  1
  O  O169  1  0.73685452  0.51629736  0.64365777  1
  O  O170  1  0.76078689  0.98522855  0.12159381  1
  O  O171  1  0.74433696  0.99590223  0.63590326  1
  O  O172  1  0.00830290  0.37317190  0.26305399  1
  O  O173  1  0.00031820  0.37338095  0.75972447  1
  O  O174  1  0.02750509  0.91899322  0.25789185  1
  O  O175  1  -0.00140466  0.86938585  0.75819129  1
  O  O176  1  0.49206524  0.36686901  0.26745744  1
  O  O177  1  0.52027840  0.37745716  0.74751587  1
  O  O178  1  0.51140606  0.86468580  0.25571384  1
  O  O179  1  0.51323343  0.86987606  0.75568051  1
  O  O180  1  0.49415834  0.13662377  0.25067550  1
  O  O181  1  0.48628360  0.11378601  0.74448397  1
  O  O182  1  0.50308787  0.64135198  0.23417353  1
  O  O183  1  0.48458529  0.62657546  0.75155106  1
  O  O184  1  1.02023676  0.13713363  0.26217135  1
  O  O185  1  0.99426538  0.13558465  0.75028433  1
  O  O186  1  0.99280414  0.61774152  0.23538867  1
  O  O187  1  0.98082339  0.61289323  0.75355653  1
  O  O188  1  0.38496002  0.25623357  0.01359441  1
  O  O189  1  0.38385938  0.25126671  0.51392544  1
  O  O190  1  0.37750232  0.76254642  0.00984551  1
  O  O191  1  0.36929380  0.78776691  0.45468949  1
  O  O192  1  0.86654611  0.25471146  0.01053886  1
  O  O193  1  0.88335129  0.24913367  0.52126429  1
  O  O194  1  0.86547399  0.75823111  0.00589687  1
  O  O195  1  0.86951401  0.75064844  0.51241159  1
  O  O196  1  0.12631880  0.25773597  0.52190956  1
  O  O197  1  0.09355520  0.22954592  1.00360368  1
  O  O198  1  0.13821539  0.72553331  0.47980173  1
  O  O199  1  0.11845774  0.73863454  0.99564124  1
  O  O200  1  0.62802946  0.24865815  0.49989372  1
  O  O201  1  0.64380030  0.25734611  0.97499674  1
  O  O202  1  0.64214842  0.74021339  0.49060217  1
  O  O203  1  0.63754652  0.75484633  0.99273177  1
  O  O204  1  0.48449022  0.26540076  0.14046025  1
  O  O205  1  0.49456683  0.23064124  0.62968587  1
  O  O206  1  0.48752305  0.75382698  0.13695681  1
  O  O207  1  0.54578669  0.72609702  0.62803307  1
  O  O208  1  0.98531502  0.25294292  0.14476556  1
  O  O209  1  0.98719874  0.24636968  0.64176395  1
  O  O210  1  0.98759120  0.74555139  0.11900845  1
  O  O211  1  0.98645657  0.75661329  0.62729273  1
  O  O212  1  -0.00724411  0.26365397  0.36193130  1
  O  O213  1  -0.00147635  0.25820862  0.86650143  1
  O  O214  1  0.01965060  0.75535352  0.39252094  1
  O  O215  1  0.00265007  0.76067014  0.87698319  1
  O  O216  1  0.49879108  0.25146050  0.36592719  1
  O  O217  1  0.50484968  0.25657635  0.87154135  1
  O  O218  1  0.50680631  0.75437244  0.35309402  1
  O  O219  1  0.51643596  0.76034917  0.87692102  1
  O  O220  1  0.23183616  0.12616787  0.50666621  1
  O  O221  1  0.25977653  0.11725527  0.97921352  1
  O  O222  1  0.28520377  0.60981450  0.46930974  1
  O  O223  1  0.23647693  0.63024361  1.01038681  1
  O  O224  1  0.75704421  0.14631363  0.50422009  1
  O  O225  1  0.74864023  0.14410104  0.99563537  1
  O  O226  1  0.74197386  0.63590974  0.50049281  1
  O  O227  1  0.75141020  0.64256973  1.01137748  1
  O  O228  1  0.23401201  0.36656017  0.02016022  1
  O  O229  1  0.26854667  0.35981409  0.49346844  1
  O  O230  1  0.26178209  0.87163714  -0.00786409  1
  O  O231  1  0.26510111  0.89831864  0.50216969  1
  O  O232  1  0.76635241  0.36515906  -0.00836328  1
  O  O233  1  0.75642596  0.34940013  0.49529650  1
  O  O234  1  0.76297433  0.86869169  0.01007479  1
  O  O235  1  0.75178658  0.86488172  0.51074285  1
  O  O236  1  0.11861837  0.48792868  0.24453643  1
  O  O237  1  0.12381808  0.48923873  0.74008519  1
  O  O238  1  0.08744224  0.96526608  0.25417345  1
  O  O239  1  0.13819207  1.01088677  0.74209165  1
  O  O240  1  0.61667782  0.50281227  0.22159504  1
  O  O241  1  0.62774379  0.49149419  0.74341007  1
  O  O242  1  0.55026567  1.02002967  0.14919307  1
  O  O243  1  0.63554754  0.99361928  0.75103686  1
  O  O244  1  0.37252283  -0.03983536  0.29791452  1
  O  O245  1  0.36630696  0.00445430  0.75246943  1
  O  O246  1  0.36173918  0.53618187  0.27094520  1
  O  O247  1  0.35387863  0.51577562  0.74557187  1
  O  O248  1  0.87408288  0.00751175  0.26004216  1
  O  O249  1  0.87192111  0.00983461  0.75611710  1
  O  O250  1  0.87683762  0.50835814  0.24311706  1
  O  O251  1  0.86243363  0.51148444  0.74855447  1
  O  O252  1  0.12938838  0.37236773  0.36102271  1
  O  O253  1  0.11101249  0.36782958  0.86503158  1
  O  O254  1  0.13038103  0.85247800  0.39570984  1
  O  O255  1  0.11060745  0.86337820  0.87898789  1
  O  O256  1  0.60478676  0.35942559  0.38859757  1
  O  O257  1  0.62771516  0.36290744  0.86542835  1
  O  O258  1  0.63113344  0.87296595  0.37486404  1
  O  O259  1  0.62051248  0.87769978  0.87196293  1
  O  O260  1  0.37469489  0.13697709  0.11518590  1
  O  O261  1  0.38516535  0.12461237  0.63162402  1
  O  O262  1  0.37846830  0.64424460  0.12612283  1
  O  O263  1  0.34635180  0.63793697  0.64511379  1
  O  O264  1  0.87541274  0.13572489  0.11873260  1
  O  O265  1  0.88297559  0.13195429  0.64301133  1
  O  O266  1  0.87973679  0.63924466  0.13223001  1
  O  O267  1  0.87649626  0.63734936  0.62489799  1
  O  O268  1  0.26538311  0.25947182  0.13057277  1
  O  O269  1  0.26814304  0.24065151  0.62982283  1
  O  O270  1  0.25746992  0.76250357  0.13195998  1
  O  O271  1  0.18791028  0.75728400  0.59687500  1
  O  O272  1  0.76330972  0.24775947  0.14091250  1
  O  O273  1  0.75993016  0.24942357  0.61972719  1
  O  O274  1  0.76073422  0.76205843  0.11676817  1
  O  O275  1  0.75833120  0.75953488  0.61786098  1
  O  O276  1  0.24449016  0.22101693  0.36410266  1
  O  O277  1  0.25302678  0.23638606  0.87434532  1
  O  O278  1  0.22790313  0.75022084  0.36524156  1
  O  O279  1  0.23118488  0.75905127  0.87232584  1
  O  O280  1  0.72927567  0.24669218  0.38191377  1
  O  O281  1  0.76664328  0.24709507  0.87500183  1
  O  O282  1  0.76847031  0.75757828  0.39035090  1
  O  O283  1  0.74260646  0.75992490  0.89057070  1
  O  O284  1  0.03997472  0.16609155  0.00510668  1
  O  O285  1  0.00423747  0.12625334  0.52265567  1
  O  O286  1  0.00024518  0.61755237  0.01322024  1
  O  O287  1  -0.00211051  0.60119812  0.49380222  1
  O  O288  1  0.51157757  0.11920141  -0.01290401  1
  O  O289  1  0.49807534  0.12142416  0.51546123  1
  O  O290  1  0.49799188  0.63767027  0.01691485  1
  O  O291  1  0.51979390  0.63108094  0.48712038  1
  O  O292  1  0.48955697  0.37636814  0.49025443  1
  O  O293  1  0.43117506  0.38336616  0.91233172  1
  O  O294  1  0.50311284  0.86240999  0.47502383  1
  O  O295  1  0.49089933  0.87371068  0.99060892  1
  O  O296  1  1.00222322  0.37625382  0.48105614  1
  O  O297  1  0.99580884  0.38355614  0.99870978  1
  O  O298  1  0.99815361  0.89768642  0.51568862  1
  O  O299  1  0.98668836  0.87152096  0.99061225  1
  O  O300  1  0.50346192  0.48681159  0.37450428  1
  O  O301  1  0.48089999  0.43659222  0.92578297  1
  O  O302  1  0.52432642  0.98622747  0.35996159  1
  O  O303  1  0.48942921  0.98832836  0.86405369  1
  O  O304  1  1.00062091  0.48524141  0.38652792  1
  O  O305  1  1.01044727  0.49487006  0.89156918  1
  O  O306  1  0.99993462  1.00878472  0.39680996  1
  O  O307  1  0.99266326  0.98503837  0.86725893  1
  O  O308  1  0.01615994  -0.00546373  0.11113286  1
  O  O309  1  0.00876018  0.01295652  0.63057677  1
  O  O310  1  0.01095951  0.50584842  0.11812612  1
  O  O311  1  0.01414386  0.48492249  0.60608953  1
  O  O312  1  0.48400307  -0.00308384  0.12329772  1
  O  O313  1  0.51779820  0.00514673  0.63103005  1
  O  O314  1  0.47932682  0.51849068  0.12967288  1
  O  O315  1  0.47424248  0.50679166  0.62382344  1
  O  O316  1  0.23648857  0.36788048  0.24225893  1
  O  O317  1  0.23426079  0.37089624  0.75599803  1
  O  O318  1  0.24682949  0.88115616  0.24067215  1
  O  O319  1  0.25342680  0.89213548  0.75042894  1
  O  O320  1  0.73997782  0.39705297  0.27961707  1
  O  O321  1  0.74048883  0.39132399  0.74686095  1
  O  O322  1  0.74990652  0.87983249  0.23377153  1
  O  O323  1  0.74539548  0.88266550  0.74371426  1
  O  O324  1  0.26818749  0.11960919  0.24489936  1
  O  O325  1  0.26479957  0.11634155  0.75691075  1
  O  O326  1  0.23691654  0.63537827  0.26781447  1
  O  O327  1  0.23453095  0.62020428  0.75180953  1
  O  O328  1  0.67227323  0.07856132  0.24135169  1
  O  O329  1  0.76081516  0.11675116  0.74803569  1
  O  O330  1  0.76649024  0.62522719  0.24291959  1
  O  O331  1  0.76139659  0.62003361  0.75526254  1
  O  O332  1  0.36079821  0.10718757  0.38547635  1
  O  O333  1  0.37264761  0.11747539  0.86354044  1
  O  O334  1  0.34198064  0.62310030  0.42488502  1
  O  O335  1  0.36506132  0.63414665  0.85896952  1
  O  O336  1  0.88529580  0.11405656  0.38107809  1
  O  O337  1  0.88930905  0.11652671  0.86941170  1
  O  O338  1  0.88571293  0.63136469  0.35435538  1
  O  O339  1  0.87517964  0.63034034  0.87096118  1
  O  O340  1  0.12915744  0.38452198  0.13526829  1
  O  O341  1  0.11870152  0.37468185  0.64397023  1
  O  O342  1  0.13552851  0.88436608  0.11691295  1
  O  O343  1  0.11548639  0.89646134  0.63425770  1
  O  O344  1  0.59326274  0.38713268  0.11527377  1
  O  O345  1  0.62468075  0.36771399  0.63017703  1
  O  O346  1  0.63825566  0.87615920  0.11374827  1
  O  O347  1  0.63326845  0.88593406  0.63382002  1
  O  O348  1  0.11250348  0.26361178  0.23720983  1
  O  O349  1  0.11372158  0.25943689  0.75100727  1
  O  O350  1  0.11316870  0.75694678  0.27188878  1
  O  O351  1  0.11601102  0.74161786  0.76493877  1
  O  O352  1  0.61123468  0.24644861  0.26192024  1
  O  O353  1  0.63226047  0.26114812  0.75854032  1
  O  O354  1  0.62401953  0.74977256  0.23878719  1
  O  O355  1  0.63814092  0.76365929  0.76784970  1
  O  O356  1  0.38179983  0.24922205  0.24392959  1
  O  O357  1  0.37721314  0.23397842  0.74184972  1
  O  O358  1  0.37479994  0.76002424  0.24239226  1
  O  O359  1  0.38115464  0.74455971  0.74942276  1
  O  O360  1  0.88374497  0.24319763  0.24613414  1
  O  O361  1  0.87852776  0.24718787  0.74747813  1
  O  O362  1  0.87503140  0.75550685  0.23783135  1
  O  O363  1  0.86787750  0.73584359  0.74072192  1
  O  O364  1  0.37325927  0.47718297  0.50465804  1
  O  O365  1  0.34383293  0.49268108  0.98927131  1
  O  O366  1  0.39205658  0.98586300  0.51073937  1
  O  O367  1  0.37096352  0.98705563  0.98558907  1
  O  O368  1  0.88114092  0.49665285  0.51058285  1
  O  O369  1  0.88424842  0.48912278  1.01253914  1
  O  O370  1  0.88622254  1.00600543  0.50287722  1
  O  O371  1  0.86977280  0.99293262  0.98623835  1
  O  O372  1  0.12686709  0.00624872  -0.00411868  1
  O  O373  1  0.11404981  0.01245940  0.51829044  1
  O  O374  1  0.12082401  0.51676133  0.01264903  1
  O  O375  1  0.13655537  0.47390781  0.51142490  1
  O  O376  1  0.63955367  0.02393571  -0.00684732  1
  O  O377  1  0.63601592  -0.00055942  0.51772325  1
  O  O378  1  0.62986108  0.49966286  0.01175511  1
  O  O379  1  0.62563710  0.51769815  0.50101538  1
  O  O380  1  0.36190008  0.37812889  0.12860574  1
  O  O381  1  0.38193571  0.35636555  0.62230331  1
  O  O382  1  0.36185042  0.87080120  0.11604907  1
  O  O383  1  0.39019191  0.86093895  0.61299287  1
  O  O384  1  0.88074173  0.36314337  0.11189832  1
  O  O385  1  0.88013053  0.36379783  0.63476486  1
  O  O386  1  0.87912920  0.86767678  0.12004928  1
  O  O387  1  0.86613662  0.86899240  0.62816586  1
  O  O388  1  0.10193422  0.14890235  0.41177198  1
  O  O389  1  0.14131161  0.12976413  0.86708961  1
  O  O390  1  0.11668658  0.64406760  0.36385271  1
  O  O391  1  0.11851019  0.63586452  0.89037762  1
  O  O392  1  0.60672696  0.14260523  0.38762036  1
  O  O393  1  0.62362214  0.14574192  0.87894471  1
  O  O394  1  0.63251945  0.61701801  0.37351500  1
  O  O395  1  0.62326362  0.64329033  0.87686278  1
