# generated using pymatgen
data_V35Zn35O128
_symmetry_space_group_name_H-M   'P 1'
_cell_length_a   16.87827795
_cell_length_b   16.85597438
_cell_length_c   16.88995068
_cell_angle_alpha   89.92864082
_cell_angle_beta   90.02720971
_cell_angle_gamma   90.07457467
_symmetry_Int_Tables_number   1
_chemical_formula_structural   V35Zn35O128
_chemical_formula_sum   'V70 Zn70 O256'
_cell_volume   4805.17960429
_cell_formula_units_Z   2
loop_
 _symmetry_equiv_pos_site_id
 _symmetry_equiv_pos_as_xyz
  1  'x, y, z'
loop_
 _atom_site_type_symbol
 _atom_site_label
 _atom_site_symmetry_multiplicity
 _atom_site_fract_x
 _atom_site_fract_y
 _atom_site_fract_z
 _atom_site_occupancy
  V  V0  1  0.37225581  0.85785265  0.50074774  1
  V  V1  1  0.24166854  0.39113018  0.63091022  1
  V  V2  1  0.62341471  0.37733860  0.24479233  1
  V  V3  1  0.00915552  0.37526541  0.86324927  1
  V  V4  1  0.62077848  0.26670440  0.87073721  1
  V  V5  1  0.38013808  0.12531145  0.23773244  1
  V  V6  1  0.51014629  0.74955583  0.24674460  1
  V  V7  1  0.88142643  0.24259857  0.12475997  1
  V  V8  1  0.00153912  0.39204103  0.38873226  1
  V  V9  1  0.00133988  0.24027993  0.74103633  1
  V  V10  1  0.15408849  0.63853605  0.47723226  1
  V  V11  1  0.49586125  -0.00517711  -0.00828492  1
  V  V12  1  0.11712196  -0.00723052  0.11324946  1
  V  V13  1  0.88427763  -0.00496008  0.87312420  1
  V  V14  1  0.13858443  0.76060345  0.88159229  1
  V  V15  1  0.01284643  0.25809939  0.25931372  1
  V  V16  1  0.25741523  0.34993477  0.12556207  1
  V  V17  1  0.62190958  0.12924714  0.00577194  1
  V  V18  1  0.74032633  0.74057368  0.49360086  1
  V  V19  1  0.87690383  0.37813792  -0.00119937  1
  V  V20  1  0.38099831  0.37596794  0.50167764  1
  V  V21  1  0.50454053  0.25974350  0.74453307  1
  V  V22  1  0.50546868  0.62517336  0.61950004  1
  V  V23  1  0.35822589  0.76329094  0.12384727  1
  V  V24  1  0.63817141  0.24066417  0.38296805  1
  V  V25  1  0.36904520  0.50395292  0.37991455  1
  V  V26  1  0.62646105  -0.01559980  0.12941367  1
  V  V27  1  0.88407818  -0.00037719  0.37981706  1
  V  V28  1  0.75288746  0.13022064  0.86768285  1
  V  V29  1  0.36218746  0.61743352  0.24813892  1
  V  V30  1  0.14063353  0.63188697  -0.00040748  1
  V  V31  1  0.49824111  0.37353961  0.37463888  1
  V  V32  1  0.72719803  0.49744809  0.75498645  1
  V  V33  1  0.75900276  0.51130351  0.25591866  1
  V  V34  1  0.51393079  0.86858412  0.37409794  1
  V  V35  1  0.73410111  0.62979372  0.88076960  1
  V  V36  1  0.87587473  0.50927748  0.86207030  1
  V  V37  1  0.49760304  0.24318115  0.23819782  1
  V  V38  1  0.24583889  0.25067931  0.49814889  1
  V  V39  1  0.86779587  0.72819739  0.12832723  1
  V  V40  1  0.38577290  0.00314351  0.38480249  1
  V  V41  1  0.00023463  0.75908505  0.76327517  1
  V  V42  1  0.36085163  0.47796601  0.88089778  1
  V  V43  1  0.37851771  0.23913759  0.63103732  1
  V  V44  1  0.74318592  0.00221089  0.74918948  1
  V  V45  1  0.75197965  -0.01053025  0.24675530  1
  V  V46  1  0.50540608  0.74725680  0.76481816  1
  V  V47  1  0.12665828  0.49670742  0.12983249  1
  V  V48  1  0.49902109  0.48118816  -0.00467553  1
  V  V49  1  0.24487265  0.13168783  0.85433839  1
  V  V50  1  -0.00038742  0.76149112  0.24429165  1
  V  V51  1  0.36598109  0.62166438  0.76319158  1
  V  V52  1  0.49946597  0.61334413  0.11585724  1
  V  V53  1  0.86748347  0.13296496  0.26772689  1
  V  V54  1  0.61177380  0.49286290  0.61024159  1
  V  V55  1  0.87845075  0.88302888  0.01223463  1
  V  V56  1  0.11213492  0.11039851  0.50633685  1
  V  V57  1  0.74756658  0.38176822  0.12548012  1
  V  V58  1  0.36919449  0.75364035  0.63022510  1
  V  V59  1  0.24788897  0.12425529  0.37787878  1
  V  V60  1  0.73468615  0.87522236  0.62049834  1
  V  V61  1  0.62163033  0.87117274  0.77264145  1
  V  V62  1  0.09041233  0.13418988  -0.00731824  1
  V  V63  1  0.87219493  0.23273740  0.61718775  1
  V  V64  1  0.87615375  0.74199067  0.63473272  1
  V  V65  1  0.57903682  0.07622717  0.56316598  1
  V  V66  1  0.88953217  0.87983014  0.50413772  1
  V  V67  1  0.75959125  0.38287799  0.61235472  1
  V  V68  1  -0.00257108  0.51263762  0.00714577  1
  V  V69  1  0.02904367  0.60948436  0.63475335  1
  Zn  Zn70  1  0.75120932  0.25028576  0.00023366  1
  Zn  Zn71  1  0.73367846  0.76520383  0.00598779  1
  Zn  Zn72  1  0.25393276  -0.01054852  0.23004232  1
  Zn  Zn73  1  0.22664186  0.48628065  0.26352406  1
  Zn  Zn74  1  0.37237066  0.00777256  0.85229753  1
  Zn  Zn75  1  0.68529966  0.67212379  0.33914982  1
  Zn  Zn76  1  0.18097361  0.15987152  0.18664345  1
  Zn  Zn77  1  0.18095707  0.19162370  0.67932735  1
  Zn  Zn78  1  0.17979735  0.68414447  0.18737530  1
  Zn  Zn79  1  0.18769527  0.69642746  0.69932285  1
  Zn  Zn80  1  0.69210064  0.19354046  0.19097262  1
  Zn  Zn81  1  0.69226100  0.20062482  0.68668081  1
  Zn  Zn82  1  0.67989915  0.68351377  0.16210135  1
  Zn  Zn83  1  0.68732163  0.68406070  0.69131314  1
  Zn  Zn84  1  0.30539001  0.31155950  0.30631791  1
  Zn  Zn85  1  0.29928781  0.30793583  0.80955775  1
  Zn  Zn86  1  0.32604627  0.80812568  0.31211250  1
  Zn  Zn87  1  0.31976041  0.69879069  0.94021605  1
  Zn  Zn88  1  0.81657148  0.32440505  0.31915046  1
  Zn  Zn89  1  0.81765085  0.31817832  0.80150608  1
  Zn  Zn90  1  0.82417513  0.81126778  0.31576897  1
  Zn  Zn91  1  0.80589662  0.81312887  0.81854476  1
  Zn  Zn92  1  0.17311506  0.44394515  0.44735544  1
  Zn  Zn93  1  0.18970507  0.42988394  0.94473310  1
  Zn  Zn94  1  0.20523743  0.94869756  0.45661770  1
  Zn  Zn95  1  0.15668033  0.96389726  0.91564693  1
  Zn  Zn96  1  0.68000557  0.44121943  0.43168302  1
  Zn  Zn97  1  0.68626877  0.44847625  0.94693536  1
  Zn  Zn98  1  0.70218305  0.93024862  0.42627385  1
  Zn  Zn99  1  0.69313963  0.94317000  0.94348524  1
  Zn  Zn100  1  0.28733003  0.01091848  0.02107043  1
  Zn  Zn101  1  0.32731283  0.06133247  0.56136736  1
  Zn  Zn102  1  0.31413056  0.55189383  0.06416889  1
  Zn  Zn103  1  0.31309807  0.57394086  0.55988400  1
  Zn  Zn104  1  0.81024589  0.06080061  0.05801356  1
  Zn  Zn105  1  0.79602029  0.05758581  0.55712983  1
  Zn  Zn106  1  0.80610348  0.56064941  0.06029941  1
  Zn  Zn107  1  0.80341251  0.56626020  0.57319999  1
  Zn  Zn108  1  0.42757938  0.42940352  0.18470440  1
  Zn  Zn109  1  0.42858455  0.43671127  0.69402596  1
  Zn  Zn110  1  0.44275451  0.94240784  0.18652795  1
  Zn  Zn111  1  0.46107826  0.93729647  0.67407842  1
  Zn  Zn112  1  0.93822721  0.43777854  0.19539925  1
  Zn  Zn113  1  0.94337055  0.44415332  0.68107431  1
  Zn  Zn114  1  0.94271683  0.93874378  0.19282449  1
  Zn  Zn115  1  0.91514672  0.91594374  0.70861254  1
  Zn  Zn116  1  0.04974313  0.05611513  0.27572231  1
  Zn  Zn117  1  0.06580922  0.06432680  0.79983609  1
  Zn  Zn118  1  0.06400805  0.57594277  0.32423836  1
  Zn  Zn119  1  0.06409981  0.57335891  0.81351897  1
  Zn  Zn120  1  0.56725462  0.06081870  0.31349611  1
  Zn  Zn121  1  0.56573449  0.06977091  0.80618808  1
  Zn  Zn122  1  0.55532658  0.55290156  0.29524265  1
  Zn  Zn123  1  0.54849026  0.55459498  0.81593951  1
  Zn  Zn124  1  0.44715815  0.19230578  0.44089895  1
  Zn  Zn125  1  0.45428433  0.16466321  0.89460658  1
  Zn  Zn126  1  0.50116528  0.65678865  0.41517631  1
  Zn  Zn127  1  0.56382154  0.68325458  0.94771058  1
  Zn  Zn128  1  0.93822294  0.20078889  0.43842618  1
  Zn  Zn129  1  0.93217535  0.19421036  0.92617134  1
  Zn  Zn130  1  0.97651350  0.70170273  0.46901951  1
  Zn  Zn131  1  0.92415865  0.69270808  0.94297379  1
  Zn  Zn132  1  0.06561518  0.31389869  0.05920644  1
  Zn  Zn133  1  0.05863761  0.31416983  0.56189787  1
  Zn  Zn134  1  0.05282458  0.81247697  0.06070566  1
  Zn  Zn135  1  0.07105217  0.81023184  0.57125608  1
  Zn  Zn136  1  0.56136180  0.30779213  0.05872165  1
  Zn  Zn137  1  0.56756271  0.30952684  0.56147232  1
  Zn  Zn138  1  0.55089261  0.81434694  0.06490443  1
  Zn  Zn139  1  0.55772898  0.80676394  0.55855128  1
  O  O140  1  0.12668150  0.12340596  0.08960797  1
  O  O141  1  0.13004822  0.11982695  0.60556336  1
  O  O142  1  0.12444488  0.61571296  0.10580941  1
  O  O143  1  0.12551516  0.64347619  0.61871766  1
  O  O144  1  0.63344934  0.13385402  0.10714941  1
  O  O145  1  0.61325208  0.13850953  0.63641085  1
  O  O146  1  0.59842512  0.61241371  0.12960076  1
  O  O147  1  0.61274230  0.61240961  0.63170829  1
  O  O148  1  0.37902674  0.37744886  0.38166136  1
  O  O149  1  0.36475693  0.37804103  0.87308331  1
  O  O150  1  0.38130617  0.88022096  0.38421119  1
  O  O151  1  0.36922687  0.87914861  0.87739434  1
  O  O152  1  0.89727521  0.37695924  0.36990173  1
  O  O153  1  0.87455403  0.38872553  0.88238576  1
  O  O154  1  0.87537667  0.88086110  0.39597937  1
  O  O155  1  0.87178880  0.89143548  0.87166043  1
  O  O156  1  0.26849280  0.01139746  0.37744245  1
  O  O157  1  0.25982344  0.01457935  0.90850987  1
  O  O158  1  0.26546501  0.49167104  0.37403739  1
  O  O159  1  0.26083390  0.49651467  0.88366077  1
  O  O160  1  0.76405114  -0.00150718  0.35763208  1
  O  O161  1  0.75028170  0.01272054  0.86685614  1
  O  O162  1  0.74320304  0.49576238  0.35458809  1
  O  O163  1  0.75480167  0.50320765  0.86657206  1
  O  O164  1  0.23272723  0.49510808  0.12495728  1
  O  O165  1  0.26180857  0.48946623  0.61666140  1
  O  O166  1  0.23183713  0.99983346  0.11415322  1
  O  O167  1  0.26945819  0.98940248  0.63862729  1
  O  O168  1  0.74947239  0.48733227  0.13090801  1
  O  O169  1  0.72990314  0.50135336  0.63575242  1
  O  O170  1  0.73973290  1.00742113  0.13400293  1
  O  O171  1  0.74993965  0.98224874  0.63632179  1
  O  O172  1  0.00297241  0.36287699  0.25053768  1
  O  O173  1  -0.00332148  0.38197556  0.76193989  1
  O  O174  1  -0.00894339  0.86087869  0.26364041  1
  O  O175  1  0.00355800  0.86080244  0.74862882  1
  O  O176  1  0.50317599  0.36301120  0.25109166  1
  O  O177  1  0.49117852  0.35994181  0.75488591  1
  O  O178  1  0.49581143  0.85836797  0.25712922  1
  O  O179  1  0.51420791  0.86364747  0.75014448  1
  O  O180  1  0.49299828  0.13338901  0.25380474  1
  O  O181  1  0.49295807  0.15434650  0.77759902  1
  O  O182  1  0.48667013  0.63072066  0.23894165  1
  O  O183  1  0.49546164  0.63417547  0.74585451  1
  O  O184  1  0.97554390  0.14456915  0.25330513  1
  O  O185  1  0.99643649  0.14005961  0.75081202  1
  O  O186  1  0.97451772  0.65548719  0.29622831  1
  O  O187  1  1.00216560  0.64195729  0.73779737  1
  O  O188  1  0.37265784  0.23504301  -0.00242024  1
  O  O189  1  0.37412115  0.25686808  0.51110946  1
  O  O190  1  0.37462897  0.74879820  0.02387021  1
  O  O191  1  0.37736723  0.75455024  0.51465209  1
  O  O192  1  0.87411195  0.26140506  0.00717653  1
  O  O193  1  0.87388452  0.25222870  0.51760569  1
  O  O194  1  0.87002919  0.76028231  0.01708799  1
  O  O195  1  0.87401703  0.76252223  0.51465543  1
  O  O196  1  0.14479346  0.23954265  0.50262183  1
  O  O197  1  0.10089409  0.23577751  0.98536138  1
  O  O198  1  0.08882605  0.73110796  0.49186629  1
  O  O199  1  0.11978460  0.73939726  0.99699602  1
  O  O200  1  0.62701175  0.25500696  0.48325612  1
  O  O201  1  0.63055833  0.24360741  0.98886429  1
  O  O202  1  0.64033967  0.74978962  0.50109879  1
  O  O203  1  0.62415477  0.74267916  1.02045451  1
  O  O204  1  0.50317001  0.24892749  0.13919087  1
  O  O205  1  0.49232800  0.25639182  0.63503719  1
  O  O206  1  0.48652496  0.74198001  0.13678617  1
  O  O207  1  0.50238000  0.73654305  0.63370401  1
  O  O208  1  0.98382306  0.26093655  0.13218877  1
  O  O209  1  0.98418636  0.25253077  0.62836698  1
  O  O210  1  0.98164417  0.75356482  0.13415606  1
  O  O211  1  0.98556002  0.74951144  0.63719426  1
  O  O212  1  0.00214840  0.25998298  0.36371169  1
  O  O213  1  -0.01372430  0.26725798  0.85597473  1
  O  O214  1  -0.03062906  0.72077059  0.35194549  1
  O  O215  1  -0.01215255  0.74572237  0.86358010  1
  O  O216  1  0.50856872  0.25939012  0.36577953  1
  O  O217  1  0.51756239  0.26466293  0.87747075  1
  O  O218  1  0.49557830  0.75725698  0.35893987  1
  O  O219  1  0.50309469  0.74285783  0.86337066  1
  O  O220  1  0.25681865  0.13043861  0.49398524  1
  O  O221  1  0.31159027  0.19909046  1.01438361  1
  O  O222  1  0.25319575  0.64952870  0.49924469  1
  O  O223  1  0.24326988  0.62549361  0.99895302  1
  O  O224  1  0.68757470  0.08146417  0.51060178  1
  O  O225  1  0.74096855  0.12650205  0.98509638  1
  O  O226  1  0.75455914  0.64143512  0.50354931  1
  O  O227  1  0.74271145  0.61390167  0.98249636  1
  O  O228  1  0.23205242  0.36436102  0.02509951  1
  O  O229  1  0.26028628  0.36178499  0.50032711  1
  O  O230  1  0.33207634  0.86796476  -0.05930575  1
  O  O231  1  0.27182713  0.87266008  0.50222294  1
  O  O232  1  0.75845154  0.37987520  0.01064637  1
  O  O233  1  0.74479792  0.39059002  0.51355681  1
  O  O234  1  0.76821024  0.87261743  -0.01249441  1
  O  O235  1  0.75413721  0.86615280  0.51123205  1
  O  O236  1  0.11686110  0.52129324  0.23159064  1
  O  O237  1  0.13812713  0.51267106  0.75713280  1
  O  O238  1  0.15042802  1.04506535  0.22717444  1
  O  O239  1  0.12677405  0.98347142  0.72972569  1
  O  O240  1  0.62682935  0.48090075  0.24174713  1
  O  O241  1  0.62641870  0.49236832  0.75383183  1
  O  O242  1  0.63909700  1.00493106  0.24015219  1
  O  O243  1  0.62970216  0.98375666  0.75821087  1
  O  O244  1  0.37278182  0.01035980  0.25773694  1
  O  O245  1  0.37231339  -0.00694896  0.73190816  1
  O  O246  1  0.37284578  0.50740107  0.25654173  1
  O  O247  1  0.38101081  0.51282009  0.76858261  1
  O  O248  1  0.86788034  0.01642642  0.25278744  1
  O  O249  1  0.85509756  -0.00286799  0.75941498  1
  O  O250  1  0.85874916  0.50465697  0.24430270  1
  O  O251  1  0.87164034  0.50316241  0.76186562  1
  O  O252  1  0.11098437  0.38170918  0.37767793  1
  O  O253  1  0.10691196  0.38167589  0.87894620  1
  O  O254  1  0.18334505  0.85846162  0.32383609  1
  O  O255  1  0.12325378  0.86036980  0.89041485  1
  O  O256  1  0.61559830  0.36930334  0.36347589  1
  O  O257  1  0.64457932  0.36249598  0.88096173  1
  O  O258  1  0.61291013  0.87803907  0.37547738  1
  O  O259  1  0.63045203  0.87044736  0.87069417  1
  O  O260  1  0.37182658  0.12306047  0.14297610  1
  O  O261  1  0.37899464  0.13989146  0.62385207  1
  O  O262  1  0.37498569  0.62555384  0.13764012  1
  O  O263  1  0.38510185  0.63452475  0.63617157  1
  O  O264  1  0.87032153  0.14138934  0.12062976  1
  O  O265  1  0.85231076  0.13371322  0.62089577  1
  O  O266  1  0.87416016  0.62850359  0.12259553  1
  O  O267  1  0.85858557  0.64321006  0.63860723  1
  O  O268  1  0.24011063  0.25113555  0.14087632  1
  O  O269  1  0.26352997  0.25336236  0.61445535  1
  O  O270  1  0.25913640  0.74786157  0.13491793  1
  O  O271  1  0.27134261  0.75918133  0.64183543  1
  O  O272  1  0.76351478  0.26316251  0.12305452  1
  O  O273  1  0.76304655  0.27446872  0.63255502  1
  O  O274  1  0.76252172  0.74609695  0.12205913  1
  O  O275  1  0.75511464  0.75928076  0.62222950  1
  O  O276  1  0.26685336  0.23781645  0.39148612  1
  O  O277  1  0.23860154  0.23164626  0.86911526  1
  O  O278  1  0.21255623  0.79714810  0.36456930  1
  O  O279  1  0.23727527  0.75166453  0.87755852  1
  O  O280  1  0.73640377  0.25928495  0.36454128  1
  O  O281  1  0.74957292  0.24116937  0.86745344  1
  O  O282  1  0.75360369  0.75129223  0.38651171  1
  O  O283  1  0.75247232  0.73170012  0.87716593  1
  O  O284  1  -0.00934690  0.12145545  -0.00939927  1
  O  O285  1  0.01577786  0.13251209  0.49054044  1
  O  O286  1  -0.00631283  0.61298196  -0.00357312  1
  O  O287  1  -0.02051525  0.61403645  0.54469062  1
  O  O288  1  0.51887683  0.12241369  -0.01049119  1
  O  O289  1  0.51294063  0.12478694  0.50401139  1
  O  O290  1  0.48883978  0.62284624  0.01361489  1
  O  O291  1  0.49057309  0.62461169  0.52171880  1
  O  O292  1  0.48995741  0.36762690  0.49003944  1
  O  O293  1  0.49401232  0.38146862  1.00739028  1
  O  O294  1  0.49336961  0.86277836  0.48014653  1
  O  O295  1  0.50651999  0.89478529  0.99718406  1
  O  O296  1  1.00011492  0.37846245  0.49083262  1
  O  O297  1  0.99055008  0.38563058  0.98818307  1
  O  O298  1  0.98737715  0.87989668  0.51797956  1
  O  O299  1  0.97722988  0.86864657  0.99276843  1
  O  O300  1  0.48557082  0.48023159  0.36229051  1
  O  O301  1  0.48283567  0.49715143  0.88823241  1
  O  O302  1  0.49147855  0.98311062  0.36157384  1
  O  O303  1  0.49040474  1.01040783  0.88372336  1
  O  O304  1  1.00207663  0.49466410  0.36939555  1
  O  O305  1  0.98718211  0.49710233  0.88057757  1
  O  O306  1  0.98255399  1.00796992  0.36002507  1
  O  O307  1  0.98206940  1.00645269  0.85872191  1
  O  O308  1  0.02177566  0.01237563  0.15895218  1
  O  O309  1  0.09219600  -0.04846672  0.66538867  1
  O  O310  1  0.00179973  0.49727721  0.11060291  1
  O  O311  1  0.03156767  0.50896021  0.65298649  1
  O  O312  1  0.52076939  0.00229664  0.12181340  1
  O  O313  1  0.52580829  0.00397528  0.61269265  1
  O  O314  1  0.48045355  0.50634291  0.11249105  1
  O  O315  1  0.50604998  0.50800485  0.63566172  1
  O  O316  1  0.24679526  0.37733588  0.23635508  1
  O  O317  1  0.25040037  0.37183225  0.72945278  1
  O  O318  1  0.23932873  0.87548035  0.25995568  1
  O  O319  1  0.29517756  0.96059051  0.70539612  1
  O  O320  1  0.74550089  0.38228240  0.23861667  1
  O  O321  1  0.75398265  0.39564263  0.73989990  1
  O  O322  1  0.76258210  0.89091951  0.24661021  1
  O  O323  1  0.73507876  0.87604833  0.74299363  1
  O  O324  1  0.27245900  0.13778873  0.27158907  1
  O  O325  1  0.23010450  0.11831840  0.75587992  1
  O  O326  1  0.26072073  0.61947381  0.25028792  1
  O  O327  1  0.26840187  0.63018676  0.74661411  1
  O  O328  1  0.76461484  0.12245882  0.24504782  1
  O  O329  1  0.73726776  0.11721775  0.75956030  1
  O  O330  1  0.73197659  0.61323906  0.24696988  1
  O  O331  1  0.74166016  0.60837215  0.76235138  1
  O  O332  1  0.38303443  0.10987258  0.38072827  1
  O  O333  1  0.35145881  0.12321505  0.86871889  1
  O  O334  1  0.38885506  0.60826265  0.36545017  1
  O  O335  1  0.37429320  0.63475804  0.86365224  1
  O  O336  1  0.86926138  0.12437873  0.37133895  1
  O  O337  1  0.85782032  0.11745357  0.87601286  1
  O  O338  1  0.87928727  0.55344247  0.42108574  1
  O  O339  1  0.86245041  0.61118292  0.88037819  1
  O  O340  1  0.11760686  0.39380032  0.12413605  1
  O  O341  1  0.14451812  0.37585454  0.60568301  1
  O  O342  1  0.11450872  0.89141373  0.11759889  1
  O  O343  1  0.13394925  0.88826045  0.63662194  1
  O  O344  1  0.64139455  0.36150200  0.12863557  1
  O  O345  1  0.62964074  0.38834331  0.62413338  1
  O  O346  1  0.62825225  0.88606443  0.12556421  1
  O  O347  1  0.63384770  0.86919772  0.62437802  1
  O  O348  1  0.10764872  0.23439113  0.24317071  1
  O  O349  1  0.10145870  0.25675852  0.73195799  1
  O  O350  1  0.09871258  0.74252502  0.23886395  1
  O  O351  1  0.11399836  0.74852991  0.77238702  1
  O  O352  1  0.61480996  0.25667539  0.25467229  1
  O  O353  1  0.61610070  0.25671207  0.75983868  1
  O  O354  1  0.61085437  0.73982273  0.24481578  1
  O  O355  1  0.61763426  0.75920803  0.74950555  1
  O  O356  1  0.39052698  0.23979427  0.25852930  1
  O  O357  1  0.37920637  0.25447944  0.73500244  1
  O  O358  1  0.37933775  0.73292531  0.24733222  1
  O  O359  1  0.39413735  0.74582838  0.74034468  1
  O  O360  1  0.87129738  0.24486075  0.23993235  1
  O  O361  1  0.88440068  0.26108187  0.72940227  1
  O  O362  1  0.87394224  0.75466738  0.23158032  1
  O  O363  1  0.87897476  0.76471745  0.74067146  1
  O  O364  1  0.37392857  0.49320512  0.48681864  1
  O  O365  1  0.37918625  0.49963070  0.98729413  1
  O  O366  1  0.38262097  0.98783174  0.48918190  1
  O  O367  1  0.39989354  1.01162390  1.01543736  1
  O  O368  1  0.86333301  0.50987615  0.47826875  1
  O  O369  1  0.88246470  0.49479833  0.99478475  1
  O  O370  1  0.86692195  0.98994894  0.49538858  1
  O  O371  1  0.86994238  0.99472517  0.98360626  1
  O  O372  1  0.10318153  0.00612844  0.00834924  1
  O  O373  1  0.12079006  0.00828135  0.49080086  1
  O  O374  1  0.11176965  0.51131779  0.00270092  1
  O  O375  1  0.13349747  0.53906205  0.49632401  1
  O  O376  1  0.62302939  0.01096710  0.00986718  1
  O  O377  1  0.64371511  0.00774243  0.49667399  1
  O  O378  1  0.59983905  0.49983415  -0.00406284  1
  O  O379  1  0.61617311  0.49983062  0.51168712  1
  O  O380  1  0.35902759  0.36398245  0.12366015  1
  O  O381  1  0.36933554  0.37179249  0.61447214  1
  O  O382  1  0.37158820  0.86383295  0.14106624  1
  O  O383  1  0.39692150  0.86163449  0.61132445  1
  O  O384  1  0.86661067  0.37190009  0.11747327  1
  O  O385  1  0.85908490  0.40579511  0.61689009  1
  O  O386  1  0.87443042  0.89409995  0.11274947  1
  O  O387  1  0.86133736  0.87059964  0.61801100  1
  O  O388  1  0.14844698  0.12308308  0.38451758  1
  O  O389  1  0.13526718  0.10396762  0.88875545  1
  O  O390  1  0.14484035  0.63776795  0.37461367  1
  O  O391  1  0.11768740  0.63727418  0.89414958  1
  O  O392  1  0.62510052  0.14119629  0.36725163  1
  O  O393  1  0.63603194  0.13684855  0.88154316  1
  O  O394  1  0.59947962  0.61410098  0.37827400  1
  O  O395  1  0.62904453  0.62136415  0.87277653  1
