# generated using pymatgen
data_V35Zn35O128
_symmetry_space_group_name_H-M   'P 1'
_cell_length_a   16.99200896
_cell_length_b   16.96454365
_cell_length_c   16.91732469
_cell_angle_alpha   90.17380522
_cell_angle_beta   90.78338795
_cell_angle_gamma   89.94834271
_symmetry_Int_Tables_number   1
_chemical_formula_structural   V35Zn35O128
_chemical_formula_sum   'V70 Zn70 O256'
_cell_volume   4876.13634378
_cell_formula_units_Z   2
loop_
 _symmetry_equiv_pos_site_id
 _symmetry_equiv_pos_as_xyz
  1  'x, y, z'
loop_
 _atom_site_type_symbol
 _atom_site_label
 _atom_site_symmetry_multiplicity
 _atom_site_fract_x
 _atom_site_fract_y
 _atom_site_fract_z
 _atom_site_occupancy
  V  V0  1  0.11626610  -0.00961113  0.63158093  1
  V  V1  1  0.11384862  0.61753271  0.50832016  1
  V  V2  1  -0.00100382  -0.00340763  0.47933134  1
  V  V3  1  0.22425324  0.63215114  0.36277052  1
  V  V4  1  0.37590397  0.74696903  0.61667999  1
  V  V5  1  -0.00183336  0.02327003  -0.00352763  1
  V  V6  1  0.37973326  0.61738795  0.76326948  1
  V  V7  1  0.60538116  0.11426728  0.51512749  1
  V  V8  1  -0.00251074  0.24623155  0.74584669  1
  V  V9  1  0.74091325  0.23016608  0.49978297  1
  V  V10  1  0.36802737  0.53198467  0.36787146  1
  V  V11  1  0.25527053  0.43639473  0.17135019  1
  V  V12  1  0.75157647  0.61078560  0.36814352  1
  V  V13  1  0.75448630  0.87069110  0.12271254  1
  V  V14  1  0.12394151  0.00186133  0.12296435  1
  V  V15  1  0.86967042  0.11957268  0.74759952  1
  V  V16  1  0.62618029  0.23432419  0.35240940  1
  V  V17  1  0.01769066  0.74632867  0.74623301  1
  V  V18  1  0.49268003  -0.03538476  0.50882715  1
  V  V19  1  0.38003876  0.12967094  0.25194912  1
  V  V20  1  0.01134370  0.86297356  0.87401420  1
  V  V21  1  0.93446213  0.15763297  0.22823273  1
  V  V22  1  0.51239873  0.37027740  0.37259467  1
  V  V23  1  0.86873535  0.61501066  0.23872301  1
  V  V24  1  0.76400713  -0.00505636  0.27149035  1
  V  V25  1  0.11090446  0.37827928  0.74054890  1
  V  V26  1  0.50429527  0.61335444  0.12607934  1
  V  V27  1  0.22413115  0.74219931  -0.00458126  1
  V  V28  1  0.87139329  -0.00451473  0.87565010  1
  V  V29  1  0.00396532  0.64208977  0.12094684  1
  V  V30  1  -0.00014419  0.11657053  0.61737889  1
  V  V31  1  0.85928817  0.37492582  0.48689292  1
  V  V32  1  0.30030040  0.24537063  0.01427271  1
  V  V33  1  0.11529533  0.86431090  0.24991892  1
  V  V34  1  0.43616154  0.80125143  0.80192645  1
  V  V35  1  0.49595308  0.36861589  0.86318839  1
  V  V36  1  0.75482554  0.62320037  0.85518404  1
  V  V37  1  0.87265290  0.85571959  0.00421744  1
  V  V38  1  0.87910732  0.74001109  0.63339424  1
  V  V39  1  0.25448773  0.35833974  0.62166138  1
  V  V40  1  0.63719407  0.76263738  0.87599214  1
  V  V41  1  0.87532200  0.87741067  0.48912112  1
  V  V42  1  0.24624445  0.87207369  0.62543436  1
  V  V43  1  -0.02091457  0.76550647  0.26182419  1
  V  V44  1  0.25654168  0.13366586  0.85449583  1
  V  V45  1  0.62088094  0.61468833  0.50051502  1
  V  V46  1  0.86863311  0.24957654  0.61989516  1
  V  V47  1  0.38288789  0.74597518  0.11007376  1
  V  V48  1  0.87891434  0.50336518  0.86112915  1
  V  V49  1  0.63692907  0.62282391  0.00052764  1
  V  V50  1  0.61551046  0.75370556  0.37114876  1
  V  V51  1  0.64801076  0.50444997  0.64121969  1
  V  V52  1  0.24555660  0.87269725  0.11663582  1
  V  V53  1  0.86738900  0.41377623  0.01880331  1
  V  V54  1  0.64037665  0.36210577  0.75599540  1
  V  V55  1  0.02394738  0.38842244  0.37928580  1
  V  V56  1  0.49040049  0.49781697  -0.01612670  1
  V  V57  1  0.74609020  0.87640729  0.63210969  1
  V  V58  1  0.56574489  0.11092396  0.02826062  1
  V  V59  1  0.25481563  -0.00103895  0.75344349  1
  V  V60  1  0.23517541  0.75429001  0.49618711  1
  V  V61  1  0.36874693  -0.03182402  0.37538137  1
  V  V62  1  0.49509053  0.61365049  0.62368756  1
  V  V63  1  0.22280337  0.61384115  0.87855872  1
  V  V64  1  0.11808100  0.24939608  0.87597832  1
  V  V65  1  0.78189963  0.14664880  0.91713453  1
  V  V66  1  0.24352789  0.50396276  0.74051263  1
  V  V67  1  0.25341494  0.14693190  0.39051703  1
  V  V68  1  0.75039547  0.74742301  0.49844917  1
  V  V69  1  0.61435238  0.88208476  0.24137919  1
  Zn  Zn70  1  0.74426945  0.00241605  0.74132381  1
  Zn  Zn71  1  0.60637783  0.88458206  0.74858700  1
  Zn  Zn72  1  0.14390585  0.13203952  0.00058595  1
  Zn  Zn73  1  0.48908134  0.73901700  0.25708922  1
  Zn  Zn74  1  -0.01642171  0.50557230  0.50392604  1
  Zn  Zn75  1  0.04706787  0.56332278  0.68014971  1
  Zn  Zn76  1  0.23906951  0.15291996  0.17115382  1
  Zn  Zn77  1  0.18129463  0.18300069  0.67550188  1
  Zn  Zn78  1  0.20688209  0.64646011  0.16473055  1
  Zn  Zn79  1  0.18871711  0.68617666  0.68580190  1
  Zn  Zn80  1  0.64559592  0.11189084  0.20274986  1
  Zn  Zn81  1  0.68187154  0.18754990  0.68449789  1
  Zn  Zn82  1  0.68698868  0.69031003  0.18587905  1
  Zn  Zn83  1  0.67893370  0.69817096  0.68984149  1
  Zn  Zn84  1  0.32002147  0.31254866  0.31203308  1
  Zn  Zn85  1  0.28890489  0.34119072  0.83877995  1
  Zn  Zn86  1  0.29225881  0.78366921  0.29492115  1
  Zn  Zn87  1  0.25907100  0.81328670  0.81767624  1
  Zn  Zn88  1  0.81979921  0.26589909  0.32481646  1
  Zn  Zn89  1  0.82334771  0.31834603  0.82639223  1
  Zn  Zn90  1  0.79835067  0.80719796  0.31008407  1
  Zn  Zn91  1  0.81776731  0.80460863  0.81609582  1
  Zn  Zn92  1  0.21016270  0.44657677  0.43783887  1
  Zn  Zn93  1  0.19866282  0.40254305  0.99635373  1
  Zn  Zn94  1  0.17998618  0.93905771  0.43583849  1
  Zn  Zn95  1  0.18808635  0.94224720  0.93915731  1
  Zn  Zn96  1  0.68444991  0.42316348  0.42917692  1
  Zn  Zn97  1  0.69120879  0.44104356  0.93601338  1
  Zn  Zn98  1  0.67889981  0.93564356  0.44343998  1
  Zn  Zn99  1  0.68586932  0.95120149  0.94952454  1
  Zn  Zn100  1  0.36887651  0.07177272  0.04594967  1
  Zn  Zn101  1  0.29679062  0.03781213  0.53373559  1
  Zn  Zn102  1  0.31790384  0.56146965  0.05885748  1
  Zn  Zn103  1  0.30689088  0.55976292  0.55240107  1
  Zn  Zn104  1  0.81046590  0.06125675  0.09886910  1
  Zn  Zn105  1  0.81309262  0.05689669  0.55771385  1
  Zn  Zn106  1  0.85652748  0.62748549  0.01597009  1
  Zn  Zn107  1  0.81330528  0.56315718  0.55950244  1
  Zn  Zn108  1  0.44533690  0.43012928  0.20064116  1
  Zn  Zn109  1  0.44065737  0.42748152  0.68725322  1
  Zn  Zn110  1  0.40153296  0.89337055  0.22751002  1
  Zn  Zn111  1  0.42771349  0.94407174  0.67963138  1
  Zn  Zn112  1  0.91065659  0.35993523  0.20527057  1
  Zn  Zn113  1  0.91976424  0.43687113  0.67903583  1
  Zn  Zn114  1  0.93453957  0.95681766  0.18583862  1
  Zn  Zn115  1  0.93126408  0.92856618  0.68669150  1
  Zn  Zn116  1  0.08980747  0.06541809  0.31196098  1
  Zn  Zn117  1  0.06257820  0.06183722  0.81268245  1
  Zn  Zn118  1  0.04441187  0.57038846  0.31532833  1
  Zn  Zn119  1  0.08443262  0.48570479  0.87684795  1
  Zn  Zn120  1  0.54976077  0.04861280  0.33165126  1
  Zn  Zn121  1  0.61703129  0.07047091  0.84963938  1
  Zn  Zn122  1  0.55135893  0.55697125  0.32156374  1
  Zn  Zn123  1  0.56606245  0.56783369  0.81458597  1
  Zn  Zn124  1  0.45585471  0.17214058  0.41313438  1
  Zn  Zn125  1  0.45290196  0.17860608  0.90602732  1
  Zn  Zn126  1  0.43121566  0.68184700  0.43964727  1
  Zn  Zn127  1  0.44353659  0.68853541  0.94408011  1
  Zn  Zn128  1  0.93978627  0.18481923  0.43104507  1
  Zn  Zn129  1  0.94045446  0.22510669  0.95198735  1
  Zn  Zn130  1  0.93457012  0.68988081  0.43558236  1
  Zn  Zn131  1  1.00485291  0.64456770  0.90367324  1
  Zn  Zn132  1  0.06615872  0.45064715  0.07602872  1
  Zn  Zn133  1  0.05122727  0.32178561  0.56235784  1
  Zn  Zn134  1  0.05271550  0.80929739  0.06649248  1
  Zn  Zn135  1  0.05747326  0.81452348  0.55979163  1
  Zn  Zn136  1  0.50146068  0.29808257  0.05884970  1
  Zn  Zn137  1  0.57906188  0.33580680  0.55585116  1
  Zn  Zn138  1  0.56724938  0.81191333  0.05748743  1
  Zn  Zn139  1  0.56469414  0.79658528  0.57075400  1
  O  O140  1  0.14694500  0.10470270  0.11602577  1
  O  O141  1  0.10613184  0.11213929  0.62181586  1
  O  O142  1  0.10277237  0.63898905  0.12389799  1
  O  O143  1  0.12099428  0.62598078  0.61514577  1
  O  O144  1  0.57756378  0.07740354  0.12243844  1
  O  O145  1  0.62393177  0.11787241  0.61436596  1
  O  O146  1  0.61471333  0.63803498  0.10949985  1
  O  O147  1  0.61838445  0.62079288  0.62236894  1
  O  O148  1  0.41126269  0.36572225  0.36498518  1
  O  O149  1  0.39563903  0.37360431  0.84878749  1
  O  O150  1  0.36201091  0.86864254  0.36004639  1
  O  O151  1  0.36725818  0.84905395  0.85362816  1
  O  O152  1  0.86487734  0.35746201  0.38781754  1
  O  O153  1  0.88046995  0.40194756  0.88424384  1
  O  O154  1  0.85961900  0.86365853  0.39277961  1
  O  O155  1  0.87313196  0.87896153  0.88896644  1
  O  O156  1  0.27162975  -0.00216621  0.40647258  1
  O  O157  1  0.24365362  0.01172868  0.86155219  1
  O  O158  1  0.23451321  0.53300383  0.34641025  1
  O  O159  1  0.24251622  0.51327561  0.86069194  1
  O  O160  1  0.74045551  -0.00682763  0.37008600  1
  O  O161  1  0.77044171  0.01502988  0.89329746  1
  O  O162  1  0.73686988  0.51245356  0.37543616  1
  O  O163  1  0.75763933  0.51833072  0.87098464  1
  O  O164  1  0.25298672  0.54269021  0.15090958  1
  O  O165  1  0.24101441  0.50883165  0.63864563  1
  O  O166  1  0.23401688  0.97504184  0.10587695  1
  O  O167  1  0.23747782  0.99131677  0.62612181  1
  O  O168  1  0.71804415  0.48119189  0.15401474  1
  O  O169  1  0.74617366  0.51242311  0.63550108  1
  O  O170  1  0.75085076  0.97861123  0.14676633  1
  O  O171  1  0.75341679  0.97973463  0.62091414  1
  O  O172  1  -0.00829149  0.36002188  0.28655700  1
  O  O173  1  0.00477769  0.36234079  0.73942183  1
  O  O174  1  0.00093599  0.87220974  0.23825336  1
  O  O175  1  -0.01058837  0.86716849  0.76887693  1
  O  O176  1  0.53506858  0.44470740  0.30083603  1
  O  O177  1  0.51999977  0.38902008  0.75868126  1
  O  O178  1  0.51367690  0.86511225  0.23935414  1
  O  O179  1  0.48910817  0.87184946  0.74878293  1
  O  O180  1  0.48090044  0.10955905  0.26141883  1
  O  O181  1  0.50311872  0.13340209  0.74254830  1
  O  O182  1  0.51611430  0.62439274  0.22987510  1
  O  O183  1  0.48360576  0.61953169  0.74456544  1
  O  O184  1  1.03061747  0.13760665  0.24743797  1
  O  O185  1  0.98898874  0.12637840  0.74010145  1
  O  O186  1  0.98120019  0.64492688  0.24684061  1
  O  O187  1  1.00819589  0.64620358  0.74920844  1
  O  O188  1  0.40116592  0.24436534  0.01101675  1
  O  O189  1  0.43332298  0.26291894  0.56463835  1
  O  O190  1  0.37035873  0.75168838  0.00727333  1
  O  O191  1  0.35562810  0.74012345  0.51094326  1
  O  O192  1  0.93680151  0.31670818  0.02616848  1
  O  O193  1  0.86086339  0.24318344  0.50155747  1
  O  O194  1  0.86373896  0.75971621  0.00173249  1
  O  O195  1  0.86739425  0.75759940  0.50714783  1
  O  O196  1  0.08825398  0.24725294  0.47451723  1
  O  O197  1  0.12428024  0.25121272  0.97612424  1
  O  O198  1  0.13059963  0.74284935  0.50894630  1
  O  O199  1  0.12649862  0.74087090  1.00309994  1
  O  O200  1  0.63543421  0.23991222  0.51145998  1
  O  O201  1  0.57823311  0.21109634  1.02757094  1
  O  O202  1  0.63331106  0.73866087  0.49214089  1
  O  O203  1  0.61158649  0.73633840  0.98233402  1
  O  O204  1  0.49669575  0.33999902  0.16122600  1
  O  O205  1  0.48931609  0.29740875  0.61834892  1
  O  O206  1  0.48932155  0.74901175  0.11662044  1
  O  O207  1  0.48452990  0.73690862  0.62612536  1
  O  O208  1  1.08990105  0.27701331  0.16194939  1
  O  O209  1  0.98969984  0.23604383  0.62640887  1
  O  O210  1  0.98877703  0.74558041  0.13646103  1
  O  O211  1  0.98775672  0.76360802  0.63669266  1
  O  O212  1  0.03842938  0.25377474  0.41252815  1
  O  O213  1  0.00944026  0.24067501  0.85976660  1
  O  O214  1  -0.01156632  0.75863813  0.36159378  1
  O  O215  1  0.00164597  0.75489411  0.86180895  1
  O  O216  1  0.51856008  0.25700224  0.37009715  1
  O  O217  1  0.51024669  0.27090893  0.87597701  1
  O  O218  1  0.51240421  0.73646021  0.37522102  1
  O  O219  1  0.50113577  0.75323590  0.86710995  1
  O  O220  1  0.27384230  0.13810395  0.49422512  1
  O  O221  1  0.26607734  0.14522835  0.97849227  1
  O  O222  1  0.23156573  0.63762077  0.49092472  1
  O  O223  1  0.25024394  0.62793736  0.98456608  1
  O  O224  1  0.73719293  0.12590094  0.50433702  1
  O  O225  1  0.77573010  0.12808880  1.01626214  1
  O  O226  1  0.74386888  0.63156901  0.48950216  1
  O  O227  1  0.73674710  0.62929112  1.00351455  1
  O  O228  1  0.27396607  0.33239435  -0.03951020  1
  O  O229  1  0.23176796  0.37311817  0.52505884  1
  O  O230  1  0.23501641  0.85336376  0.00318932  1
  O  O231  1  0.23649282  0.86245869  0.51232676  1
  O  O232  1  0.77017775  0.38740378  -0.00007242  1
  O  O233  1  0.75370146  0.35423594  0.49727634  1
  O  O234  1  0.75801932  0.88409392  0.01411088  1
  O  O235  1  0.75203399  0.86458493  0.50829519  1
  O  O236  1  0.07160544  0.50954760  0.21765977  1
  O  O237  1  0.11646196  0.48558006  0.75577696  1
  O  O238  1  0.11556697  0.98951111  0.22528788  1
  O  O239  1  0.12645316  1.00121911  0.73703548  1
  O  O240  1  0.65625527  0.47002156  0.18873282  1
  O  O241  1  0.63158355  0.51118371  0.74112219  1
  O  O242  1  0.61895155  0.98336677  0.26159074  1
  O  O243  1  0.64175431  0.98728860  0.77882622  1
  O  O244  1  0.37155987  -0.00624467  0.27367469  1
  O  O245  1  0.35293208  0.00321388  0.74163463  1
  O  O246  1  0.37850924  0.49644506  0.27283222  1
  O  O247  1  0.36035089  0.51559279  0.74695643  1
  O  O248  1  0.86184187  -0.02563909  0.27317151  1
  O  O249  1  0.87089943  0.00186661  0.75886044  1
  O  O250  1  0.87776184  0.52157688  0.25618121  1
  O  O251  1  0.87143967  0.49643625  0.76039913  1
  O  O252  1  0.12298968  0.38954896  0.38285754  1
  O  O253  1  0.12549998  0.35583364  0.85156437  1
  O  O254  1  0.13078557  0.88903784  0.34633864  1
  O  O255  1  0.10918593  0.87571878  0.88040800  1
  O  O256  1  0.63378471  0.34193608  0.36207571  1
  O  O257  1  0.62297343  0.38453987  0.86021588  1
  O  O258  1  0.62413068  0.85737676  0.36963402  1
  O  O259  1  0.63603285  0.86237743  0.89193680  1
  O  O260  1  0.34979558  0.10461791  0.14930258  1
  O  O261  1  0.38954177  0.21257888  0.59501910  1
  O  O262  1  0.39324983  0.63699576  0.11782369  1
  O  O263  1  0.37685352  0.62742968  0.62567195  1
  O  O264  1  0.90119616  0.08004936  0.16533736  1
  O  O265  1  0.88240910  0.12566767  0.62847858  1
  O  O266  1  0.87656852  0.62322650  0.13553443  1
  O  O267  1  0.87765857  0.64199925  0.61314368  1
  O  O268  1  0.26507253  0.24758492  0.10668629  1
  O  O269  1  0.25161016  0.25886354  0.63875764  1
  O  O270  1  0.25698372  0.73954721  0.10432750  1
  O  O271  1  0.25394140  0.75390270  0.61994081  1
  O  O272  1  0.75550353  0.29545019  0.16634968  1
  O  O273  1  0.76091797  0.23938572  0.61364423  1
  O  O274  1  0.75026447  0.77040759  0.13473354  1
  O  O275  1  0.75897416  0.75197009  0.61616469  1
  O  O276  1  0.25490376  0.24683509  0.37865482  1
  O  O277  1  0.22940497  0.23759330  0.84375397  1
  O  O278  1  0.24138662  0.75739334  0.39534334  1
  O  O279  1  0.23802464  0.73201864  0.88635185  1
  O  O280  1  0.73422418  0.23141540  0.39097048  1
  O  O281  1  0.82777194  0.24174906  0.91382564  1
  O  O282  1  0.73463680  0.73960131  0.38287930  1
  O  O283  1  0.74202323  0.74217537  0.87714442  1
  O  O284  1  -0.00578022  0.12366055  -0.00632760  1
  O  O285  1  -0.01846922  0.10369231  0.50471209  1
  O  O286  1  -0.01867758  0.63567228  0.01888225  1
  O  O287  1  0.00865970  0.62513772  0.49429265  1
  O  O288  1  0.46693175  0.10138644  -0.00607917  1
  O  O289  1  0.50578024  0.13188309  0.50908592  1
  O  O290  1  0.50883554  0.61531908  0.00488653  1
  O  O291  1  0.51280849  0.63465588  0.51373700  1
  O  O292  1  0.53576161  0.39866012  0.46804912  1
  O  O293  1  0.50756196  0.39185853  0.98110325  1
  O  O294  1  0.50732974  0.86621134  0.50153471  1
  O  O295  1  0.50148135  0.89176059  0.99426697  1
  O  O296  1  0.98166159  0.37459722  0.48642321  1
  O  O297  1  0.98426601  0.38495321  1.00540725  1
  O  O298  1  0.98389761  0.88141331  0.49722375  1
  O  O299  1  0.98570357  0.86430809  0.98683962  1
  O  O300  1  0.46308943  0.55481938  0.39601572  1
  O  O301  1  0.50067271  0.50309532  0.88119911  1
  O  O302  1  0.47879843  0.98913623  0.39563229  1
  O  O303  1  0.50969563  1.10520990  0.82706650  1
  O  O304  1  0.99981301  0.49129093  0.38577030  1
  O  O305  1  0.98053627  0.53361410  0.87106140  1
  O  O306  1  1.00673519  1.00644294  0.38224280  1
  O  O307  1  0.99435812  0.99034481  0.88376690  1
  O  O308  1  0.01466252  -0.00647954  0.10148020  1
  O  O309  1  0.00019121  0.00024306  0.62471878  1
  O  O310  1  0.01619896  0.51971786  0.15549797  1
  O  O311  1  -0.00715470  0.49128745  0.61630728  1
  O  O312  1  0.45410273  -0.06236850  0.03937707  1
  O  O313  1  0.50000483  -0.01187919  0.60864611  1
  O  O314  1  0.49948834  0.51291189  0.11433809  1
  O  O315  1  0.50241471  0.51205453  0.62743141  1
  O  O316  1  0.25056276  0.38963021  0.26151229  1
  O  O317  1  0.23357955  0.38672031  0.74394646  1
  O  O318  1  0.22801572  0.85568691  0.22317372  1
  O  O319  1  0.23908122  0.89023412  0.74122831  1
  O  O320  1  0.79482280  0.33731565  0.23950145  1
  O  O321  1  0.74193289  0.36311146  0.76166236  1
  O  O322  1  0.73365740  0.87892921  0.24773428  1
  O  O323  1  0.76170787  0.87056050  0.73489713  1
  O  O324  1  0.26458272  0.11927062  0.27597412  1
  O  O325  1  0.23772819  0.11001052  0.74826628  1
  O  O326  1  0.22989127  0.67676924  0.27056686  1
  O  O327  1  0.25180310  0.62428664  0.76308333  1
  O  O328  1  0.74954268  0.09463046  0.24223276  1
  O  O329  1  0.76667673  0.12219752  0.73536393  1
  O  O330  1  0.75482178  0.62905660  0.25848439  1
  O  O331  1  0.75095459  0.63546442  0.75680085  1
  O  O332  1  0.36879289  0.11866167  0.37044211  1
  O  O333  1  0.35401251  0.14429098  0.85471040  1
  O  O334  1  0.34145578  0.63712778  0.37421311  1
  O  O335  1  0.37598961  0.63053863  0.86283823  1
  O  O336  1  0.89233281  0.17625916  0.32616982  1
  O  O337  1  0.87694982  0.11217354  0.86356321  1
  O  O338  1  0.85463439  0.62918867  0.37256997  1
  O  O339  1  0.85662610  0.62856979  0.88328389  1
  O  O340  1  0.17424503  0.40150879  0.11173266  1
  O  O341  1  0.12833424  0.36589750  0.63819071  1
  O  O342  1  0.12484105  0.87934146  0.12328839  1
  O  O343  1  0.13023684  0.88119760  0.62330725  1
  O  O344  1  0.68876968  0.32054229  0.15042610  1
  O  O345  1  0.63075433  0.39748985  0.64053391  1
  O  O346  1  0.63338831  0.87208283  0.13454968  1
  O  O347  1  0.64207756  0.85780307  0.63258014  1
  O  O348  1  0.13133283  0.26573177  0.22054200  1
  O  O349  1  0.10742762  0.24947369  0.74476377  1
  O  O350  1  0.09896188  0.76488312  0.24971140  1
  O  O351  1  0.11680817  0.75896296  0.74096369  1
  O  O352  1  0.63144163  0.21471433  0.25548732  1
  O  O353  1  0.62147232  0.26423421  0.73985503  1
  O  O354  1  0.62270473  0.75456723  0.26240780  1
  O  O355  1  0.62359272  0.76233218  0.76895635  1
  O  O356  1  0.37649989  0.23031733  0.25058433  1
  O  O357  1  0.45303063  0.18647338  0.73288680  1
  O  O358  1  0.38092740  0.76327333  0.22626122  1
  O  O359  1  0.37308624  0.73538517  0.74029447  1
  O  O360  1  0.92589273  0.24326116  0.17767959  1
  O  O361  1  0.88188318  0.24227413  0.74190650  1
  O  O362  1  0.87580682  0.75090124  0.25021021  1
  O  O363  1  0.87913644  0.74839157  0.73611270  1
  O  O364  1  0.32602714  0.49196987  0.45942015  1
  O  O365  1  0.39129596  0.50639661  0.99379730  1
  O  O366  1  0.38626452  0.97576542  0.50148326  1
  O  O367  1  0.38939533  0.96376812  0.99917441  1
  O  O368  1  0.86033156  0.47813395  0.49958185  1
  O  O369  1  0.87296895  0.51229619  0.98614706  1
  O  O370  1  0.88089400  0.98481383  0.49795962  1
  O  O371  1  0.89478224  0.99557510  0.99435679  1
  O  O372  1  0.11251044  0.00879595  -0.00275932  1
  O  O373  1  0.10159133  -0.01241272  0.50920590  1
  O  O374  1  0.12139960  0.47846143  -0.01822032  1
  O  O375  1  0.13037347  0.51954756  0.49809809  1
  O  O376  1  0.62032997  0.04411469  -0.03467229  1
  O  O377  1  0.60288488  0.00705001  0.49237525  1
  O  O378  1  0.61888555  0.51857112  -0.00792027  1
  O  O379  1  0.63797341  0.51273653  0.51435237  1
  O  O380  1  0.34074672  0.40977483  0.12858247  1
  O  O381  1  0.35128227  0.38607847  0.63397723  1
  O  O382  1  0.35068430  0.86286297  0.12297182  1
  O  O383  1  0.35610663  0.86072219  0.63233386  1
  O  O384  1  0.87610374  0.42453168  0.11905058  1
  O  O385  1  0.87947924  0.35426469  0.60749661  1
  O  O386  1  0.86912609  0.88001564  0.11131455  1
  O  O387  1  0.86362469  0.86261198  0.61349608  1
  O  O388  1  0.15605184  0.11261525  0.38664295  1
  O  O389  1  0.13284118  0.13311429  0.87529140  1
  O  O390  1  0.12037890  0.63293547  0.38453487  1
  O  O391  1  0.12362090  0.61701142  0.87609389  1
  O  O392  1  0.60955257  0.13392716  0.39368838  1
  O  O393  1  0.69384481  0.15950482  0.87179172  1
  O  O394  1  0.63101275  0.62813722  0.37977134  1
  O  O395  1  0.63869954  0.63402044  0.88014042  1
