# generated using pymatgen
data_V35Zn35O128
_symmetry_space_group_name_H-M   'P 1'
_cell_length_a   16.89373359
_cell_length_b   16.93316142
_cell_length_c   16.91475015
_cell_angle_alpha   89.86957610
_cell_angle_beta   89.99326748
_cell_angle_gamma   90.05536826
_symmetry_Int_Tables_number   1
_chemical_formula_structural   V35Zn35O128
_chemical_formula_sum   'V70 Zn70 O256'
_cell_volume   4838.69163235
_cell_formula_units_Z   2
loop_
 _symmetry_equiv_pos_site_id
 _symmetry_equiv_pos_as_xyz
  1  'x, y, z'
loop_
 _atom_site_type_symbol
 _atom_site_label
 _atom_site_symmetry_multiplicity
 _atom_site_fract_x
 _atom_site_fract_y
 _atom_site_fract_z
 _atom_site_occupancy
  V  V0  1  0.12242839  0.86311112  0.25529164  1
  V  V1  1  0.61593949  0.36402293  0.24712987  1
  V  V2  1  -0.01305229  0.49848722  -0.00159312  1
  V  V3  1  0.00415181  0.22694969  0.75220829  1
  V  V4  1  -0.00208263  0.86409637  0.37490838  1
  V  V5  1  0.49112988  0.87797821  0.41037634  1
  V  V6  1  0.49472767  0.14654061  0.12851196  1
  V  V7  1  0.74854371  0.86777359  0.64618990  1
  V  V8  1  0.12974670  0.00934150  0.14054484  1
  V  V9  1  0.65006157  0.12141813  0.50310657  1
  V  V10  1  0.37597667  0.61997445  0.75030367  1
  V  V11  1  0.48548370  0.87191956  0.87766742  1
  V  V12  1  0.73989371  0.63041401  0.40475361  1
  V  V13  1  0.27095728  0.37619462  0.10333918  1
  V  V14  1  0.50409093  -0.00921229  0.01491048  1
  V  V15  1  0.48927192  0.36443255  0.38125943  1
  V  V16  1  0.37474508  0.49171009  0.87366222  1
  V  V17  1  0.62477751  0.49569225  0.12320770  1
  V  V18  1  0.22482554  0.50162029  0.74073468  1
  V  V19  1  0.76404236  0.24447510  0.00112072  1
  V  V20  1  0.62212031  -0.00248020  0.63316829  1
  V  V21  1  0.85687475  -0.00164341  0.87497779  1
  V  V22  1  0.37597680  0.74663974  0.61440062  1
  V  V23  1  0.25527013  0.51000630  0.23049094  1
  V  V24  1  0.63351852  0.24179226  0.37971818  1
  V  V25  1  0.12774797  0.38211716  0.22430053  1
  V  V26  1  0.75621708  0.74320791  0.01099915  1
  V  V27  1  0.74870899  0.88714847  0.14115543  1
  V  V28  1  0.76604316  0.36889663  0.12174058  1
  V  V29  1  0.13084085  0.27626600  0.87155025  1
  V  V30  1  0.24614223  0.37206372  0.62119062  1
  V  V31  1  0.87675721  0.50638954  0.36999405  1
  V  V32  1  0.87255536  0.00869545  0.37695597  1
  V  V33  1  0.62307487  0.62090744  -0.00520722  1
  V  V34  1  0.49767484  0.49067143  -0.00416548  1
  V  V35  1  -0.00213488  0.12620938  0.12767230  1
  V  V36  1  0.50231393  0.74620889  0.74752793  1
  V  V37  1  0.24727256  0.62017629  0.38121206  1
  V  V38  1  0.75589736  0.61550659  0.85908258  1
  V  V39  1  -0.02269796  0.63481130  0.13835458  1
  V  V40  1  0.36524636  0.00016017  0.37687268  1
  V  V41  1  0.24994790  0.87877902  0.62520579  1
  V  V42  1  0.75289423  0.50628461  0.25127917  1
  V  V43  1  0.12277479  0.87382602  0.76954719  1
  V  V44  1  0.38265090  0.12176535  0.74280837  1
  V  V45  1  0.01003048  0.37745928  0.37358299  1
  V  V46  1  0.86516622  0.86890845  0.50569876  1
  V  V47  1  0.00120772  -0.00785129  -0.00139257  1
  V  V48  1  0.38137564  0.50385264  0.37502583  1
  V  V49  1  0.75032188  0.47725511  0.74601866  1
  V  V50  1  -0.00866432  0.65503532  0.64454160  1
  V  V51  1  0.63448057  0.24463887  0.86555124  1
  V  V52  1  0.23533945  0.63403804  0.87141432  1
  V  V53  1  0.00352001  0.01334147  0.51077520  1
  V  V54  1  0.49737540  0.62907182  0.14117886  1
  V  V55  1  0.62147149  0.47668794  0.62103647  1
  V  V56  1  0.12722507  0.62509199  0.02366262  1
  V  V57  1  0.86759275  0.37020589  0.50014328  1
  V  V58  1  0.01552637  0.50803504  0.50341007  1
  V  V59  1  0.51026998  0.37332075  0.85520986  1
  V  V60  1  0.25620009  0.87443669  0.12885487  1
  V  V61  1  0.73478783  0.00714630  0.25964533  1
  V  V62  1  0.24221604  0.75160579  0.49513553  1
  V  V63  1  0.12891969  0.13281193  -0.01170657  1
  V  V64  1  0.00379893  0.25751412  0.24301726  1
  V  V65  1  0.22830966  0.26118001  0.47067232  1
  V  V66  1  0.50912812  0.61745677  0.60653700  1
  V  V67  1  0.86807320  0.13464773  0.25387063  1
  V  V68  1  0.62967296  0.75288205  0.86650338  1
  V  V69  1  0.61433040  0.76241768  0.38161554  1
  Zn  Zn70  1  0.25833014  0.76518916  -0.00427603  1
  Zn  Zn71  1  0.63399622  0.11814310  0.00644758  1
  Zn  Zn72  1  0.88312852  0.11089484  0.75179235  1
  Zn  Zn73  1  0.88806935  0.85850950  0.01096422  1
  Zn  Zn74  1  0.07240871  0.68464256  0.43165937  1
  Zn  Zn75  1  0.12321085  0.01324812  0.63096051  1
  Zn  Zn76  1  0.20255305  0.19809816  0.17998094  1
  Zn  Zn77  1  0.19847565  0.19064098  0.69665584  1
  Zn  Zn78  1  0.19410868  0.69438690  0.19490112  1
  Zn  Zn79  1  0.17586207  0.68854274  0.68159207  1
  Zn  Zn80  1  0.68203195  0.18634016  0.18183597  1
  Zn  Zn81  1  0.69666357  0.13679783  0.70760837  1
  Zn  Zn82  1  0.67484703  0.68984619  0.19512168  1
  Zn  Zn83  1  0.69171422  0.68512782  0.67558207  1
  Zn  Zn84  1  0.30830874  0.30515683  0.29566986  1
  Zn  Zn85  1  0.32094365  0.30358911  0.93995646  1
  Zn  Zn86  1  0.30382095  0.82951849  0.32727914  1
  Zn  Zn87  1  0.30804334  0.81005772  0.80288820  1
  Zn  Zn88  1  0.81266036  0.31858138  0.31390346  1
  Zn  Zn89  1  0.81867400  0.29800980  0.81007251  1
  Zn  Zn90  1  0.80284893  0.81318280  0.33050235  1
  Zn  Zn91  1  0.81781876  0.81775386  0.83424914  1
  Zn  Zn92  1  0.19347000  0.43524013  0.43202397  1
  Zn  Zn93  1  0.18258035  0.45259200  0.93707297  1
  Zn  Zn94  1  0.18083309  0.93918646  0.44138362  1
  Zn  Zn95  1  0.20251069  0.95373399  0.94450211  1
  Zn  Zn96  1  0.68278547  0.43598661  0.43524893  1
  Zn  Zn97  1  0.69177860  0.43008910  0.93434770  1
  Zn  Zn98  1  0.68190711  0.94419517  0.44129080  1
  Zn  Zn99  1  0.69053929  0.92579478  0.94857423  1
  Zn  Zn100  1  0.33301288  0.10192364  0.00630544  1
  Zn  Zn101  1  0.28441617  0.08032528  0.55075284  1
  Zn  Zn102  1  0.33227532  0.60399465  0.04397754  1
  Zn  Zn103  1  0.32332240  0.53601577  0.57103657  1
  Zn  Zn104  1  0.81921933  0.06192421  0.06879721  1
  Zn  Zn105  1  0.81184334  0.05379406  0.57560861  1
  Zn  Zn106  1  0.80912587  0.56514554  0.06527865  1
  Zn  Zn107  1  0.81858408  0.53904671  0.57699177  1
  Zn  Zn108  1  0.43570648  0.44164749  0.18682919  1
  Zn  Zn109  1  0.43089308  0.43551558  0.67968789  1
  Zn  Zn110  1  0.39473656  1.00747538  0.16649175  1
  Zn  Zn111  1  0.43735441  0.92955303  0.68398688  1
  Zn  Zn112  1  0.94174788  0.45000096  0.17995032  1
  Zn  Zn113  1  0.93356888  0.44935950  0.67950455  1
  Zn  Zn114  1  0.92770846  0.80360844  0.19652923  1
  Zn  Zn115  1  0.94097283  0.92649011  0.69256330  1
  Zn  Zn116  1  0.04327993  0.05374890  0.30799813  1
  Zn  Zn117  1  0.07129378  0.05065818  0.81043721  1
  Zn  Zn118  1  0.06816746  0.55871390  0.30108691  1
  Zn  Zn119  1  0.04890986  0.56966671  0.81068750  1
  Zn  Zn120  1  0.53199024  0.07317247  0.32258114  1
  Zn  Zn121  1  0.60986331  0.03102502  0.84593582  1
  Zn  Zn122  1  0.56766630  0.55479349  0.31779277  1
  Zn  Zn123  1  0.56871214  0.55873636  0.80420956  1
  Zn  Zn124  1  0.41924675  0.19499055  0.43271062  1
  Zn  Zn125  1  0.47267390  0.17493346  0.92588044  1
  Zn  Zn126  1  0.43540494  0.68588235  0.42944221  1
  Zn  Zn127  1  0.43661287  0.68887998  0.93636188  1
  Zn  Zn128  1  0.94488003  0.19336337  0.43518078  1
  Zn  Zn129  1  0.94351655  0.18393370  0.93004756  1
  Zn  Zn130  1  0.89174695  0.66013874  0.48895440  1
  Zn  Zn131  1  0.93719768  0.65684506  0.94133044  1
  Zn  Zn132  1  0.05248568  0.31319661  0.05252717  1
  Zn  Zn133  1  0.07310558  0.31593085  0.57826358  1
  Zn  Zn134  1  0.07414154  0.80610093  0.06545736  1
  Zn  Zn135  1  0.05854922  0.81962594  0.56792962  1
  Zn  Zn136  1  0.56799003  0.30611074  0.05387996  1
  Zn  Zn137  1  0.56932451  0.31423763  0.54999617  1
  Zn  Zn138  1  0.56829760  0.81152324  0.06397963  1
  Zn  Zn139  1  0.57710235  0.80675961  0.56657822  1
  O  O140  1  0.11886952  0.12105235  0.14120100  1
  O  O141  1  0.18720854  0.10731371  0.62107032  1
  O  O142  1  0.13741100  0.62234598  0.12307716  1
  O  O143  1  0.09147404  0.63715029  0.62456967  1
  O  O144  1  0.60702194  0.13176862  0.11999684  1
  O  O145  1  0.63452691  0.11860560  0.60795288  1
  O  O146  1  0.62350208  0.60859529  0.11596868  1
  O  O147  1  0.61029941  0.62567880  0.62146809  1
  O  O148  1  0.38614662  0.37138281  0.35694868  1
  O  O149  1  0.39097861  0.38491643  0.87951655  1
  O  O150  1  0.38336362  0.88476349  0.39020812  1
  O  O151  1  0.38544570  0.86169933  0.87481447  1
  O  O152  1  0.88608149  0.38745625  0.37277898  1
  O  O153  1  0.91272808  0.38917831  0.84170583  1
  O  O154  1  0.88242446  0.88699767  0.38311969  1
  O  O155  1  0.87270328  0.89223049  0.89933847  1
  O  O156  1  0.26456217  -0.00699174  0.38923692  1
  O  O157  1  0.27621685  0.03585370  0.92808413  1
  O  O158  1  0.25768233  0.50829891  0.36418768  1
  O  O159  1  0.25735512  0.51094465  0.86073929  1
  O  O160  1  0.75650738  -0.00079973  0.36617327  1
  O  O161  1  0.75487148  -0.00135425  0.88048069  1
  O  O162  1  0.75308987  0.50019261  0.36224070  1
  O  O163  1  0.73882242  0.50716240  0.85955191  1
  O  O164  1  0.26067425  0.49870846  0.12951109  1
  O  O165  1  0.23436911  0.53437041  0.64363013  1
  O  O166  1  0.22894094  0.99610283  0.13143138  1
  O  O167  1  0.26832005  0.97184171  0.59369022  1
  O  O168  1  0.74361139  0.48875811  0.13164901  1
  O  O169  1  0.73363743  0.48774025  0.63341374  1
  O  O170  1  0.75030409  0.99339354  0.13786862  1
  O  O171  1  0.73544931  0.97662879  0.61665213  1
  O  O172  1  0.00803582  0.37745245  0.24658017  1
  O  O173  1  -0.03433069  0.39697476  0.78845756  1
  O  O174  1  0.00132328  0.87035992  0.26684522  1
  O  O175  1  0.02047433  0.87704214  0.75694717  1
  O  O176  1  0.51409768  0.37890303  0.24994145  1
  O  O177  1  0.49513821  0.37939619  0.75718518  1
  O  O178  1  0.44249578  0.81310984  0.22593844  1
  O  O179  1  0.49019141  0.85047486  0.75599800  1
  O  O180  1  0.49727389  0.12619690  0.22832955  1
  O  O181  1  0.47724538  0.13047947  0.70658077  1
  O  O182  1  0.51664565  0.61934352  0.23952158  1
  O  O183  1  0.49294818  0.63147661  0.74839160  1
  O  O184  1  0.99198766  0.13811517  0.24749492  1
  O  O185  1  1.00684378  0.12313931  0.74031529  1
  O  O186  1  1.00165624  0.62215237  0.23619962  1
  O  O187  1  0.98139838  0.62777526  0.74172452  1
  O  O188  1  0.37158011  0.20599884  -0.03554712  1
  O  O189  1  0.34167662  0.24729326  0.49126910  1
  O  O190  1  0.35872135  0.71350764  0.01044358  1
  O  O191  1  0.36316271  0.73467231  0.50861064  1
  O  O192  1  0.86415876  0.24705133  -0.00907035  1
  O  O193  1  0.88740086  0.27126916  0.48960147  1
  O  O194  1  0.85881814  0.73921491  -0.00835588  1
  O  O195  1  0.87718281  0.77139736  0.49619113  1
  O  O196  1  0.13004177  0.25481397  0.50387307  1
  O  O197  1  0.10795215  0.24199483  0.98117339  1
  O  O198  1  0.13780382  0.74756741  0.50176291  1
  O  O199  1  0.14052570  0.73173220  1.00725143  1
  O  O200  1  0.63337366  0.24250529  0.48792688  1
  O  O201  1  0.64178346  0.24991979  0.98764131  1
  O  O202  1  0.61465996  0.73928332  0.48280576  1
  O  O203  1  0.63382997  0.73709329  0.98669044  1
  O  O204  1  0.49071603  0.24658506  0.11382092  1
  O  O205  1  0.49529648  0.22335206  0.57938756  1
  O  O206  1  0.51555346  0.72631206  0.11741878  1
  O  O207  1  0.49618562  0.73645574  0.62890069  1
  O  O208  1  1.00244535  0.24278276  0.13294528  1
  O  O209  1  1.01034516  0.28111003  0.66507250  1
  O  O210  1  0.99763752  0.74314100  0.12757165  1
  O  O211  1  0.98715807  0.75682811  0.63076130  1
  O  O212  1  -0.00062306  0.27024591  0.35825995  1
  O  O213  1  0.01272405  0.24642986  0.86030545  1
  O  O214  1  0.00042068  0.76605582  0.38922253  1
  O  O215  1  -0.02373353  0.74893989  0.86121751  1
  O  O216  1  0.50814558  0.26019417  0.37476558  1
  O  O217  1  0.51777684  0.26631379  0.87173401  1
  O  O218  1  0.49973883  0.76833291  0.37939704  1
  O  O219  1  0.51120497  0.75168594  0.87056411  1
  O  O220  1  0.25184223  0.15588347  0.47348817  1
  O  O221  1  0.22127716  0.13865107  1.02550128  1
  O  O222  1  0.25084073  0.62302772  0.48296971  1
  O  O223  1  0.23432299  0.60990369  0.98118132  1
  O  O224  1  0.74841204  0.12045522  0.49552714  1
  O  O225  1  0.75138933  0.13997423  1.01579723  1
  O  O226  1  0.75510658  0.61497116  0.50270769  1
  O  O227  1  0.73956009  0.62496130  0.98844634  1
  O  O228  1  0.26269774  0.39222994  -0.00128720  1
  O  O229  1  0.24621458  0.36750592  0.50620206  1
  O  O230  1  0.23841246  0.87644972  0.02385991  1
  O  O231  1  0.24876587  0.85348369  0.49690265  1
  O  O232  1  0.75069519  0.37080132  0.01562375  1
  O  O233  1  0.76787267  0.37823833  0.48387925  1
  O  O234  1  0.74944104  0.85218703  0.01115080  1
  O  O235  1  0.76509441  0.87972534  0.48815910  1
  O  O236  1  0.14233516  0.49022225  0.24552025  1
  O  O237  1  0.12638046  0.50413397  0.75914454  1
  O  O238  1  0.11250666  0.99250371  0.24283012  1
  O  O239  1  0.13108334  0.98499743  0.74140741  1
  O  O240  1  0.63488661  0.48590460  0.24253218  1
  O  O241  1  0.63700397  0.50099692  0.73524894  1
  O  O242  1  0.63863191  1.01949875  0.26546593  1
  O  O243  1  0.64008320  1.03138539  0.73399599  1
  O  O244  1  0.37193436  -0.00103454  0.27582397  1
  O  O245  1  0.37927733  0.01492082  0.73918538  1
  O  O246  1  0.35821528  0.49052330  0.25741514  1
  O  O247  1  0.37552867  0.50939124  0.75796445  1
  O  O248  1  0.86754613  0.01862608  0.26617622  1
  O  O249  1  0.88259274  -0.01030200  0.77271271  1
  O  O250  1  0.86013384  0.49518100  0.25442734  1
  O  O251  1  0.84794513  0.50485759  0.73282901  1
  O  O252  1  0.11004735  0.38948068  0.35769746  1
  O  O253  1  0.11925502  0.37550971  0.87677820  1
  O  O254  1  0.10864268  0.88419672  0.36667976  1
  O  O255  1  0.14925127  0.88806876  0.86762911  1
  O  O256  1  0.61576205  0.36747766  0.36354583  1
  O  O257  1  0.61783074  0.36800950  0.86831603  1
  O  O258  1  0.61333751  0.86711304  0.38587719  1
  O  O259  1  0.62833974  0.85329608  0.87244773  1
  O  O260  1  0.39224195  0.10729844  0.11006429  1
  O  O261  1  0.35065884  0.11643883  0.64271539  1
  O  O262  1  0.39812150  0.61093194  0.13565884  1
  O  O263  1  0.38788104  0.62321996  0.63158352  1
  O  O264  1  0.88683234  0.12127729  0.14365491  1
  O  O265  1  0.80253550  0.24987996  0.62767888  1
  O  O266  1  0.87739523  0.63004723  0.13183429  1
  O  O267  1  0.89638758  0.62134182  0.59995752  1
  O  O268  1  0.24048151  0.28076703  0.10620300  1
  O  O269  1  0.25230712  0.27280791  0.63469748  1
  O  O270  1  0.25573218  0.77112307  0.13775823  1
  O  O271  1  0.25622454  0.74923646  0.61072827  1
  O  O272  1  0.74867809  0.26243941  0.11754206  1
  O  O273  1  0.73593358  0.27711949  0.62098473  1
  O  O274  1  0.74341745  0.72799792  0.10957345  1
  O  O275  1  0.73827826  0.76988707  0.61760246  1
  O  O276  1  0.22447388  0.28571998  0.37391058  1
  O  O277  1  0.22999688  0.26506958  0.88042589  1
  O  O278  1  0.26184657  0.73555345  0.38492616  1
  O  O279  1  0.26042446  0.73408371  0.87598431  1
  O  O280  1  0.73203879  0.25126392  0.36475337  1
  O  O281  1  0.74573463  0.26037658  0.89122955  1
  O  O282  1  0.73642655  0.73488233  0.38943457  1
  O  O283  1  0.74076027  0.73768146  0.87867081  1
  O  O284  1  0.00927419  0.12375418  0.01226488  1
  O  O285  1  -0.00481239  0.11301988  0.49710590  1
  O  O286  1  0.01421844  0.63414571  0.02240529  1
  O  O287  1  -0.00053705  0.61161216  0.47954825  1
  O  O288  1  0.51103520  0.10760254  0.01114706  1
  O  O289  1  0.49667670  0.16548069  0.53035580  1
  O  O290  1  0.51350117  0.61208547  -0.00089968  1
  O  O291  1  0.49379746  0.62075205  0.50868398  1
  O  O292  1  0.49775553  0.37408136  0.48051173  1
  O  O293  1  0.50841684  0.38794015  0.99153524  1
  O  O294  1  0.49965734  0.87715356  0.50907576  1
  O  O295  1  0.51282148  0.87639934  0.98446104  1
  O  O296  1  1.00096202  0.38714749  0.48014269  1
  O  O297  1  1.00093095  0.39866115  1.00025780  1
  O  O298  1  0.98905891  0.88713890  0.49335524  1
  O  O299  1  1.00462097  0.88926848  1.01741772  1
  O  O300  1  0.48675522  0.48664249  0.36300713  1
  O  O301  1  0.49936238  0.49057226  0.87561904  1
  O  O302  1  0.50423163  0.97181472  0.37258716  1
  O  O303  1  0.51099338  0.96650088  0.85310469  1
  O  O304  1  0.99194432  0.49419872  0.36567620  1
  O  O305  1  0.98962629  0.53906284  0.90075307  1
  O  O306  1  0.98792362  0.99509404  0.38686291  1
  O  O307  1  1.00907318  1.00183588  0.89845307  1
  O  O308  1  0.00992228  0.01764429  0.11891750  1
  O  O309  1  -0.00414667  -0.00209533  0.61391682  1
  O  O310  1  -0.00304372  0.52303489  0.11377230  1
  O  O311  1  0.00577036  0.49833066  0.60372295  1
  O  O312  1  0.50547293  -0.01874136  0.11443450  1
  O  O313  1  0.52228367  -0.01534981  0.63258844  1
  O  O314  1  0.51020546  0.50286812  0.11638377  1
  O  O315  1  0.51025523  0.51143070  0.63239142  1
  O  O316  1  0.23983623  0.38427099  0.22716972  1
  O  O317  1  0.25011594  0.40297991  0.73378567  1
  O  O318  1  0.22982963  0.87729432  0.25347897  1
  O  O319  1  0.25528858  0.87994071  0.72968933  1
  O  O320  1  0.74014863  0.37923164  0.23887465  1
  O  O321  1  0.75611714  0.37841714  0.75909514  1
  O  O322  1  0.75037224  0.89401356  0.24974564  1
  O  O323  1  0.76249070  0.86272192  0.74515776  1
  O  O324  1  0.20037512  0.12279363  0.31578335  1
  O  O325  1  0.27782195  0.13236802  0.76718815  1
  O  O326  1  0.25141715  0.61330062  0.25321543  1
  O  O327  1  0.25642337  0.62432599  0.75916829  1
  O  O328  1  0.76081953  0.12075320  0.24164798  1
  O  O329  1  0.80413677  0.11726899  0.67077456  1
  O  O330  1  0.74075768  0.60472445  0.24566700  1
  O  O331  1  0.74608507  0.62834919  0.75855248  1
  O  O332  1  0.42028844  0.10039729  0.37616388  1
  O  O333  1  0.41181404  0.10786918  0.84146832  1
  O  O334  1  0.36958051  0.61128166  0.36735996  1
  O  O335  1  0.37388598  0.61511317  0.86306614  1
  O  O336  1  0.88134181  0.12351601  0.36421642  1
  O  O337  1  0.88009845  0.10322162  0.87582354  1
  O  O338  1  0.85210453  0.61252306  0.38227110  1
  O  O339  1  0.85315949  0.62249813  0.87362849  1
  O  O340  1  0.12017707  0.38473312  0.12456623  1
  O  O341  1  0.14603236  0.39473265  0.61880837  1
  O  O342  1  0.12432792  0.88502463  0.14271803  1
  O  O343  1  0.14277980  0.87958795  0.62101084  1
  O  O344  1  0.62734280  0.37946148  0.13323684  1
  O  O345  1  0.60540061  0.37790300  0.63359414  1
  O  O346  1  0.65156276  0.85847920  0.12829386  1
  O  O347  1  0.63431499  0.88282245  0.63390832  1
  O  O348  1  0.11628620  0.27263648  0.23929792  1
  O  O349  1  0.12181087  0.23906629  0.76731596  1
  O  O350  1  0.12082599  0.76349879  0.25259882  1
  O  O351  1  0.14359689  0.77402965  0.74967698  1
  O  O352  1  0.62514121  0.26046347  0.25555668  1
  O  O353  1  0.65960668  0.22843208  0.76816663  1
  O  O354  1  0.62680677  0.74064270  0.28080449  1
  O  O355  1  0.61709550  0.73743424  0.76093169  1
  O  O356  1  0.29755547  0.20794647  0.24104855  1
  O  O357  1  0.38293871  0.22535041  0.75080559  1
  O  O358  1  0.38854802  0.76845606  0.24856265  1
  O  O359  1  0.37986718  0.73469598  0.73822088  1
  O  O360  1  0.88114982  0.24086644  0.25554073  1
  O  O361  1  0.89591651  0.23276797  0.76431802  1
  O  O362  1  0.85504327  0.74862333  0.25926335  1
  O  O363  1  0.92676191  0.76040640  0.80574531  1
  O  O364  1  0.36861217  0.49558116  0.47293502  1
  O  O365  1  0.38919761  0.51365265  0.98359468  1
  O  O366  1  0.37735703  1.03912306  0.48376835  1
  O  O367  1  0.40856793  0.99760254  0.98843525  1
  O  O368  1  0.88902497  0.49142589  0.48404587  1
  O  O369  1  0.88429787  0.50760920  1.00577197  1
  O  O370  1  0.88008428  0.99915476  0.49514113  1
  O  O371  1  0.89105029  1.00430284  0.99933883  1
  O  O372  1  0.11563496  0.01440476  0.01669506  1
  O  O373  1  0.10753377  -0.00129129  0.50442672  1
  O  O374  1  0.11133701  0.52144232  -0.00454296  1
  O  O375  1  0.11293328  0.50070232  0.48379109  1
  O  O376  1  0.61302031  0.00463332  -0.03072107  1
  O  O377  1  0.62328659  0.01717278  0.50617877  1
  O  O378  1  0.62266516  0.50155601  0.00527186  1
  O  O379  1  0.62695315  0.48664523  0.51967707  1
  O  O380  1  0.36965707  0.37428045  0.12136667  1
  O  O381  1  0.34525863  0.42189081  0.61091408  1
  O  O382  1  0.35137317  0.90114548  0.13952030  1
  O  O383  1  0.36986002  0.85301812  0.62756533  1
  O  O384  1  0.86404435  0.37579617  0.13292591  1
  O  O385  1  0.87925649  0.38783880  0.59975012  1
  O  O386  1  0.85129261  0.86093095  0.12389950  1
  O  O387  1  0.86015128  0.88377864  0.61478744  1
  O  O388  1  0.13870918  0.12586957  0.35651197  1
  O  O389  1  0.13140291  0.11651845  0.88953372  1
  O  O390  1  0.14272009  0.62427900  0.36368854  1
  O  O391  1  0.13601779  0.63396133  0.86454610  1
  O  O392  1  0.61348710  0.13642880  0.38830870  1
  O  O393  1  0.60917178  0.14311190  0.88337324  1
  O  O394  1  0.64103131  0.60897418  0.38459970  1
  O  O395  1  0.63021745  0.62842563  0.87988488  1
