# generated using pymatgen
data_V35Zn35O128
_symmetry_space_group_name_H-M   'P 1'
_cell_length_a   16.90983283
_cell_length_b   16.96292434
_cell_length_c   16.94647528
_cell_angle_alpha   89.95665062
_cell_angle_beta   89.84663105
_cell_angle_gamma   89.56798418
_symmetry_Int_Tables_number   1
_chemical_formula_structural   V35Zn35O128
_chemical_formula_sum   'V70 Zn70 O256'
_cell_volume   4860.77369889
_cell_formula_units_Z   2
loop_
 _symmetry_equiv_pos_site_id
 _symmetry_equiv_pos_as_xyz
  1  'x, y, z'
loop_
 _atom_site_type_symbol
 _atom_site_label
 _atom_site_symmetry_multiplicity
 _atom_site_fract_x
 _atom_site_fract_y
 _atom_site_fract_z
 _atom_site_occupancy
  V  V0  1  0.26533366  0.13359959  0.87048945  1
  V  V1  1  0.61619734  0.49069483  0.13431649  1
  V  V2  1  0.12055035  0.51294731  0.61660277  1
  V  V3  1  0.62033791  0.88903277  0.71374100  1
  V  V4  1  0.22382722  0.49568146  0.25502759  1
  V  V5  1  0.74643278  0.75391218  0.50131643  1
  V  V6  1  0.76674384  0.37426165  0.13136410  1
  V  V7  1  0.23853654  0.36291755  0.13186946  1
  V  V8  1  0.88295520  0.38154163  -0.02198665  1
  V  V9  1  0.26357905  0.86574608  0.11937823  1
  V  V10  1  0.37812802  0.24416050  0.63202785  1
  V  V11  1  0.10803334  0.24609475  0.37521635  1
  V  V12  1  -0.00645334  -0.00973134  -0.01627380  1
  V  V13  1  0.47575630  0.25345691  0.24653176  1
  V  V14  1  0.48537192  0.62621357  0.12641630  1
  V  V15  1  0.25016992  0.37257362  0.60458986  1
  V  V16  1  0.76425551  0.49788272  0.25698744  1
  V  V17  1  0.25114519  0.49586667  0.74929493  1
  V  V18  1  0.63212319  0.25299191  0.86152076  1
  V  V19  1  0.63150071  0.61963805  0.00633262  1
  V  V20  1  0.11344670  0.88599934  0.24749449  1
  V  V21  1  0.11556276  0.10312312  0.50449999  1
  V  V22  1  0.11386248  0.76891427  0.37040486  1
  V  V23  1  0.60546443  0.75828154  0.36694008  1
  V  V24  1  0.37741930  0.87897923  0.48018608  1
  V  V25  1  0.50945774  0.37722394  0.84395133  1
  V  V26  1  0.36410390  0.62800644  0.24796974  1
  V  V27  1  0.13685260  0.63642616  -0.00205056  1
  V  V28  1  -0.00527495  0.23909355  0.74734735  1
  V  V29  1  0.75748797  0.25917743  0.51063888  1
  V  V30  1  0.49060746  0.62962704  0.62603125  1
  V  V31  1  -0.01740408  0.71871561  0.75738173  1
  V  V32  1  0.49739065  0.47870190  0.00170961  1
  V  V33  1  0.39110864  -0.00845430  0.88722366  1
  V  V34  1  0.79193186  0.81110686  -0.05589221  1
  V  V35  1  0.24212464  0.75885394  0.49603603  1
  V  V36  1  0.62014476  0.24751593  0.38088271  1
  V  V37  1  0.28719188  0.01048399  0.24089736  1
  V  V38  1  0.36622903  0.62366411  0.75066058  1
  V  V39  1  0.23996136  0.63344689  0.37894388  1
  V  V40  1  0.12388512  0.36563214  0.76153805  1
  V  V41  1  0.48787500  0.37796815  0.37991614  1
  V  V42  1  0.01400281  0.49802586  -0.00097180  1
  V  V43  1  0.37061695  0.75559935  0.63098236  1
  V  V44  1  0.14413481  0.86617608  0.79002436  1
  V  V45  1  0.24185077  0.88351802  0.62549972  1
  V  V46  1  0.25389866  0.23145129  0.48699441  1
  V  V47  1  0.49245219  0.00225330  0.49691565  1
  V  V48  1  0.48528027  0.50088074  0.49790020  1
  V  V49  1  0.62293227  0.37173258  0.25721545  1
  V  V50  1  0.87128428  0.88572544  0.48333175  1
  V  V51  1  0.75512604  0.12162335  0.37586297  1
  V  V52  1  0.12061869  0.13585938  -0.00304822  1
  V  V53  1  0.37403046  0.49215648  0.87766855  1
  V  V54  1  0.62338617  0.11958378  0.51227509  1
  V  V55  1  0.62612287  0.49092501  0.62945120  1
  V  V56  1  -0.00697614  0.25646075  0.23654397  1
  V  V57  1  0.61530547  0.62484240  0.49420840  1
  V  V58  1  0.27710990  0.25165793  0.00394580  1
  V  V59  1  -0.00642818  0.63750850  0.12858132  1
  V  V60  1  0.86872171  0.10978821  0.74631743  1
  V  V61  1  0.91685196  0.40932884  0.48913498  1
  V  V62  1  0.25872629  0.00888818  0.74714955  1
  V  V63  1  0.11539765  0.00824156  0.12298348  1
  V  V64  1  0.36148696  0.50114986  0.37548904  1
  V  V65  1  0.75759833  0.62327892  0.36884843  1
  V  V66  1  0.87306940  0.12918599  0.23114586  1
  V  V67  1  0.75530528  0.25059846  0.00529793  1
  V  V68  1  0.61075375  0.74529299  0.88055232  1
  V  V69  1  0.73137404  0.00611158  0.23466307  1
  Zn  Zn70  1  0.48968972  0.75992334  0.24651971  1
  Zn  Zn71  1  0.49630157  0.11320544  0.64195861  1
  Zn  Zn72  1  0.30060623  0.69900768  0.06085369  1
  Zn  Zn73  1  0.90823469  0.55132573  0.83203214  1
  Zn  Zn74  1  0.84506176  0.73743695  0.10562660  1
  Zn  Zn75  1  0.75385074  0.11518113  0.87322968  1
  Zn  Zn76  1  0.18682336  0.18241089  0.19289678  1
  Zn  Zn77  1  0.15904913  0.20190757  0.66482152  1
  Zn  Zn78  1  0.16937755  0.68905851  0.18953834  1
  Zn  Zn79  1  0.15351413  0.71224440  0.67521119  1
  Zn  Zn80  1  0.63906308  0.15096044  0.20766105  1
  Zn  Zn81  1  0.69314318  0.18634195  0.68755655  1
  Zn  Zn82  1  0.67978399  0.67866093  0.19085150  1
  Zn  Zn83  1  0.67100599  0.69823952  0.68657871  1
  Zn  Zn84  1  0.29952092  0.31814376  0.31956405  1
  Zn  Zn85  1  0.31142321  0.31650817  0.81059069  1
  Zn  Zn86  1  0.30434916  0.81826096  0.30006396  1
  Zn  Zn87  1  0.31763523  0.81306699  0.82026082  1
  Zn  Zn88  1  0.82086520  0.31007019  0.33000367  1
  Zn  Zn89  1  0.83869595  0.27463168  0.82827498  1
  Zn  Zn90  1  0.78216587  0.82494518  0.31999345  1
  Zn  Zn91  1  0.78871569  0.78165139  0.78615950  1
  Zn  Zn92  1  0.12227238  0.43113624  0.43785040  1
  Zn  Zn93  1  0.19141891  0.42998766  0.94092639  1
  Zn  Zn94  1  0.20505860  0.95047225  0.41885025  1
  Zn  Zn95  1  0.20327159  0.95141952  0.94565531  1
  Zn  Zn96  1  0.68305227  0.43914030  0.44206146  1
  Zn  Zn97  1  0.66829243  0.40500319  0.96122477  1
  Zn  Zn98  1  0.67759168  0.94004454  0.43558178  1
  Zn  Zn99  1  0.69945575  0.93409290  0.86970246  1
  Zn  Zn100  1  0.30196523  0.05076466  0.05292548  1
  Zn  Zn101  1  0.31591065  0.06329488  0.56176539  1
  Zn  Zn102  1  0.30667133  0.52512938  0.07427579  1
  Zn  Zn103  1  0.29717537  0.56824842  0.56192951  1
  Zn  Zn104  1  0.78351366  0.02035221  0.03031030  1
  Zn  Zn105  1  0.94895605  0.03773062  0.58304765  1
  Zn  Zn106  1  0.83757672  0.58720372  0.00625720  1
  Zn  Zn107  1  0.80535446  0.55622354  0.55321518  1
  Zn  Zn108  1  0.43649241  0.40068546  0.16150288  1
  Zn  Zn109  1  0.42952201  0.43605227  0.67597823  1
  Zn  Zn110  1  0.44593171  0.93521193  0.13813279  1
  Zn  Zn111  1  0.43786762  0.93772924  0.69062712  1
  Zn  Zn112  1  0.95326708  0.44477292  0.18704504  1
  Zn  Zn113  1  0.94528649  0.42100098  0.66871014  1
  Zn  Zn114  1  0.92169696  0.95433829  0.30968611  1
  Zn  Zn115  1  0.96742095  0.95386841  0.77061780  1
  Zn  Zn116  1  0.06188302  0.07320743  0.31317013  1
  Zn  Zn117  1  0.07704295  0.07048861  0.81643601  1
  Zn  Zn118  1  0.05605289  0.58601571  0.30828252  1
  Zn  Zn119  1  0.07816762  0.56057209  0.81913555  1
  Zn  Zn120  1  0.53032973  0.06584010  0.31534012  1
  Zn  Zn121  1  0.57652890  0.05935093  0.81178831  1
  Zn  Zn122  1  0.55437459  0.56259782  0.31201930  1
  Zn  Zn123  1  0.57203707  0.58028402  0.80503115  1
  Zn  Zn124  1  0.43258713  0.18217714  0.43362748  1
  Zn  Zn125  1  0.44724931  0.18953541  0.80964345  1
  Zn  Zn126  1  0.42666667  0.69082848  0.43676216  1
  Zn  Zn127  1  0.44142807  0.66877796  0.93721112  1
  Zn  Zn128  1  0.93787213  0.17497388  0.44848061  1
  Zn  Zn129  1  0.94480385  0.18916551  0.93072286  1
  Zn  Zn130  1  0.93232426  0.70439416  0.42926903  1
  Zn  Zn131  1  0.95159986  0.69502526  0.93800581  1
  Zn  Zn132  1  0.06153941  0.31428232  0.06372772  1
  Zn  Zn133  1  0.06340997  0.31205785  0.56400076  1
  Zn  Zn134  1  0.06489857  0.81348463  0.06118791  1
  Zn  Zn135  1  0.02138105  0.85543334  0.62208847  1
  Zn  Zn136  1  0.56806367  0.28752660  0.07178560  1
  Zn  Zn137  1  0.55984206  0.31347003  0.56338245  1
  Zn  Zn138  1  0.65679677  0.81414807  0.07840918  1
  Zn  Zn139  1  0.55839668  0.81407648  0.55916400  1
  O  O140  1  0.13612000  0.11508843  0.11062477  1
  O  O141  1  0.13946408  0.11150240  0.60379988  1
  O  O142  1  0.10567608  0.62925581  0.11798369  1
  O  O143  1  0.14154889  0.61066886  0.63207089  1
  O  O144  1  0.60404826  0.16919606  0.09652279  1
  O  O145  1  0.62110679  0.13345074  0.61285158  1
  O  O146  1  0.60413822  0.60714924  0.12788303  1
  O  O147  1  0.60728083  0.62600805  0.60995695  1
  O  O148  1  0.37620517  0.38990886  0.37140753  1
  O  O149  1  0.39360918  0.38468683  0.86272844  1
  O  O150  1  0.37498457  0.86748775  0.38267007  1
  O  O151  1  0.37725411  0.89217995  0.87653956  1
  O  O152  1  0.87886473  0.37443900  0.40120781  1
  O  O153  1  0.87464466  0.37603149  0.87954781  1
  O  O154  1  0.87177569  0.87251449  0.37704631  1
  O  O155  1  0.81322521  0.87175876  0.86334759  1
  O  O156  1  0.27156992  -0.00169882  0.34117909  1
  O  O157  1  0.27006977  0.01788765  0.87741638  1
  O  O158  1  0.25024624  0.51620872  0.37651236  1
  O  O159  1  0.26805133  0.48509245  0.86811121  1
  O  O160  1  0.73244225  0.02174930  0.37353883  1
  O  O161  1  0.74216112  0.01814384  0.92598316  1
  O  O162  1  0.74235347  0.51037417  0.36766572  1
  O  O163  1  0.76265507  0.49280181  0.81588527  1
  O  O164  1  0.21765603  0.50993245  0.15704161  1
  O  O165  1  0.25336446  0.48641106  0.63049568  1
  O  O166  1  0.24663319  0.98791914  0.12882209  1
  O  O167  1  0.26135155  0.99829503  0.64093611  1
  O  O168  1  0.73579608  0.48726191  0.14829126  1
  O  O169  1  0.72416540  0.50313513  0.60836409  1
  O  O170  1  0.73921801  1.01077350  0.13405777  1
  O  O171  1  0.78613723  0.93838605  0.64925013  1
  O  O172  1  -0.00673396  0.35709455  0.24921466  1
  O  O173  1  0.02029521  0.36387616  0.73975362  1
  O  O174  1  0.01591026  0.89178169  0.25507728  1
  O  O175  1  0.04391604  0.87054499  0.77009640  1
  O  O176  1  0.50226421  0.37347649  0.26553981  1
  O  O177  1  0.50391994  0.38125445  0.74598363  1
  O  O178  1  0.52824922  0.86781935  0.20435986  1
  O  O179  1  0.52259368  0.86996804  0.73362390  1
  O  O180  1  0.51157171  0.15883508  0.24062042  1
  O  O181  1  0.52124251  0.13329655  0.74787859  1
  O  O182  1  0.48099581  0.61114723  0.23666210  1
  O  O183  1  0.48178488  0.61739981  0.73219791  1
  O  O184  1  0.97847245  0.13136592  0.25027557  1
  O  O185  1  0.99449655  0.12975679  0.75688125  1
  O  O186  1  0.98864000  0.62397368  0.23031961  1
  O  O187  1  0.98839077  0.61333405  0.76167974  1
  O  O188  1  0.37173765  0.25013591  0.01297261  1
  O  O189  1  0.35925360  0.24232026  0.50190201  1
  O  O190  1  0.35397781  0.74276185  -0.03215478  1
  O  O191  1  0.36519056  0.76492743  0.50582968  1
  O  O192  1  0.86544393  0.26961241  -0.00478960  1
  O  O193  1  0.85528845  0.23819930  0.49731299  1
  O  O194  1  0.87480760  0.77221290  -0.00518043  1
  O  O195  1  0.84828152  0.74242380  0.49427304  1
  O  O196  1  0.13478358  0.23891761  0.49362245  1
  O  O197  1  0.12588579  0.23639330  1.00717692  1
  O  O198  1  0.14020489  0.77306824  0.48084190  1
  O  O199  1  0.13053124  0.73614630  1.00169119  1
  O  O200  1  0.61903194  0.24391895  0.49303917  1
  O  O201  1  0.64589152  0.28623957  0.98899034  1
  O  O202  1  0.62224389  0.74267213  0.48545174  1
  O  O203  1  0.61778568  0.72647065  0.99954065  1
  O  O204  1  0.48068112  0.28894591  0.14647391  1
  O  O205  1  0.47780315  0.25411170  0.61409240  1
  O  O206  1  0.49358661  0.72388532  0.12530611  1
  O  O207  1  0.48321605  0.74020959  0.61361572  1
  O  O208  1  1.00158191  0.24914414  0.13783047  1
  O  O209  1  1.04052496  0.23975576  0.64773934  1
  O  O210  1  0.99203538  0.74122519  0.11507853  1
  O  O211  1  1.03745796  0.74825117  0.67058452  1
  O  O212  1  0.00624028  0.24550739  0.38267127  1
  O  O213  1  0.00444105  0.25234843  0.84952150  1
  O  O214  1  0.01494086  0.76155622  0.37820064  1
  O  O215  1  0.00969561  0.74275612  0.85202114  1
  O  O216  1  0.49990922  0.26285833  0.36975763  1
  O  O217  1  0.51586324  0.26952514  0.86649497  1
  O  O218  1  0.50056098  0.75048517  0.37231409  1
  O  O219  1  0.51024696  0.73824089  0.88373815  1
  O  O220  1  0.24674897  0.12930588  0.49560903  1
  O  O221  1  0.25221895  0.13993116  0.99695973  1
  O  O222  1  0.25261471  0.64530423  0.48892857  1
  O  O223  1  0.23840315  0.60856615  1.02585765  1
  O  O224  1  0.72829642  0.13722369  0.48762397  1
  O  O225  1  0.75484707  0.15349006  1.00775548  1
  O  O226  1  0.73554102  0.62945847  0.48285416  1
  O  O227  1  0.72756022  0.60797310  1.02693078  1
  O  O228  1  0.24528939  0.35558471  0.01047177  1
  O  O229  1  0.24320623  0.36615616  0.50568750  1
  O  O230  1  0.24802799  0.87845092  0.02118144  1
  O  O231  1  0.26435750  0.87980293  0.50397637  1
  O  O232  1  0.76902513  0.38686784  0.01787994  1
  O  O233  1  0.74217393  0.35917661  0.49256941  1
  O  O234  1  0.73261995  0.86607261  0.00713211  1
  O  O235  1  0.75367715  0.86196561  0.48551163  1
  O  O236  1  0.12731100  0.49822325  0.28818207  1
  O  O237  1  0.13700934  0.49179724  0.74256966  1
  O  O238  1  0.12658653  1.00217115  0.23492035  1
  O  O239  1  0.15364582  0.98852017  0.77197220  1
  O  O240  1  0.61996452  0.48674849  0.25071421  1
  O  O241  1  0.61707285  0.51201272  0.72750875  1
  O  O242  1  0.62796539  1.03917141  0.24733048  1
  O  O243  1  0.64729848  0.97663051  0.76751898  1
  O  O244  1  0.38714584  -0.00427404  0.21629793  1
  O  O245  1  0.36409057  -0.00005139  0.76221945  1
  O  O246  1  0.35126937  0.51290581  0.26359796  1
  O  O247  1  0.36897388  0.50163808  0.75272630  1
  O  O248  1  0.84839171  0.02302949  0.25143561  1
  O  O249  1  0.87270774  0.01439975  0.77756930  1
  O  O250  1  0.86196528  0.49503422  0.25163398  1
  O  O251  1  0.87649565  0.48289285  0.74277049  1
  O  O252  1  0.13367757  0.34482705  0.36988071  1
  O  O253  1  0.12842084  0.38366418  0.85950187  1
  O  O254  1  0.13737799  0.87643975  0.35871465  1
  O  O255  1  0.15478202  0.86809071  0.88826445  1
  O  O256  1  0.61185984  0.37116815  0.37289749  1
  O  O257  1  0.61351500  0.38126887  0.86487890  1
  O  O258  1  0.62459621  0.85596459  0.37499258  1
  O  O259  1  0.62251307  0.84490053  0.87412740  1
  O  O260  1  0.50120982  0.07868565  0.11564186  1
  O  O261  1  0.37366545  0.14003817  0.62424434  1
  O  O262  1  0.37354686  0.61608206  0.12775054  1
  O  O263  1  0.37208596  0.63463019  0.62743157  1
  O  O264  1  0.86416352  0.13408038  0.13624323  1
  O  O265  1  0.88121644  0.10837820  0.64653727  1
  O  O266  1  0.88639999  0.63032337  0.10190929  1
  O  O267  1  0.83478113  0.62643115  0.65129288  1
  O  O268  1  0.25261258  0.25887318  0.12535366  1
  O  O269  1  0.25355432  0.25790318  0.61183537  1
  O  O270  1  0.24186321  0.76096946  0.13478905  1
  O  O271  1  0.25297689  0.76199819  0.61250610  1
  O  O272  1  0.74522623  0.27301247  0.11554310  1
  O  O273  1  0.73981726  0.25089141  0.60854469  1
  O  O274  1  0.73718046  0.75611021  0.13752727  1
  O  O275  1  0.72966521  0.74357461  0.59791609  1
  O  O276  1  0.24648079  0.24281083  0.38487242  1
  O  O277  1  0.26605351  0.24376251  0.89037170  1
  O  O278  1  0.24932611  0.74967411  0.37863439  1
  O  O279  1  0.29583454  0.73776639  0.90872273  1
  O  O280  1  0.73533931  0.24325870  0.38177257  1
  O  O281  1  0.74172838  0.26953369  0.89054990  1
  O  O282  1  0.72987322  0.73496918  0.37230234  1
  O  O283  1  0.73779086  0.73774356  0.89539315  1
  O  O284  1  0.01757827  0.12027795  -0.01160243  1
  O  O285  1  0.00794488  0.10821892  0.51059758  1
  O  O286  1  0.01779799  0.61610330  0.00442348  1
  O  O287  1  0.00450408  0.61316787  0.46856203  1
  O  O288  1  0.53078291  0.12729372  0.06830829  1
  O  O289  1  0.50735272  0.11537092  0.50425010  1
  O  O290  1  0.49855809  0.60423730  0.01695346  1
  O  O291  1  0.49630446  0.61981380  0.50308443  1
  O  O292  1  0.49871907  0.38858955  0.48803722  1
  O  O293  1  0.50248479  0.37940035  1.00463145  1
  O  O294  1  0.48152104  0.88295551  0.50593050  1
  O  O295  1  0.53033486  0.91049260  1.05725371  1
  O  O296  1  1.02261046  0.38981803  0.48958116  1
  O  O297  1  0.99016779  0.38237387  1.00501393  1
  O  O298  1  0.95602849  0.84701071  0.52352143  1
  O  O299  1  1.01184197  0.89272162  0.99811167  1
  O  O300  1  0.48364591  0.49769994  0.37996727  1
  O  O301  1  0.49575519  0.48605415  0.88067346  1
  O  O302  1  0.51747274  0.98556293  0.39974506  1
  O  O303  1  0.48783375  1.00962254  0.86635638  1
  O  O304  1  1.01091454  0.55687248  0.41659216  1
  O  O305  1  1.00154244  0.50580678  0.89337797  1
  O  O306  1  0.99657715  1.00537090  0.37233514  1
  O  O307  1  1.00627027  1.00099397  0.87964456  1
  O  O308  1  0.01774887  0.00608574  0.10961743  1
  O  O309  1  -0.01888768  -0.04313216  0.65405171  1
  O  O310  1  -0.00669076  0.51314285  0.10750624  1
  O  O311  1  0.02217602  0.49949795  0.62766050  1
  O  O312  1  0.54139101  -0.02778829  0.00445446  1
  O  O313  1  0.48682619  0.00285967  0.60861035  1
  O  O314  1  0.50129349  0.49070375  0.12188391  1
  O  O315  1  0.49512104  0.50983935  0.61157675  1
  O  O316  1  0.24462675  0.38624489  0.24444965  1
  O  O317  1  0.24535143  0.38365241  0.74375202  1
  O  O318  1  0.24657618  0.89092546  0.23445212  1
  O  O319  1  0.25435178  0.88970508  0.74482880  1
  O  O320  1  0.74471335  0.38197492  0.25364966  1
  O  O321  1  0.79286819  0.45566322  0.75873351  1
  O  O322  1  0.73525223  0.90875991  0.25980592  1
  O  O323  1  0.69342994  0.81488228  0.73175020  1
  O  O324  1  0.26791180  0.10914293  0.22481190  1
  O  O325  1  0.24548936  0.11777672  0.76559566  1
  O  O326  1  0.24546494  0.62175884  0.26033250  1
  O  O327  1  0.26124365  0.60643833  0.74736926  1
  O  O328  1  0.75055924  0.13325760  0.26311951  1
  O  O329  1  0.76202222  0.12572704  0.75286790  1
  O  O330  1  0.74080566  0.60755433  0.25989891  1
  O  O331  1  0.78374894  0.63107689  0.70746988  1
  O  O332  1  0.42748257  0.09914964  0.36018149  1
  O  O333  1  0.36896043  0.12572828  0.87111634  1
  O  O334  1  0.36151677  0.62130291  0.36825915  1
  O  O335  1  0.38746046  0.60131061  0.85970552  1
  O  O336  1  0.85524280  0.12550430  0.38050655  1
  O  O337  1  0.86283935  0.15969890  0.85797710  1
  O  O338  1  0.85521061  0.63549868  0.36912489  1
  O  O339  1  0.86728216  0.62598971  0.90353768  1
  O  O340  1  0.13910985  0.37529360  0.12390509  1
  O  O341  1  0.14228518  0.38262692  0.63208186  1
  O  O342  1  0.12706324  0.88720427  0.13481363  1
  O  O343  1  0.14275332  0.87799594  0.62302980  1
  O  O344  1  0.62872726  0.37878268  0.14041598  1
  O  O345  1  0.61136182  0.39230300  0.62142056  1
  O  O346  1  0.60285412  0.86718892  0.17913759  1
  O  O347  1  0.62336584  0.89163575  0.61195106  1
  O  O348  1  0.10529360  0.22767623  0.26367390  1
  O  O349  1  0.14601656  0.26518664  0.75866974  1
  O  O350  1  0.12601006  0.77310426  0.25911462  1
  O  O351  1  0.17351003  0.76893634  0.76999739  1
  O  O352  1  0.62194649  0.26361742  0.26124659  1
  O  O353  1  0.64798802  0.26232024  0.76425537  1
  O  O354  1  0.60822942  0.73316990  0.26489032  1
  O  O355  1  0.62391501  0.69027702  0.78849530  1
  O  O356  1  0.37746554  0.25255024  0.26247408  1
  O  O357  1  0.37314423  0.25037941  0.73765118  1
  O  O358  1  0.37423690  0.73318899  0.25437377  1
  O  O359  1  0.36173990  0.73928303  0.73839479  1
  O  O360  1  0.88287483  0.24209559  0.25902890  1
  O  O361  1  0.89386180  0.25341913  0.72938870  1
  O  O362  1  0.86589756  0.79983909  0.21830290  1
  O  O363  1  0.88709432  0.75143007  0.74395624  1
  O  O364  1  0.37699401  0.51211980  0.49009774  1
  O  O365  1  0.38126676  0.50032062  0.98224867  1
  O  O366  1  0.37990230  0.99080080  0.49353433  1
  O  O367  1  0.38398633  1.00791520  0.99057579  1
  O  O368  1  0.88752093  0.50787675  0.49781257  1
  O  O369  1  0.88577868  0.48377480  0.99657500  1
  O  O370  1  0.87360003  0.98208229  0.50423242  1
  O  O371  1  0.89654205  1.00500654  1.00376849  1
  O  O372  1  0.12683836  0.01244418  0.00798354  1
  O  O373  1  0.13674406  0.00626792  0.48886519  1
  O  O374  1  0.11599509  0.49158916  0.00291696  1
  O  O375  1  0.14353758  0.50508899  0.51670099  1
  O  O376  1  0.61255691  -0.00848189  -0.00932559  1
  O  O377  1  0.61944872  0.01518177  0.50450275  1
  O  O378  1  0.61545913  0.49482888  0.01885802  1
  O  O379  1  0.60586473  0.50975887  0.50093383  1
  O  O380  1  0.33319396  0.41690513  0.11756615  1
  O  O381  1  0.35822305  0.36277469  0.62304870  1
  O  O382  1  0.36420503  0.85730229  0.12454769  1
  O  O383  1  0.36471265  0.86627531  0.62630922  1
  O  O384  1  0.86510991  0.37834992  0.13682446  1
  O  O385  1  0.89338484  0.37043197  0.58096319  1
  O  O386  1  0.88550191  0.86866091  0.19457070  1
  O  O387  1  0.83044632  0.88397225  0.62867439  1
  O  O388  1  0.12314404  0.13402384  0.39197764  1
  O  O389  1  0.14930106  0.12350259  0.89208474  1
  O  O390  1  0.13292686  0.65599286  0.36432577  1
  O  O391  1  0.13842230  0.61470457  0.89860748  1
  O  O392  1  0.61736494  0.14083241  0.38131815  1
  O  O393  1  0.63240242  0.15093023  0.87546952  1
  O  O394  1  0.61733057  0.62831055  0.38393770  1
  O  O395  1  0.61886603  0.60241740  0.90787644  1
