# generated using pymatgen
data_V35Zn35O128
_symmetry_space_group_name_H-M   'P 1'
_cell_length_a   16.85245506
_cell_length_b   16.85159261
_cell_length_c   16.88181041
_cell_angle_alpha   89.76360857
_cell_angle_beta   90.15924531
_cell_angle_gamma   90.07011071
_symmetry_Int_Tables_number   1
_chemical_formula_structural   V35Zn35O128
_chemical_formula_sum   'V70 Zn70 O256'
_cell_volume   4794.21443281
_cell_formula_units_Z   2
loop_
 _symmetry_equiv_pos_site_id
 _symmetry_equiv_pos_as_xyz
  1  'x, y, z'
loop_
 _atom_site_type_symbol
 _atom_site_label
 _atom_site_symmetry_multiplicity
 _atom_site_fract_x
 _atom_site_fract_y
 _atom_site_fract_z
 _atom_site_occupancy
  V  V0  1  -0.00178720  0.25295431  0.78031405  1
  V  V1  1  0.50723655  0.13230075  0.62807942  1
  V  V2  1  0.39168460  0.87760193  -0.00041342  1
  V  V3  1  0.25403700  0.37643245  0.13639020  1
  V  V4  1  0.87981464  0.73296516  0.62406108  1
  V  V5  1  0.01220822  0.00511988  0.01514338  1
  V  V6  1  0.23752807  0.86903463  0.11023503  1
  V  V7  1  0.74936722  0.37501633  0.12744433  1
  V  V8  1  0.13589530  0.62982980  0.00830884  1
  V  V9  1  0.25181448  0.51014579  0.75619977  1
  V  V10  1  0.49251271  0.00264958  0.49707606  1
  V  V11  1  0.24381389  0.37959164  0.62222585  1
  V  V12  1  0.81570955  0.68404618  0.31159280  1
  V  V13  1  0.48805884  0.38298078  0.87569106  1
  V  V14  1  0.87661910  0.37506208  -0.00456136  1
  V  V15  1  0.37187109  0.25915317  0.62002976  1
  V  V16  1  0.36815972  0.51560477  0.89214590  1
  V  V17  1  0.13848488  0.26374408  0.36954988  1
  V  V18  1  0.62553513  -0.00014211  0.62309997  1
  V  V19  1  0.61769328  0.87899200  0.26441367  1
  V  V20  1  0.38870558  0.23636894  0.12295592  1
  V  V21  1  0.50462172  0.62073197  0.11686716  1
  V  V22  1  0.25499960  0.50564911  0.26644441  1
  V  V23  1  0.12665294  0.63116559  0.48889628  1
  V  V24  1  0.00962272  0.61529830  0.63494406  1
  V  V25  1  0.87781898  0.23529907  0.13536033  1
  V  V26  1  0.00548296  0.23330369  0.24838047  1
  V  V27  1  -0.00326025  0.86627629  0.87890968  1
  V  V28  1  0.24449352  0.00216045  0.74508401  1
  V  V29  1  0.75323423  0.87256705  0.60782719  1
  V  V30  1  0.49536693  0.49554504  0.47931681  1
  V  V31  1  0.25226010  0.86078322  0.62456021  1
  V  V32  1  0.76169452  0.00938393  0.25651676  1
  V  V33  1  0.50424278  0.23627568  0.26729398  1
  V  V34  1  -0.02260010  0.87365853  0.37411255  1
  V  V35  1  0.26000244  0.64371457  0.37786848  1
  V  V36  1  0.62566705  0.25900386  0.87280911  1
  V  V37  1  -0.02463510  0.62227049  0.12849184  1
  V  V38  1  0.12834463  0.74266030  0.87116926  1
  V  V39  1  0.01060957  -0.00444057  0.50939436  1
  V  V40  1  0.49127288  0.61622775  0.62466072  1
  V  V41  1  0.63116915  0.63623573  0.49019990  1
  V  V42  1  0.62295962  0.86159333  0.76203926  1
  V  V43  1  0.74688519  0.23357533  -0.00276904  1
  V  V44  1  0.75295946  0.36538149  0.62108978  1
  V  V45  1  0.37071266  0.87238984  0.49881481  1
  V  V46  1  -0.01479625  0.38130051  0.36490329  1
  V  V47  1  0.50191652  0.74814228  0.26427815  1
  V  V48  1  0.75032252  0.86402837  0.13562604  1
  V  V49  1  0.74485153  0.01123140  0.75915808  1
  V  V50  1  0.01808556  0.14190205  0.63548240  1
  V  V51  1  0.23759215  0.12395194  0.88461470  1
  V  V52  1  0.86629129  0.86250946  0.00780339  1
  V  V53  1  0.25713903  0.25467242  -0.00270455  1
  V  V54  1  0.38801758  -0.00533178  0.87681467  1
  V  V55  1  -0.00536362  0.49515744  0.49595799  1
  V  V56  1  0.47588424  0.75419155  0.74053254  1
  V  V57  1  0.37669402  0.74807691  0.12994007  1
  V  V58  1  -0.00950122  0.50068408  -0.00936191  1
  V  V59  1  0.61359858  0.00983895  0.11355312  1
  V  V60  1  0.24466121  0.00600325  0.23730137  1
  V  V61  1  0.37794403  0.13585158  0.75625580  1
  V  V62  1  0.24377961  0.12318261  0.39437656  1
  V  V63  1  0.12583771  0.37102649  0.77639189  1
  V  V64  1  -0.00351650  0.73695255  0.25458586  1
  V  V65  1  0.12872734  0.86370411  0.25984154  1
  V  V66  1  0.76047735  0.49821090  0.26848457  1
  V  V67  1  0.11247381  0.87714885  0.74508755  1
  V  V68  1  0.86967501  0.00929869  0.88028103  1
  V  V69  1  0.61541831  0.37382753  0.26068235  1
  Zn  Zn70  1  0.61933415  0.50112733  0.11890144  1
  Zn  Zn71  1  0.30877670  0.69382161  -0.05565887  1
  Zn  Zn72  1  0.11725431  0.48394870  0.13408913  1
  Zn  Zn73  1  0.66472168  0.64540814  -0.02076840  1
  Zn  Zn74  1  0.37892762  0.00998810  0.36189145  1
  Zn  Zn75  1  0.37151748  0.38488403  0.47625392  1
  Zn  Zn76  1  0.18140337  0.19478607  0.17587523  1
  Zn  Zn77  1  0.18809194  0.19425256  0.69588848  1
  Zn  Zn78  1  0.18873069  0.68431208  0.19083662  1
  Zn  Zn79  1  0.18110474  0.68734161  0.68369316  1
  Zn  Zn80  1  0.68270128  0.18434294  0.18991154  1
  Zn  Zn81  1  0.68948746  0.19175215  0.46744363  1
  Zn  Zn82  1  0.67984931  0.68557449  0.19664189  1
  Zn  Zn83  1  0.67948058  0.69179187  0.66980304  1
  Zn  Zn84  1  0.32065586  0.30374159  0.30456942  1
  Zn  Zn85  1  0.31035947  0.31806922  0.81723649  1
  Zn  Zn86  1  0.31736099  0.82246727  0.31293226  1
  Zn  Zn87  1  0.30518587  0.81809115  0.81399326  1
  Zn  Zn88  1  0.81276730  0.30990477  0.30988027  1
  Zn  Zn89  1  0.81124275  0.30997720  0.81459650  1
  Zn  Zn90  1  0.76003669  0.86310594  0.39478353  1
  Zn  Zn91  1  0.83642987  0.85056191  0.78153635  1
  Zn  Zn92  1  0.18317764  0.44458862  0.44404588  1
  Zn  Zn93  1  0.18669330  0.44553676  0.94545263  1
  Zn  Zn94  1  0.18788927  0.93762213  0.43610930  1
  Zn  Zn95  1  0.18772038  0.93750255  0.93238937  1
  Zn  Zn96  1  0.67059644  0.44064654  0.44196392  1
  Zn  Zn97  1  0.64884858  0.43634844  0.94964843  1
  Zn  Zn98  1  0.70348815  1.03148104  0.44460443  1
  Zn  Zn99  1  0.68505865  0.92979961  0.94198067  1
  Zn  Zn100  1  0.31494884  0.05725111  0.06388725  1
  Zn  Zn101  1  0.31170107  0.06606663  0.56871833  1
  Zn  Zn102  1  0.31965946  0.55719178  0.07702787  1
  Zn  Zn103  1  0.31369773  0.56295212  0.56137104  1
  Zn  Zn104  1  0.81042197  0.05085418  0.07019562  1
  Zn  Zn105  1  0.85314341  0.09488433  0.54410242  1
  Zn  Zn106  1  0.78531320  0.54819101  0.05148666  1
  Zn  Zn107  1  0.81490321  0.55916839  0.55518852  1
  Zn  Zn108  1  0.43135891  0.43368411  0.18897672  1
  Zn  Zn109  1  0.43782695  0.44344285  0.70247422  1
  Zn  Zn110  1  0.43693126  0.93916169  0.18813240  1
  Zn  Zn111  1  0.43657270  0.93681251  0.68950312  1
  Zn  Zn112  1  0.93429362  0.43618753  0.18596891  1
  Zn  Zn113  1  0.94370253  0.42907330  0.68539779  1
  Zn  Zn114  1  0.94203474  0.93737100  0.19487143  1
  Zn  Zn115  1  0.92043654  0.98151552  0.66883702  1
  Zn  Zn116  1  0.07380316  0.04796257  0.32762785  1
  Zn  Zn117  1  0.05578792  0.06074848  0.81759191  1
  Zn  Zn118  1  0.07270728  0.55613813  0.31232703  1
  Zn  Zn119  1  0.06854159  0.55467599  0.81729026  1
  Zn  Zn120  1  0.57898581  0.06738792  0.31691378  1
  Zn  Zn121  1  0.56561303  0.06722491  0.81130741  1
  Zn  Zn122  1  0.56494071  0.56376725  0.30862199  1
  Zn  Zn123  1  0.51164016  0.60726449  0.83949979  1
  Zn  Zn124  1  0.42961307  0.18626013  0.44053058  1
  Zn  Zn125  1  0.44275584  0.19246061  0.93730438  1
  Zn  Zn126  1  0.43711484  0.68481694  0.44877232  1
  Zn  Zn127  1  0.49839325  0.73456934  0.95615313  1
  Zn  Zn128  1  1.01085765  0.18906203  0.45161848  1
  Zn  Zn129  1  0.93650928  0.18494533  0.94734672  1
  Zn  Zn130  1  0.94016410  0.69453554  0.45059057  1
  Zn  Zn131  1  0.88110359  0.66243838  0.95037694  1
  Zn  Zn132  1  0.06229313  0.31058270  0.06286367  1
  Zn  Zn133  1  0.07116507  0.31815293  0.55531026  1
  Zn  Zn134  1  0.04924462  0.80429959  0.06159375  1
  Zn  Zn135  1  0.05419788  0.80847353  0.56156495  1
  Zn  Zn136  1  0.56145006  0.31909292  0.05160504  1
  Zn  Zn137  1  0.55729344  0.31703309  0.56482433  1
  Zn  Zn138  1  0.57775118  0.80867732  0.07412250  1
  Zn  Zn139  1  0.55997623  0.81302306  0.55998309  1
  O  O140  1  0.12847047  0.16963924  0.07378334  1
  O  O141  1  0.11770375  0.11762009  0.65008212  1
  O  O142  1  0.11984075  0.62650845  0.11136200  1
  O  O143  1  0.11452148  0.62180305  0.61509809  1
  O  O144  1  0.62669662  0.11018974  0.12493681  1
  O  O145  1  0.60791219  0.11586432  0.63434130  1
  O  O146  1  0.61090544  0.62823138  0.12488419  1
  O  O147  1  0.60546180  0.63019162  0.61140123  1
  O  O148  1  0.38426537  0.36398836  0.36894741  1
  O  O149  1  0.38461047  0.37694487  0.88298618  1
  O  O150  1  0.35679560  0.89364912  0.39512133  1
  O  O151  1  0.36819446  0.88480325  0.88737124  1
  O  O152  1  0.88759877  0.36819898  0.37658045  1
  O  O153  1  0.86508171  0.37035426  0.89782315  1
  O  O154  1  0.87996656  0.86203254  0.37839334  1
  O  O155  1  0.87808283  0.87588141  0.88784377  1
  O  O156  1  0.24230801  0.01651392  0.35955501  1
  O  O157  1  0.25796442  0.01005413  0.86902495  1
  O  O158  1  0.25274306  0.50024143  0.36832215  1
  O  O159  1  0.25590903  0.49749919  0.86939032  1
  O  O160  1  0.75602414  -0.02076792  0.35988886  1
  O  O161  1  0.75659420  -0.00554796  0.87027802  1
  O  O162  1  0.74601181  0.48658316  0.36645221  1
  O  O163  1  0.66322441  0.53498059  0.83161260  1
  O  O164  1  0.24701236  0.48437917  0.12527824  1
  O  O165  1  0.26293260  0.48611102  0.64274902  1
  O  O166  1  0.25173794  0.98020879  0.12859796  1
  O  O167  1  0.24943351  1.00177295  0.64253311  1
  O  O168  1  0.75869478  0.48042335  0.14172788  1
  O  O169  1  0.76609180  0.47191392  0.62414934  1
  O  O170  1  0.73942548  0.99151746  0.13765103  1
  O  O171  1  0.73101656  0.99684680  0.63804285  1
  O  O172  1  -0.00197521  0.37189355  0.26074092  1
  O  O173  1  0.01850934  0.36621837  0.74866737  1
  O  O174  1  0.00842613  0.85474689  0.24858927  1
  O  O175  1  0.01179459  0.88100435  0.75843921  1
  O  O176  1  0.51270469  0.36927237  0.24106309  1
  O  O177  1  0.50642717  0.38582925  0.77581517  1
  O  O178  1  0.50923974  0.86923261  0.25166587  1
  O  O179  1  0.50992557  0.86459546  0.74521248  1
  O  O180  1  0.51099086  0.13708534  0.25377279  1
  O  O181  1  0.48457432  0.11878222  0.74138575  1
  O  O182  1  0.50482854  0.64340123  0.24152992  1
  O  O183  1  0.48922551  0.63872808  0.73034989  1
  O  O184  1  1.00492450  0.13546809  0.26191325  1
  O  O185  1  1.01044184  0.14686746  0.75405921  1
  O  O186  1  1.00922617  0.62919142  0.24149196  1
  O  O187  1  1.00838375  0.60526060  0.73397137  1
  O  O188  1  0.36506198  0.24426631  0.00619409  1
  O  O189  1  0.37653147  0.25784653  0.51832614  1
  O  O190  1  0.38109656  0.76187068  0.00607662  1
  O  O191  1  0.37964610  0.77412050  0.49672456  1
  O  O192  1  0.86988491  0.25734546  0.01341969  1
  O  O193  1  0.89010061  0.19346179  0.47130041  1
  O  O194  1  0.88609070  0.76565374  0.00123924  1
  O  O195  1  0.88744539  0.76413580  0.52546854  1
  O  O196  1  0.11534687  0.24912829  0.47188811  1
  O  O197  1  0.14267551  0.23018677  1.01829867  1
  O  O198  1  0.11750693  0.73136951  0.50225913  1
  O  O199  1  0.11682156  0.73528396  0.99202732  1
  O  O200  1  0.63168702  0.28187629  0.48888612  1
  O  O201  1  0.64371742  0.25244551  0.99873895  1
  O  O202  1  0.61565457  0.73925155  0.49558194  1
  O  O203  1  0.60805493  0.74419782  0.98841850  1
  O  O204  1  0.48894333  0.25363903  0.10865933  1
  O  O205  1  0.49156901  0.23999367  0.62648693  1
  O  O206  1  0.48934241  0.74579357  0.13006528  1
  O  O207  1  0.49916140  0.74966113  0.63595415  1
  O  O208  1  0.98980810  0.25258025  0.13709629  1
  O  O209  1  1.01023328  0.24289468  0.62142369  1
  O  O210  1  0.99458230  0.73108600  0.13443587  1
  O  O211  1  0.99589779  0.72658895  0.62485235  1
  O  O212  1  0.01162633  0.26223738  0.36008412  1
  O  O213  1  0.00276884  0.25065951  0.88071104  1
  O  O214  1  -0.00082178  0.75468763  0.36076855  1
  O  O215  1  0.01186086  0.76356651  0.87855140  1
  O  O216  1  0.49563178  0.24503660  0.36650834  1
  O  O217  1  0.51274059  0.27298721  0.88980760  1
  O  O218  1  0.48808956  0.74688062  0.36199976  1
  O  O219  1  0.49477678  0.72778389  0.84474980  1
  O  O220  1  0.24004886  0.11700773  0.49370557  1
  O  O221  1  0.25638704  0.12551854  0.98798760  1
  O  O222  1  0.23724204  0.61820781  0.49030985  1
  O  O223  1  0.23810143  0.62335902  1.00808344  1
  O  O224  1  0.74563606  0.10734184  0.51936061  1
  O  O225  1  0.75694861  0.13542069  1.00725105  1
  O  O226  1  0.73043825  0.61858597  0.51290938  1
  O  O227  1  0.77855327  0.64099927  0.99195610  1
  O  O228  1  0.24552252  0.35569008  -0.00360714  1
  O  O229  1  0.25748923  0.38713028  0.51889724  1
  O  O230  1  0.25391002  0.87453132  0.00845340  1
  O  O231  1  0.25176496  0.88678150  0.51758413  1
  O  O232  1  0.76070789  0.36783454  0.01707842  1
  O  O233  1  0.74676842  0.38204675  0.51620053  1
  O  O234  1  0.75971483  0.87134626  0.01198787  1
  O  O235  1  0.73684754  0.88615184  0.50907374  1
  O  O236  1  0.14649100  0.50222916  0.24382139  1
  O  O237  1  0.13844270  0.48359481  0.76005785  1
  O  O238  1  0.13527925  0.97796697  0.24754877  1
  O  O239  1  0.13099251  0.98388642  0.76304251  1
  O  O240  1  0.63460190  0.48734516  0.24279251  1
  O  O241  1  0.63803977  0.52430559  0.76193848  1
  O  O242  1  0.62752765  0.98882100  0.24461739  1
  O  O243  1  0.62907702  0.99542938  0.74827970  1
  O  O244  1  0.35154489  -0.01473052  0.25052726  1
  O  O245  1  0.36565160  0.00356974  0.76192488  1
  O  O246  1  0.35323583  0.50042470  0.23982772  1
  O  O247  1  0.35753395  0.49713800  0.76756977  1
  O  O248  1  0.86019369  0.00220592  0.23853927  1
  O  O249  1  0.85809906  -0.01934049  0.76727520  1
  O  O250  1  0.86007158  0.49055821  0.25802942  1
  O  O251  1  0.85707616  0.44753324  0.75194288  1
  O  O252  1  0.13492453  0.36587953  0.36970780  1
  O  O253  1  0.12538446  0.37388680  0.87607634  1
  O  O254  1  0.13058352  0.86380126  0.35950337  1
  O  O255  1  0.11963028  0.86491174  0.86841631  1
  O  O256  1  0.62495975  0.37456308  0.35918071  1
  O  O257  1  0.64564436  0.36146358  0.86432033  1
  O  O258  1  0.63321509  0.87565339  0.36125540  1
  O  O259  1  0.62786383  0.87407439  0.86101985  1
  O  O260  1  0.37627273  0.13596879  0.12037915  1
  O  O261  1  0.37386866  0.13838895  0.64020845  1
  O  O262  1  0.37885575  0.64261919  0.12589401  1
  O  O263  1  0.39145223  0.63627136  0.60294461  1
  O  O264  1  0.87280532  0.13722520  0.12332577  1
  O  O265  1  0.91609705  0.09632553  0.64053769  1
  O  O266  1  0.87920086  0.61300780  0.13576277  1
  O  O267  1  0.88444849  0.62664462  0.62218492  1
  O  O268  1  0.26439662  0.25561858  0.11698252  1
  O  O269  1  0.26281981  0.26216260  0.63399700  1
  O  O270  1  0.26514637  0.75859071  0.12922174  1
  O  O271  1  0.25069536  0.76170455  0.62748183  1
  O  O272  1  0.76000854  0.25414437  0.12541972  1
  O  O273  1  0.74726617  0.26286028  0.60483506  1
  O  O274  1  0.74472379  0.76400509  0.13818121  1
  O  O275  1  0.76102535  0.76495252  0.62146261  1
  O  O276  1  0.24354009  0.23836598  0.36355392  1
  O  O277  1  0.25614132  0.23649816  0.88734807  1
  O  O278  1  0.25377439  0.74339504  0.36973091  1
  O  O279  1  0.23463723  0.75456442  0.88025247  1
  O  O280  1  0.78357627  0.23094988  0.39390059  1
  O  O281  1  0.74808812  0.24615560  0.89143378  1
  O  O282  1  0.75811595  0.75223099  0.35507952  1
  O  O283  1  0.78848138  0.66192107  0.81016315  1
  O  O284  1  -0.00602102  0.10393349  -0.00060419  1
  O  O285  1  0.02256459  0.10941737  0.52947218  1
  O  O286  1  -0.01853647  0.61266707  0.01218953  1
  O  O287  1  0.00935093  0.61431300  0.50113675  1
  O  O288  1  0.53745190  0.12560986  -0.03692147  1
  O  O289  1  0.48848544  0.11682723  0.52028222  1
  O  O290  1  0.49210853  0.62787064  0.01745052  1
  O  O291  1  0.50657369  0.61349371  0.50369317  1
  O  O292  1  0.49443092  0.39182439  0.50846436  1
  O  O293  1  0.53739641  0.40212721  0.97501309  1
  O  O294  1  0.48315298  0.89237987  0.51095271  1
  O  O295  1  0.49015075  0.87270004  1.00124640  1
  O  O296  1  1.00762341  0.38587294  0.48518671  1
  O  O297  1  0.98904301  0.38658380  1.00981377  1
  O  O298  1  1.01145614  0.87863894  0.47685975  1
  O  O299  1  0.98874543  0.88295402  0.99684101  1
  O  O300  1  0.49728961  0.49971426  0.37867377  1
  O  O301  1  0.47535367  0.50166406  0.87385611  1
  O  O302  1  0.49674050  1.01328517  0.39438335  1
  O  O303  1  0.48590827  0.99706012  0.86689533  1
  O  O304  1  1.00381477  0.48778415  0.37638718  1
  O  O305  1  0.99164909  0.50649845  0.89159698  1
  O  O306  1  0.98851771  0.96934356  0.33925099  1
  O  O307  1  0.98461628  0.98842794  0.87772299  1
  O  O308  1  0.00211700  -0.00883281  0.11466696  1
  O  O309  1  0.01835059  -0.03076221  0.60799235  1
  O  O310  1  0.00207499  0.50963538  0.12354859  1
  O  O311  1  -0.00637862  0.50291313  0.61100132  1
  O  O312  1  0.51245167  -0.00502793  0.12658924  1
  O  O313  1  0.50418977  0.00963881  0.62596790  1
  O  O314  1  0.49662624  0.51723051  0.13498478  1
  O  O315  1  0.49272289  0.51330677  0.63178647  1
  O  O316  1  0.25095536  0.37695485  0.23990670  1
  O  O317  1  0.23947688  0.37727181  0.74800769  1
  O  O318  1  0.23779870  0.87132277  0.23764016  1
  O  O319  1  0.24099025  0.88270185  0.74043625  1
  O  O320  1  0.74163299  0.37419427  0.24577037  1
  O  O321  1  0.75057377  0.35661791  0.72473823  1
  O  O322  1  0.74019668  0.88175346  0.24107624  1
  O  O323  1  0.73272387  0.88166662  0.73823906  1
  O  O324  1  0.23637558  0.10550283  0.22565659  1
  O  O325  1  0.26087105  0.12212943  0.76361970  1
  O  O326  1  0.24835469  0.61860552  0.26639450  1
  O  O327  1  0.23848688  0.60912372  0.74584521  1
  O  O328  1  0.74222076  0.10939445  0.25591823  1
  O  O329  1  0.75095742  0.10615077  0.75142833  1
  O  O330  1  0.75091291  0.61303595  0.25631620  1
  O  O331  1  0.76490865  0.63036766  0.74274118  1
  O  O332  1  0.35175345  0.12575603  0.37875812  1
  O  O333  1  0.37623975  0.11537739  0.86840509  1
  O  O334  1  0.35825759  0.62785477  0.38655554  1
  O  O335  1  0.36975696  0.61760622  0.88524867  1
  O  O336  1  0.85290972  0.18580290  0.39879305  1
  O  O337  1  0.87580882  0.10758882  0.87782092  1
  O  O338  1  0.86871593  0.63532881  0.38071375  1
  O  O339  1  0.86037652  0.63409645  0.83484033  1
  O  O340  1  0.14546511  0.36968542  0.11427383  1
  O  O341  1  0.14243407  0.37199870  0.62751700  1
  O  O342  1  0.13599900  0.86012954  0.12200484  1
  O  O343  1  0.13129592  0.86314056  0.64010508  1
  O  O344  1  0.64039435  0.37423027  0.12699025  1
  O  O345  1  0.64737863  0.37206129  0.62731532  1
  O  O346  1  0.63690706  0.88343449  0.13287462  1
  O  O347  1  0.62630445  0.88718530  0.63155519  1
  O  O348  1  0.11357707  0.25116178  0.25138518  1
  O  O349  1  0.12360322  0.26471346  0.76016813  1
  O  O350  1  0.11411640  0.75542183  0.24288737  1
  O  O351  1  0.12711151  0.75868804  0.76390421  1
  O  O352  1  0.61345547  0.26074313  0.24501073  1
  O  O353  1  0.62883575  0.22209378  0.78345639  1
  O  O354  1  0.61037720  0.76432696  0.24711776  1
  O  O355  1  0.62685294  0.76131527  0.74745778  1
  O  O356  1  0.39644517  0.24985860  0.23298420  1
  O  O357  1  0.37421816  0.23818824  0.75454522  1
  O  O358  1  0.38777941  0.76800303  0.23606441  1
  O  O359  1  0.37639299  0.76633035  0.74339061  1
  O  O360  1  0.88530204  0.24691825  0.24217762  1
  O  O361  1  0.89890460  0.26012881  0.76180655  1
  O  O362  1  0.88825704  0.73684387  0.25166180  1
  O  O363  1  0.88312402  0.77037530  0.72049281  1
  O  O364  1  0.38848657  0.50072251  0.50075008  1
  O  O365  1  0.36007106  0.49667073  0.99089136  1
  O  O366  1  0.38349331  0.99996674  0.50665924  1
  O  O367  1  0.37574377  0.99013653  0.98895192  1
  O  O368  1  0.89400541  0.50712776  0.49046934  1
  O  O369  1  0.87985389  0.48546807  1.00836433  1
  O  O370  1  0.91376407  1.01179766  0.48323729  1
  O  O371  1  0.87546547  0.98914218  0.99076783  1
  O  O372  1  0.11089098  -0.00700633  -0.00601987  1
  O  O373  1  0.09784373  0.00589465  0.44836428  1
  O  O374  1  0.10825300  0.51564330  0.00016311  1
  O  O375  1  0.11066912  0.51352829  0.49678515  1
  O  O376  1  0.62914672  -0.00669167  0.01422972  1
  O  O377  1  0.60712727  -0.00157525  0.51835484  1
  O  O378  1  0.66907287  0.52359831  0.01441551  1
  O  O379  1  0.60457467  0.50822283  0.50199956  1
  O  O380  1  0.36086186  0.36407646  0.12252235  1
  O  O381  1  0.37355251  0.36171938  0.64171202  1
  O  O382  1  0.36972622  0.86951438  0.11029234  1
  O  O383  1  0.35807281  0.88311641  0.61949577  1
  O  O384  1  0.86575874  0.36183342  0.12461727  1
  O  O385  1  0.85822489  0.35645147  0.61835633  1
  O  O386  1  0.86371128  0.87908358  0.11717323  1
  O  O387  1  0.84981779  0.89878526  0.62221106  1
  O  O388  1  0.13793853  0.13917812  0.36367511  1
  O  O389  1  0.13954444  0.12037819  0.87467900  1
  O  O390  1  0.13332038  0.62676873  0.38285066  1
  O  O391  1  0.11866722  0.63681344  0.88480912  1
  O  O392  1  0.63717187  0.11639938  0.39826047  1
  O  O393  1  0.59186811  0.13523699  0.90374232  1
  O  O394  1  0.62447703  0.62100422  0.38798505  1
  O  O395  1  0.62652816  0.61039686  0.86867236  1
