# generated using pymatgen
data_V35Zn35O128
_symmetry_space_group_name_H-M   'P 1'
_cell_length_a   16.90221426
_cell_length_b   16.91696546
_cell_length_c   16.99461512
_cell_angle_alpha   89.72605360
_cell_angle_beta   90.12656334
_cell_angle_gamma   89.85432761
_symmetry_Int_Tables_number   1
_chemical_formula_structural   V35Zn35O128
_chemical_formula_sum   'V70 Zn70 O256'
_cell_volume   4859.25801519
_cell_formula_units_Z   2
loop_
 _symmetry_equiv_pos_site_id
 _symmetry_equiv_pos_as_xyz
  1  'x, y, z'
loop_
 _atom_site_type_symbol
 _atom_site_label
 _atom_site_symmetry_multiplicity
 _atom_site_fract_x
 _atom_site_fract_y
 _atom_site_fract_z
 _atom_site_occupancy
  V  V0  1  0.85535485  0.50897858  0.87388874  1
  V  V1  1  0.50436113  0.26866530  0.75021968  1
  V  V2  1  0.85975474  0.86928973  0.49984508  1
  V  V3  1  0.86176308  0.37841082  0.01224177  1
  V  V4  1  0.51009379  0.36912507  0.36932866  1
  V  V5  1  0.85655614  0.74463437  0.62274846  1
  V  V6  1  0.00582642  0.74031861  0.26228802  1
  V  V7  1  0.38199415  0.50017293  0.35430390  1
  V  V8  1  -0.00662963  -0.00445755  0.52534035  1
  V  V9  1  -0.00058915  0.38151236  0.89112799  1
  V  V10  1  0.12673115  0.25282413  0.87898022  1
  V  V11  1  0.62999635  0.12851832  0.49059689  1
  V  V12  1  0.50359771  0.62473928  0.60752767  1
  V  V13  1  0.11797510  0.87467623  0.27602927  1
  V  V14  1  0.12457732  0.87901031  0.74331615  1
  V  V15  1  0.88129374  0.37716548  0.47988154  1
  V  V16  1  0.86329794  0.13201654  0.74167084  1
  V  V17  1  0.12300929  0.50190038  0.63149551  1
  V  V18  1  0.51212082  0.24923960  0.23676618  1
  V  V19  1  0.62591071  0.49596423  0.58450438  1
  V  V20  1  0.37620140  -0.00534081  0.87467378  1
  V  V21  1  -0.00933089  0.74318015  0.75093330  1
  V  V22  1  0.87816104  -0.00578867  0.36832872  1
  V  V23  1  0.23393474  0.87193745  0.11908987  1
  V  V24  1  0.24588471  0.12167643  0.87875867  1
  V  V25  1  0.25269382  0.62851066  0.87100199  1
  V  V26  1  0.25521913  0.48396211  0.75036208  1
  V  V27  1  0.50304602  0.01052936  0.00258530  1
  V  V28  1  0.75638251  0.11955644  0.35882723  1
  V  V29  1  0.62991642  0.73459234  0.37692195  1
  V  V30  1  0.62075412  0.62017050  -0.00681861  1
  V  V31  1  0.48868489  0.74891008  0.24791110  1
  V  V32  1  0.61854519  0.87664291  0.26051777  1
  V  V33  1  0.14358095  0.51070959  0.13863114  1
  V  V34  1  0.11854806  0.34504074  0.29050377  1
  V  V35  1  0.38048113  0.86731571  0.01380491  1
  V  V36  1  0.86012263  0.01605739  0.87998610  1
  V  V37  1  0.63383596  0.49824056  0.13771406  1
  V  V38  1  0.12760278  0.75067285  0.87819894  1
  V  V39  1  0.74541330  0.87673076  0.13458496  1
  V  V40  1  -0.00051833  0.25143514  0.75096800  1
  V  V41  1  0.62069869  0.00660728  0.12409265  1
  V  V42  1  0.49882768  0.37984599  0.89387552  1
  V  V43  1  0.36712931  0.13204293  0.74897588  1
  V  V44  1  0.63056790  0.24911921  0.88764984  1
  V  V45  1  -0.00255815  0.62170497  0.62810722  1
  V  V46  1  0.00747623  0.00078136  0.01109405  1
  V  V47  1  0.12633204  0.12259504  0.01661113  1
  V  V48  1  0.49395474  0.00861489  0.48488090  1
  V  V49  1  0.22818832  0.74245303  0.50159420  1
  V  V50  1  0.12424902  0.62128206  -0.00458806  1
  V  V51  1  0.37406278  0.12243957  0.22462252  1
  V  V52  1  0.38043999  0.87647508  0.47315806  1
  V  V53  1  -0.00273614  0.87837833  0.87239012  1
  V  V54  1  0.86882273  0.87408446  0.00095882  1
  V  V55  1  0.36743640  0.25993388  0.62443034  1
  V  V56  1  0.50801481  0.12541033  0.62977800  1
  V  V57  1  0.75270742  0.38137531  0.63980247  1
  V  V58  1  0.87397460  0.74662663  0.13352339  1
  V  V59  1  0.27472723  0.86933625  0.63542009  1
  V  V60  1  0.76940698  0.60948654  0.36297718  1
  V  V61  1  0.24493684  0.36834435  0.61634771  1
  V  V62  1  0.49129504  0.62509909  0.12668757  1
  V  V63  1  0.37627908  0.49262367  0.88742157  1
  V  V64  1  0.00273407  0.50211165  0.48452959  1
  V  V65  1  -0.00816873  0.61785117  0.11980968  1
  V  V66  1  -0.00583482  0.21151213  0.24892154  1
  V  V67  1  0.12461858  0.13834471  0.50703245  1
  V  V68  1  0.87753283  0.23303955  0.12040504  1
  V  V69  1  0.73911413  0.74752018  -0.00502514  1
  Zn  Zn70  1  0.37970742  0.63082078  0.73739387  1
  Zn  Zn71  1  0.14143216  0.01293569  0.63443149  1
  Zn  Zn72  1  0.87683865  0.25309435  0.61754584  1
  Zn  Zn73  1  0.25401292  -0.00097061  0.26549491  1
  Zn  Zn74  1  0.74115264  0.26040280  0.49514157  1
  Zn  Zn75  1  0.36846054  0.25752485  0.11161478  1
  Zn  Zn76  1  0.19290900  0.18917762  0.19788655  1
  Zn  Zn77  1  0.17957656  0.18522668  0.68776752  1
  Zn  Zn78  1  0.18043712  0.70359252  0.17375191  1
  Zn  Zn79  1  0.18521163  0.68970604  0.68667925  1
  Zn  Zn80  1  0.69820603  0.18871489  0.17109956  1
  Zn  Zn81  1  0.68917497  0.20032953  0.68920983  1
  Zn  Zn82  1  0.68251727  0.68176111  0.18704738  1
  Zn  Zn83  1  0.68298951  0.68042898  0.54103988  1
  Zn  Zn84  1  0.33144344  0.33862176  0.26816771  1
  Zn  Zn85  1  0.30866183  0.31231175  0.93897065  1
  Zn  Zn86  1  0.29871344  0.80507269  0.31214012  1
  Zn  Zn87  1  0.31661070  0.81010090  0.81616876  1
  Zn  Zn88  1  0.85252535  0.27686514  0.33120403  1
  Zn  Zn89  1  0.81485640  0.31863928  0.81957226  1
  Zn  Zn90  1  0.81167457  0.80763375  0.31564600  1
  Zn  Zn91  1  0.81520719  0.80661551  0.81708647  1
  Zn  Zn92  1  0.18229248  0.43275445  0.44599210  1
  Zn  Zn93  1  0.17910285  0.44236051  0.93832664  1
  Zn  Zn94  1  0.17476804  0.93426914  0.44720081  1
  Zn  Zn95  1  0.19113904  0.93712357  0.93656540  1
  Zn  Zn96  1  0.69845210  0.43317477  0.41761832  1
  Zn  Zn97  1  0.68287711  0.43386669  0.94171034  1
  Zn  Zn98  1  0.68401316  0.94590584  0.44213914  1
  Zn  Zn99  1  0.68520854  1.07650127  0.94648445  1
  Zn  Zn100  1  0.30270626  0.04608711  0.06669385  1
  Zn  Zn101  1  0.29438393  0.05568717  0.45649380  1
  Zn  Zn102  1  0.31319303  0.57177347  0.05610087  1
  Zn  Zn103  1  0.31534313  0.56354678  0.55731761  1
  Zn  Zn104  1  0.81470614  0.05908586  0.06661873  1
  Zn  Zn105  1  0.80259149  0.05286058  0.56801673  1
  Zn  Zn106  1  0.81101964  0.55825789  0.05480607  1
  Zn  Zn107  1  0.81484051  0.55843403  0.55260686  1
  Zn  Zn108  1  0.43841740  0.43872945  0.18096702  1
  Zn  Zn109  1  0.47487975  0.48066236  0.72108468  1
  Zn  Zn110  1  0.43639906  0.94092201  0.19175111  1
  Zn  Zn111  1  0.43891460  0.95265973  0.68764919  1
  Zn  Zn112  1  1.01187439  0.37340153  0.12683116  1
  Zn  Zn113  1  0.93456793  0.43464105  0.69844731  1
  Zn  Zn114  1  0.94339650  0.93072999  0.19288294  1
  Zn  Zn115  1  0.87900619  0.95173297  0.67732109  1
  Zn  Zn116  1  0.06315247  0.05255205  0.33035802  1
  Zn  Zn117  1  0.05290716  0.06334965  0.81042057  1
  Zn  Zn118  1  0.02489804  0.51674408  0.27339907  1
  Zn  Zn119  1  0.06344332  0.56039876  0.80904523  1
  Zn  Zn120  1  0.56283774  0.07124123  0.30371374  1
  Zn  Zn121  1  0.55400359  0.07038877  0.81803764  1
  Zn  Zn122  1  0.55895707  0.55990431  0.31088203  1
  Zn  Zn123  1  0.55107648  0.65413358  0.80525522  1
  Zn  Zn124  1  0.45742787  0.22580813  0.45092610  1
  Zn  Zn125  1  0.44180738  0.18640948  0.93739624  1
  Zn  Zn126  1  0.43836559  0.68564249  0.42759897  1
  Zn  Zn127  1  0.43371024  0.68526764  0.93958829  1
  Zn  Zn128  1  0.94610495  0.17804107  0.44297732  1
  Zn  Zn129  1  0.94324451  0.19184629  0.94738945  1
  Zn  Zn130  1  0.93204138  0.68002190  0.44298639  1
  Zn  Zn131  1  0.93451393  0.68639238  0.94122513  1
  Zn  Zn132  1  0.23857733  0.36521794  0.11054923  1
  Zn  Zn133  1  0.05968808  0.32028490  0.56709270  1
  Zn  Zn134  1  0.05533797  0.80646995  0.06125280  1
  Zn  Zn135  1  0.04692332  0.81324854  0.55954769  1
  Zn  Zn136  1  0.56373726  0.31438574  0.06807199  1
  Zn  Zn137  1  0.56249829  0.31980053  0.55984587  1
  Zn  Zn138  1  0.55603689  0.81568688  0.06331249  1
  Zn  Zn139  1  0.52459794  0.79516490  0.54088133  1
  O  O140  1  0.12987548  0.12670949  0.11375998  1
  O  O141  1  0.11407903  0.12098274  0.62356808  1
  O  O142  1  0.11997250  0.62637574  0.11324074  1
  O  O143  1  0.11118215  0.61610283  0.63161730  1
  O  O144  1  0.62886947  0.10350940  0.13401185  1
  O  O145  1  0.61053893  0.13462059  0.62457915  1
  O  O146  1  0.61543800  0.62040272  0.11577380  1
  O  O147  1  0.62321883  0.60355191  0.60715403  1
  O  O148  1  0.38439299  0.38483070  0.35917745  1
  O  O149  1  0.38026985  0.38467334  0.87543280  1
  O  O150  1  0.37314619  0.87799277  0.37640169  1
  O  O151  1  0.36854234  0.89237112  0.87784777  1
  O  O152  1  0.88264354  0.37647321  0.38112077  1
  O  O153  1  0.88419861  0.37989876  0.89086752  1
  O  O154  1  0.86496257  0.88048734  0.38900753  1
  O  O155  1  0.87810257  0.88297686  0.88178948  1
  O  O156  1  0.24568181  -0.01025614  0.38060628  1
  O  O157  1  0.26459517  0.00911010  0.87805906  1
  O  O158  1  0.27469769  0.49515678  0.40972148  1
  O  O159  1  0.25365776  0.50510964  0.86325546  1
  O  O160  1  0.75930242  0.01024332  0.38153387  1
  O  O161  1  0.76140748  0.00535804  0.88812909  1
  O  O162  1  0.75679731  0.50887660  0.36004701  1
  O  O163  1  0.75523115  0.49637690  0.87770249  1
  O  O164  1  0.24328140  0.51652698  0.12497143  1
  O  O165  1  0.24701043  0.48906917  0.63262625  1
  O  O166  1  0.25773340  0.97538131  0.14583753  1
  O  O167  1  0.24609509  0.96547760  0.62601679  1
  O  O168  1  0.73390297  0.51310033  0.12264841  1
  O  O169  1  0.73902665  0.49041020  0.61407295  1
  O  O170  1  0.73965775  0.98250811  0.12024264  1
  O  O171  1  0.77390336  0.99160424  0.65603000  1
  O  O172  1  0.03498907  0.39699859  0.25133104  1
  O  O173  1  -0.01103887  0.35772656  0.77159849  1
  O  O174  1  0.01152908  0.85502783  0.24580252  1
  O  O175  1  0.00597305  0.86444681  0.76374784  1
  O  O176  1  0.49799646  0.35981768  0.25263525  1
  O  O177  1  0.49509105  0.36899990  0.75134524  1
  O  O178  1  0.51277071  0.86444800  0.24237698  1
  O  O179  1  0.54108475  0.91802239  0.74767949  1
  O  O180  1  0.48851957  0.13739927  0.24902732  1
  O  O181  1  0.49589242  0.13357550  0.74024589  1
  O  O182  1  0.50242120  0.63838115  0.23780025  1
  O  O183  1  0.49994827  0.59615368  0.72898921  1
  O  O184  1  1.00661859  0.11315621  0.24596765  1
  O  O185  1  0.98289065  0.14188344  0.76418246  1
  O  O186  1  1.00122285  0.63324098  0.23269239  1
  O  O187  1  0.99952524  0.63599685  0.74691044  1
  O  O188  1  0.37493165  0.24704654  -0.00089651  1
  O  O189  1  0.37328653  0.24028505  0.52852281  1
  O  O190  1  0.37709934  0.77014239  -0.01010418  1
  O  O191  1  0.41162737  0.77709693  0.49462543  1
  O  O192  1  0.88655540  0.26511158  0.01307543  1
  O  O193  1  0.89147507  0.26850255  0.50166311  1
  O  O194  1  0.87082868  0.75795854  0.01299336  1
  O  O195  1  0.87834738  0.75829469  0.51094180  1
  O  O196  1  0.11093466  0.23837823  0.51058885  1
  O  O197  1  0.11554895  0.22376613  0.98270225  1
  O  O198  1  0.12877072  0.76022256  0.50165501  1
  O  O199  1  0.11603592  0.74258996  0.98361305  1
  O  O200  1  0.62222519  0.23292657  0.50155875  1
  O  O201  1  0.61555944  0.25233895  0.98644694  1
  O  O202  1  0.61578426  0.75592186  0.48098961  1
  O  O203  1  0.63694218  0.75592004  1.00410460  1
  O  O204  1  0.48866135  0.25971933  0.13358681  1
  O  O205  1  0.48990481  0.25077766  0.63636384  1
  O  O206  1  0.50847831  0.74303639  0.13964929  1
  O  O207  1  0.52019864  0.72328824  0.62941919  1
  O  O208  1  0.99265287  0.25688286  0.14694290  1
  O  O209  1  0.99595179  0.26336861  0.64862390  1
  O  O210  1  0.99103130  0.74028213  0.13015663  1
  O  O211  1  0.99464369  0.73828804  0.63475322  1
  O  O212  1  -0.02413865  0.23866009  0.34914446  1
  O  O213  1  0.00832628  0.25714923  0.87538820  1
  O  O214  1  -0.00671339  0.73478716  0.35959320  1
  O  O215  1  -0.00074412  0.75716710  0.87010225  1
  O  O216  1  0.49884716  0.25667228  0.35112817  1
  O  O217  1  0.50123743  0.26283762  0.86529132  1
  O  O218  1  0.51492753  0.74315012  0.35575281  1
  O  O219  1  0.47148931  0.73772642  0.83803550  1
  O  O220  1  0.22567695  0.11830333  0.51835080  1
  O  O221  1  0.23350283  0.10929849  0.99252599  1
  O  O222  1  0.24367049  0.64390027  0.52029099  1
  O  O223  1  0.23998018  0.62455372  0.98052417  1
  O  O224  1  0.73210881  0.12130050  0.51035178  1
  O  O225  1  0.73822393  0.12901522  1.02729914  1
  O  O226  1  0.75592529  0.62213083  0.47687408  1
  O  O227  1  0.73496960  0.64054849  1.00953168  1
  O  O228  1  0.24969105  0.38425134  -0.00110712  1
  O  O229  1  0.24302798  0.36374236  0.51883516  1
  O  O230  1  0.26264853  0.88665896  0.01261580  1
  O  O231  1  0.27677670  0.86261246  0.51522683  1
  O  O232  1  0.76189947  0.37474763  0.00591550  1
  O  O233  1  0.77081775  0.37597194  0.49267402  1
  O  O234  1  0.76073690  0.86382415  0.01342498  1
  O  O235  1  0.75865006  0.87889028  0.50104087  1
  O  O236  1  0.13600331  0.52485209  0.23758424  1
  O  O237  1  0.14372127  0.50743996  0.74195339  1
  O  O238  1  0.11548269  0.97672406  0.26158478  1
  O  O239  1  0.11633559  0.98277595  0.75152207  1
  O  O240  1  0.62534531  0.50346997  0.23761488  1
  O  O241  1  0.69640139  0.59470274  0.75814904  1
  O  O242  1  0.61454866  0.98571295  0.23716891  1
  O  O243  1  0.59324149  0.97303116  0.75884213  1
  O  O244  1  0.38526439  0.01923892  0.25420854  1
  O  O245  1  0.38635221  0.01788092  0.76676823  1
  O  O246  1  0.36828250  0.50428396  0.25539177  1
  O  O247  1  0.36169033  0.50321108  0.75774656  1
  O  O248  1  0.88015679  -0.01441915  0.26892069  1
  O  O249  1  0.87993629  0.02107918  0.77288345  1
  O  O250  1  0.77476690  0.40177116  0.22214567  1
  O  O251  1  0.87762503  0.49428995  0.77588970  1
  O  O252  1  0.11706064  0.36173336  0.38931936  1
  O  O253  1  0.11707989  0.35853161  0.88246498  1
  O  O254  1  0.11841253  0.86450997  0.37393755  1
  O  O255  1  0.11900395  0.86901485  0.87026609  1
  O  O256  1  0.61120447  0.37667531  0.36974540  1
  O  O257  1  0.60548981  0.37063564  0.88005620  1
  O  O258  1  0.62844484  0.87975782  0.36095422  1
  O  O259  1  0.64089021  0.81522545  0.79879225  1
  O  O260  1  0.37259100  0.11974349  0.12370285  1
  O  O261  1  0.38054827  0.13659292  0.64435512  1
  O  O262  1  0.39213586  0.63025714  0.11144305  1
  O  O263  1  0.39496815  0.60917711  0.62237257  1
  O  O264  1  0.88871739  0.13392051  0.10913035  1
  O  O265  1  0.86883260  0.13322137  0.63931436  1
  O  O266  1  0.88484902  0.63114594  0.11466591  1
  O  O267  1  0.88381455  0.63443772  0.61932109  1
  O  O268  1  0.24975504  0.25160613  0.12455366  1
  O  O269  1  0.25539438  0.26115398  0.64261786  1
  O  O270  1  0.25736676  0.77142442  0.12974421  1
  O  O271  1  0.24263582  0.76491618  0.61864190  1
  O  O272  1  0.77820572  0.25470644  0.13098528  1
  O  O273  1  0.75123038  0.26855517  0.61663207  1
  O  O274  1  0.75647780  0.75814456  0.12089419  1
  O  O275  1  0.75840366  0.73289893  0.62060224  1
  O  O276  1  0.28543133  0.21656896  0.38782364  1
  O  O277  1  0.23353091  0.23909671  0.87838603  1
  O  O278  1  0.26053317  0.75315415  0.40537758  1
  O  O279  1  0.23764689  0.74266480  0.86778679  1
  O  O280  1  0.76596962  0.22377494  0.38686433  1
  O  O281  1  0.72763605  0.26633108  0.87197585  1
  O  O282  1  0.73312035  0.74834419  0.37359938  1
  O  O283  1  0.75923879  0.75104627  0.89732171  1
  O  O284  1  0.01167169  0.10763203  -0.00303244  1
  O  O285  1  -0.00070888  0.10312580  0.51118743  1
  O  O286  1  0.00850184  0.63159979  0.01313936  1
  O  O287  1  -0.00568769  0.60812797  0.51391939  1
  O  O288  1  0.49703801  0.10980304  0.00353687  1
  O  O289  1  0.50535969  0.12777145  0.50920516  1
  O  O290  1  0.51354241  0.64405629  0.01295175  1
  O  O291  1  0.49789344  0.62357540  0.50780132  1
  O  O292  1  0.49316960  0.34433114  0.47283779  1
  O  O293  1  0.49314006  0.37740335  0.99088253  1
  O  O294  1  0.49294995  0.90125076  0.50180369  1
  O  O295  1  0.48719508  0.88568716  1.00191694  1
  O  O296  1  0.99239016  0.39196208  0.50649499  1
  O  O297  1  0.99957157  0.37578320  0.99118014  1
  O  O298  1  0.97777875  0.88473180  0.50513325  1
  O  O299  1  0.99023601  0.87896762  0.99202299  1
  O  O300  1  0.49285901  0.48250504  0.36462793  1
  O  O301  1  0.48370143  0.48688383  0.86699545  1
  O  O302  1  0.49752795  1.02105072  0.38739248  1
  O  O303  1  0.48709838  1.00581738  0.88950715  1
  O  O304  1  1.01149252  0.51162454  0.38709156  1
  O  O305  1  1.01062850  0.48142541  0.87128760  1
  O  O306  1  0.97966943  0.99769874  0.39360790  1
  O  O307  1  0.99345709  0.98931173  0.88551330  1
  O  O308  1  -0.00417746  -0.01178759  0.10829660  1
  O  O309  1  -0.02276733  -0.00930452  0.62457159  1
  O  O310  1  0.00936139  0.51816265  0.13304344  1
  O  O311  1  0.00710681  0.50661255  0.63910050  1
  O  O312  1  0.51215477  -0.00763947  0.11497833  1
  O  O313  1  0.49268232  0.02424765  0.61642902  1
  O  O314  1  0.50599653  0.51925621  0.13098103  1
  O  O315  1  0.52537647  0.49191809  0.61635767  1
  O  O316  1  0.21280669  0.36658959  0.26160019  1
  O  O317  1  0.25047534  0.38687859  0.74950388  1
  O  O318  1  0.22565398  0.86619304  0.24745185  1
  O  O319  1  0.23517096  0.86087075  0.74365371  1
  O  O320  1  0.74575390  0.35340450  0.26737106  1
  O  O321  1  0.74980952  0.37625701  0.73792690  1
  O  O322  1  0.74047609  0.86914643  0.23890349  1
  O  O323  1  0.70036861  0.85672935  0.78422183  1
  O  O324  1  0.26806212  0.11855257  0.24977777  1
  O  O325  1  0.26237614  0.13129219  0.75870836  1
  O  O326  1  0.26109026  0.64842806  0.26073790  1
  O  O327  1  0.25616499  0.62721975  0.75809479  1
  O  O328  1  0.74786692  0.12360707  0.26126148  1
  O  O329  1  0.76356755  0.14064881  0.75614699  1
  O  O330  1  0.75022269  0.63777825  0.26471279  1
  O  O331  1  0.75773204  0.63314603  0.76012659  1
  O  O332  1  0.33857719  0.16494378  0.39462543  1
  O  O333  1  0.36619147  0.12175282  0.86947311  1
  O  O334  1  0.38930998  0.60124262  0.37551225  1
  O  O335  1  0.36573113  0.61120448  0.87667027  1
  O  O336  1  0.86523239  0.10623098  0.38254756  1
  O  O337  1  0.87490981  0.11610875  0.89069915  1
  O  O338  1  0.87011508  0.62373904  0.36774407  1
  O  O339  1  0.87464050  0.60866364  0.88798641  1
  O  O340  1  0.12523808  0.40888960  0.12011126  1
  O  O341  1  0.13613201  0.38497772  0.63123858  1
  O  O342  1  0.13185691  0.87099645  0.11481775  1
  O  O343  1  0.11150528  0.86772135  0.64523051  1
  O  O344  1  0.61922869  0.40053933  0.11313870  1
  O  O345  1  0.64097729  0.38444923  0.61190029  1
  O  O346  1  0.63554882  0.87654481  0.13132113  1
  O  O347  1  0.62186834  0.88591074  0.62177524  1
  O  O348  1  0.10629780  0.24238660  0.25925156  1
  O  O349  1  0.10979764  0.24095708  0.76722744  1
  O  O350  1  0.11213908  0.75106556  0.25223148  1
  O  O351  1  0.11122861  0.75624329  0.76162033  1
  O  O352  1  0.61233582  0.23939504  0.23059189  1
  O  O353  1  0.60719407  0.25116245  0.75687172  1
  O  O354  1  0.62204972  0.76296510  0.25872256  1
  O  O355  1  0.69119529  0.88450501  0.64338704  1
  O  O356  1  0.37854666  0.23106068  0.24168259  1
  O  O357  1  0.38984697  0.23877462  0.75103427  1
  O  O358  1  0.39034976  0.76087683  0.25631031  1
  O  O359  1  0.40569192  0.74107909  0.78150909  1
  O  O360  1  0.88422961  0.22921188  0.23438453  1
  O  O361  1  0.88069048  0.24268501  0.75834197  1
  O  O362  1  0.88584219  0.75908524  0.23861460  1
  O  O363  1  0.87876931  0.75769439  0.73662184  1
  O  O364  1  0.33412059  0.48710495  0.47035129  1
  O  O365  1  0.37247843  0.50179431  0.98533316  1
  O  O366  1  0.38380074  0.99302283  0.49639762  1
  O  O367  1  0.38300690  0.99363351  0.99262975  1
  O  O368  1  0.89136689  0.48955175  0.49852436  1
  O  O369  1  0.87403938  0.48757516  0.98931822  1
  O  O370  1  0.87504578  0.98651372  0.50171327  1
  O  O371  1  0.88436917  0.99129451  0.99490758  1
  O  O372  1  0.11387089  0.00326031  -0.00290821  1
  O  O373  1  0.10260035  -0.01732451  0.52238820  1
  O  O374  1  0.12219307  0.51874559  0.00297387  1
  O  O375  1  0.11027322  0.49499630  0.51695183  1
  O  O376  1  0.61251252  -0.00083175  0.00901136  1
  O  O377  1  0.60789496  0.01597446  0.50073137  1
  O  O378  1  0.62470128  0.51854259  0.00043874  1
  O  O379  1  0.62406605  0.49316905  0.48681107  1
  O  O380  1  0.35000388  0.37115501  0.15523346  1
  O  O381  1  0.35930292  0.36391988  0.62991079  1
  O  O382  1  0.37725932  0.87467564  0.11544760  1
  O  O383  1  0.37553790  0.86815879  0.65116726  1
  O  O384  1  0.89110006  0.38117872  0.11060122  1
  O  O385  1  0.86142189  0.37963810  0.62427824  1
  O  O386  1  0.86530042  0.86976303  0.12154805  1
  O  O387  1  0.86710854  0.85379105  0.61635024  1
  O  O388  1  0.11427793  0.11505651  0.40719607  1
  O  O389  1  0.13534585  0.12372551  0.87085470  1
  O  O390  1  0.22894209  0.61593590  0.31788354  1
  O  O391  1  0.12932947  0.63174086  0.87650500  1
  O  O392  1  0.63967910  0.11887358  0.38420480  1
  O  O393  1  0.62242482  0.13991514  0.87384406  1
  O  O394  1  0.62926483  0.63308270  0.37096995  1
  O  O395  1  0.61496277  0.63796303  0.89377163  1
