# generated using pymatgen
data_V35Zn35O128
_symmetry_space_group_name_H-M   'P 1'
_cell_length_a   16.91351328
_cell_length_b   16.96863563
_cell_length_c   17.00235359
_cell_angle_alpha   90.05410253
_cell_angle_beta   89.61347152
_cell_angle_gamma   90.06767824
_symmetry_Int_Tables_number   1
_chemical_formula_structural   V35Zn35O128
_chemical_formula_sum   'V70 Zn70 O256'
_cell_volume   4879.54604869
_cell_formula_units_Z   2
loop_
 _symmetry_equiv_pos_site_id
 _symmetry_equiv_pos_as_xyz
  1  'x, y, z'
loop_
 _atom_site_type_symbol
 _atom_site_label
 _atom_site_symmetry_multiplicity
 _atom_site_fract_x
 _atom_site_fract_y
 _atom_site_fract_z
 _atom_site_occupancy
  V  V0  1  0.85782811  0.73039800  0.13879141  1
  V  V1  1  0.62915648  0.12503580  -0.00930631  1
  V  V2  1  0.11478815  -0.01069548  0.11919021  1
  V  V3  1  0.75351959  0.87559814  0.64520048  1
  V  V4  1  0.11451019  0.11277679  -0.00072054  1
  V  V5  1  0.00370766  0.50049487  0.49074935  1
  V  V6  1  0.37741297  0.38967775  -0.00575825  1
  V  V7  1  0.25048304  0.88243914  0.63031334  1
  V  V8  1  0.36743223  0.86587522  -0.00240727  1
  V  V9  1  0.24766374  0.26474267  0.49967622  1
  V  V10  1  0.37748332  0.00525608  0.37586956  1
  V  V11  1  0.76750681  0.61686956  0.37238670  1
  V  V12  1  0.00331714  0.25570860  0.75271371  1
  V  V13  1  0.24838605  0.38439429  0.64864838  1
  V  V14  1  0.89103032  0.63329322  0.75665234  1
  V  V15  1  0.88655145  0.75153286  0.62155217  1
  V  V16  1  0.37701909  0.49780607  0.84583493  1
  V  V17  1  0.75553591  0.25311226  0.50159910  1
  V  V18  1  0.63443169  0.25907076  0.87103827  1
  V  V19  1  0.36254779  0.62565120  0.73576673  1
  V  V20  1  0.37442405  0.12936865  0.24863541  1
  V  V21  1  0.26542236  0.11694689  0.87334927  1
  V  V22  1  0.61381554  0.26760023  0.37067792  1
  V  V23  1  0.63628624  -0.00416165  0.63470123  1
  V  V24  1  0.00470410  0.25722746  0.24899920  1
  V  V25  1  0.12439432  0.24825383  0.86940085  1
  V  V26  1  0.87955429  0.24675414  0.62867403  1
  V  V27  1  0.73892985  0.75479251  0.01178332  1
  V  V28  1  0.11645553  0.87851696  0.75030316  1
  V  V29  1  0.50106209  0.10993095  0.12373496  1
  V  V30  1  0.37896990  0.87847161  0.50211308  1
  V  V31  1  0.38075451  0.25455705  0.12160304  1
  V  V32  1  0.38648976  0.75387376  0.62780119  1
  V  V33  1  0.01690406  0.11844823  0.61936714  1
  V  V34  1  0.88207763  0.11916308  0.24274075  1
  V  V35  1  0.74887423  0.12113009  0.36256407  1
  V  V36  1  0.76839919  0.49386813  0.25083990  1
  V  V37  1  0.26550665  0.00424644  0.75089285  1
  V  V38  1  0.51606929  0.87355275  0.36632834  1
  V  V39  1  0.62746298  0.49828721  0.62906366  1
  V  V40  1  0.50732573  0.00587714  0.50106589  1
  V  V41  1  0.49880810  0.12433644  0.63964249  1
  V  V42  1  0.62904156  0.74627204  0.86084891  1
  V  V43  1  0.03229783  0.74617481  0.20019638  1
  V  V44  1  0.49180314  -0.00527948  -0.01887428  1
  V  V45  1  0.86363648  0.11579132  0.75955148  1
  V  V46  1  0.23994687  0.12326874  0.38673679  1
  V  V47  1  0.24993858  0.63184434  0.89433214  1
  V  V48  1  0.74916928  0.75708579  0.48727258  1
  V  V49  1  0.62590503  0.62202873  0.49334896  1
  V  V50  1  0.35832745  0.53401282  0.37058749  1
  V  V51  1  0.50783818  0.63205565  0.63031334  1
  V  V52  1  0.25008822  0.24869624  0.00609131  1
  V  V53  1  0.39185327  0.72208212  0.17179130  1
  V  V54  1  0.49820929  0.26943692  0.75553318  1
  V  V55  1  0.12830359  0.62521926  0.49522600  1
  V  V56  1  0.37334193  0.24727114  0.62851858  1
  V  V57  1  0.62290291  0.60478202  -0.01230449  1
  V  V58  1  0.60595061  0.48801121  0.14568044  1
  V  V59  1  0.50199907  0.86619533  0.85047884  1
  V  V60  1  0.88722225  0.37722262  0.49365713  1
  V  V61  1  0.86514160  0.25274699  0.11893145  1
  V  V62  1  0.75602182  0.37922222  0.63469827  1
  V  V63  1  0.24882326  0.74555661  0.49819754  1
  V  V64  1  0.86927367  0.39284637  -0.00157160  1
  V  V65  1  -0.01160999  0.88446211  0.89219527  1
  V  V66  1  0.12342316  0.50201857  0.63521208  1
  V  V67  1  0.25065784  -0.00670415  0.23793109  1
  V  V68  1  0.63037828  0.12823934  0.50480076  1
  V  V69  1  0.75962813  0.51343037  0.75746250  1
  Zn  Zn70  1  0.12295120  0.74690654  0.86135552  1
  Zn  Zn71  1  0.11182664  0.25559725  0.37778430  1
  Zn  Zn72  1  -0.00026374  -0.00580028  0.49686645  1
  Zn  Zn73  1  0.88546376  -0.01483992  0.37770403  1
  Zn  Zn74  1  -0.00112240  0.39431339  0.88719407  1
  Zn  Zn75  1  0.48605419  0.45327471  0.46202305  1
  Zn  Zn76  1  0.18448122  0.17541286  0.18538599  1
  Zn  Zn77  1  0.19165076  0.18475748  0.68794867  1
  Zn  Zn78  1  0.21808721  0.81585165  0.15245026  1
  Zn  Zn79  1  0.18044667  0.69420141  0.67529958  1
  Zn  Zn80  1  0.68808720  0.32857269  0.18950994  1
  Zn  Zn81  1  0.68607557  0.19119946  0.69282577  1
  Zn  Zn82  1  0.66784029  0.66921955  0.19087945  1
  Zn  Zn83  1  0.69814669  0.68763191  0.68033989  1
  Zn  Zn84  1  0.30092006  0.30918182  0.30730531  1
  Zn  Zn85  1  0.31359043  0.30820589  0.81616635  1
  Zn  Zn86  1  0.31502703  0.81780742  0.31848681  1
  Zn  Zn87  1  0.31603671  0.81287405  0.81507405  1
  Zn  Zn88  1  0.81879761  0.30650414  0.31613813  1
  Zn  Zn89  1  0.82125805  0.31620710  0.81772549  1
  Zn  Zn90  1  0.91113871  0.80254058  0.31613836  1
  Zn  Zn91  1  0.81433370  0.80352637  0.81825587  1
  Zn  Zn92  1  0.19281314  0.44517592  0.43428199  1
  Zn  Zn93  1  0.17578601  0.45400918  0.83474555  1
  Zn  Zn94  1  0.18761215  0.94589749  0.44937932  1
  Zn  Zn95  1  0.18503686  0.93423733  0.93115045  1
  Zn  Zn96  1  0.69532027  0.43988302  0.44118771  1
  Zn  Zn97  1  0.69433004  0.42872191  0.93285549  1
  Zn  Zn98  1  0.72824846  0.90106077  0.37241943  1
  Zn  Zn99  1  0.65082692  0.91496141  0.96742081  1
  Zn  Zn100  1  0.31926646  0.06289676  0.05407130  1
  Zn  Zn101  1  0.31507114  0.06668539  0.56588187  1
  Zn  Zn102  1  0.44661926  0.56517925  0.06761504  1
  Zn  Zn103  1  0.31948978  0.55789253  0.55271740  1
  Zn  Zn104  1  0.72314868  0.14126628  0.14241911  1
  Zn  Zn105  1  0.82097707  0.05858261  0.55650499  1
  Zn  Zn106  1  0.79655682  0.56088835  0.06594239  1
  Zn  Zn107  1  0.81855235  0.56682108  0.56592474  1
  Zn  Zn108  1  0.41812548  0.43960818  0.19961378  1
  Zn  Zn109  1  0.44915232  0.42467670  0.64713468  1
  Zn  Zn110  1  0.46124997  0.89614013  0.16340456  1
  Zn  Zn111  1  0.44065600  0.94374049  0.68732276  1
  Zn  Zn112  1  0.93552576  0.42575174  0.18529024  1
  Zn  Zn113  1  0.94099780  0.44035332  0.69026998  1
  Zn  Zn114  1  0.83050624  0.91249992  0.21699681  1
  Zn  Zn115  1  0.93487243  0.94205723  0.68569215  1
  Zn  Zn116  1  0.06244896  0.05648514  0.29932997  1
  Zn  Zn117  1  0.06502123  0.05957279  0.80431338  1
  Zn  Zn118  1  0.04597241  0.58046668  0.31720347  1
  Zn  Zn119  1  0.04557089  0.58010207  0.84775837  1
  Zn  Zn120  1  0.56061914  0.08246791  0.31733816  1
  Zn  Zn121  1  0.57159322  0.06142545  0.81508830  1
  Zn  Zn122  1  0.54854137  0.57231606  0.30896946  1
  Zn  Zn123  1  0.56085112  0.55944266  0.80769383  1
  Zn  Zn124  1  0.43413674  0.19127108  0.44595455  1
  Zn  Zn125  1  0.44369116  0.18911390  0.93722029  1
  Zn  Zn126  1  0.44759570  0.69104152  0.43525958  1
  Zn  Zn127  1  0.43727318  0.68314690  0.91763046  1
  Zn  Zn128  1  0.96054104  0.14734334  0.41551077  1
  Zn  Zn129  1  0.93337400  0.18265045  0.93755476  1
  Zn  Zn130  1  0.93784036  0.68083260  0.45409894  1
  Zn  Zn131  1  0.93139685  0.71157724  0.93864154  1
  Zn  Zn132  1  0.04383718  0.29181967  0.05394125  1
  Zn  Zn133  1  0.06742299  0.31314866  0.56703968  1
  Zn  Zn134  1  -0.03909783  0.87527644  0.09761492  1
  Zn  Zn135  1  0.07038133  0.83015781  0.55004214  1
  Zn  Zn136  1  0.56044805  0.31391511  0.05049979  1
  Zn  Zn137  1  0.56732560  0.31273175  0.56494374  1
  Zn  Zn138  1  0.52080095  0.75116800  0.03957794  1
  Zn  Zn139  1  0.57131668  0.81522368  0.55506892  1
  O  O140  1  0.13219288  0.10726709  0.10679442  1
  O  O141  1  0.11668774  0.12517951  0.62843917  1
  O  O142  1  0.09129289  0.56128117  0.03397984  1
  O  O143  1  0.13565205  0.60807266  0.61227970  1
  O  O144  1  0.60117259  0.13648829  0.11339876  1
  O  O145  1  0.62279769  0.11701497  0.62143376  1
  O  O146  1  0.61665972  0.58674569  0.10231958  1
  O  O147  1  0.62598033  0.61928889  0.62003369  1
  O  O148  1  0.40834901  0.35016971  0.34188252  1
  O  O149  1  0.36286144  0.39296776  0.88062842  1
  O  O150  1  0.38140019  0.89109575  0.38861230  1
  O  O151  1  0.39824275  0.86955591  0.87656459  1
  O  O152  1  0.87374176  0.37037692  0.39677380  1
  O  O153  1  0.88345905  0.37612540  0.88967063  1
  O  O154  1  0.84021653  0.88998585  0.33504750  1
  O  O155  1  0.89008015  0.87038190  0.86599014  1
  O  O156  1  0.25414736  0.00760286  0.37637974  1
  O  O157  1  0.25136847  0.00985128  0.86502838  1
  O  O158  1  0.25639252  0.52225719  0.38621199  1
  O  O159  1  0.26594392  0.51942673  0.86734445  1
  O  O160  1  0.74300356  0.02235324  0.37624192  1
  O  O161  1  0.82640148  -0.00322834  0.96147980  1
  O  O162  1  0.75164694  0.50731408  0.36846970  1
  O  O163  1  0.74823705  0.49659906  0.85386120  1
  O  O164  1  0.22432307  0.57061288  0.13850338  1
  O  O165  1  0.24930262  0.48550385  0.61865067  1
  O  O166  1  0.26333998  1.00872214  0.14043783  1
  O  O167  1  0.26034634  0.99536062  0.63772998  1
  O  O168  1  0.73532726  0.50172096  0.15023903  1
  O  O169  1  0.74814142  0.49733333  0.63128554  1
  O  O170  1  0.67783315  1.01821357  0.18477971  1
  O  O171  1  0.74372848  0.98912095  0.61921703  1
  O  O172  1  -0.00097256  0.35749250  0.25037326  1
  O  O173  1  -0.00432190  0.35812478  0.75482100  1
  O  O174  1  0.00174193  0.83418804  0.24289318  1
  O  O175  1  0.01746595  0.88036760  0.73605772  1
  O  O176  1  0.45790148  0.35681205  0.28263957  1
  O  O177  1  0.49725833  0.36738863  0.74183251  1
  O  O178  1  0.49292316  0.89495038  0.27038236  1
  O  O179  1  0.50314977  0.87497540  0.75203409  1
  O  O180  1  0.48702406  0.11971235  0.23659347  1
  O  O181  1  0.50453795  0.12117076  0.74018177  1
  O  O182  1  0.56794700  0.65426187  0.24022449  1
  O  O183  1  0.49263084  0.62710149  0.73335028  1
  O  O184  1  0.98475010  0.12697494  0.24241643  1
  O  O185  1  0.99417198  0.13409159  0.73783288  1
  O  O186  1  1.00861583  0.66449900  0.25701943  1
  O  O187  1  0.99157383  0.62233524  0.75639294  1
  O  O188  1  0.36475031  0.23966220  0.00968146  1
  O  O189  1  0.36007248  0.24273492  0.51655614  1
  O  O190  1  0.40051261  0.76717132  -0.00687141  1
  O  O191  1  0.37122380  0.76322947  0.50768545  1
  O  O192  1  0.87385524  0.23468568  0.01995688  1
  O  O193  1  0.86902161  0.26180922  0.51171224  1
  O  O194  1  0.84267627  0.74341696  0.00482021  1
  O  O195  1  0.85574099  0.74267565  0.51343197  1
  O  O196  1  0.14141966  0.25690377  0.49474965  1
  O  O197  1  0.13483312  0.23435453  0.99615126  1
  O  O198  1  0.14237789  0.74231348  0.51811079  1
  O  O199  1  0.05301229  0.62214953  1.01984946  1
  O  O200  1  0.63775528  0.24059166  0.51215967  1
  O  O201  1  0.61011773  0.23589035  0.98191981  1
  O  O202  1  0.64114882  0.73330369  0.50925451  1
  O  O203  1  0.62595478  0.73391400  0.99392614  1
  O  O204  1  0.48290130  0.24084626  0.11610189  1
  O  O205  1  0.49508839  0.24212187  0.63864801  1
  O  O206  1  0.47729459  0.78010786  0.13859453  1
  O  O207  1  0.49522417  0.74795130  0.61461043  1
  O  O208  1  0.98142513  0.24468977  0.13786933  1
  O  O209  1  0.99793164  0.24626715  0.63402258  1
  O  O210  1  0.97036809  0.74836065  0.11267975  1
  O  O211  1  0.98307110  0.77249344  0.60110165  1
  O  O212  1  -0.00006076  0.23839252  0.35780196  1
  O  O213  1  0.01542934  0.24354535  0.87074608  1
  O  O214  1  -0.02583423  0.77917786  0.40915963  1
  O  O215  1  0.01249195  0.77324626  0.88709280  1
  O  O216  1  0.51674995  0.23962044  0.38696163  1
  O  O217  1  0.49622136  0.24918706  0.85729157  1
  O  O218  1  0.50596823  0.77561620  0.38680127  1
  O  O219  1  0.51208301  0.75853164  0.86577821  1
  O  O220  1  0.24835019  0.12166600  0.48989917  1
  O  O221  1  0.24729863  0.12569920  0.98635218  1
  O  O222  1  0.25008871  0.64174090  0.50533774  1
  O  O223  1  0.26316375  0.63015604  0.98866865  1
  O  O224  1  0.74736773  0.13578653  0.49778363  1
  O  O225  1  0.72257604  0.12008676  1.02113073  1
  O  O226  1  0.74524686  0.62289716  0.49278240  1
  O  O227  1  0.72604942  0.62277364  0.99595216  1
  O  O228  1  0.26483285  0.34867866  -0.00342698  1
  O  O229  1  0.25713055  0.36327981  0.49313017  1
  O  O230  1  0.26934878  0.87121186  -0.02495459  1
  O  O231  1  0.26390048  0.88088094  0.51248617  1
  O  O232  1  0.76851743  0.37202459  -0.00492101  1
  O  O233  1  0.76504523  0.37258475  0.51370995  1
  O  O234  1  0.72548033  0.85469954  0.02137004  1
  O  O235  1  0.74290128  0.85642044  0.48227333  1
  O  O236  1  0.07811353  0.50805792  0.22085955  1
  O  O237  1  0.13455030  0.50604624  0.73174793  1
  O  O238  1  0.14067426  1.00652919  0.23253300  1
  O  O239  1  0.14386830  0.98490778  0.75091176  1
  O  O240  1  0.61399916  0.48840102  0.24480070  1
  O  O241  1  0.64215970  0.51083519  0.73645167  1
  O  O242  1  0.62574501  1.00814868  0.23824535  1
  O  O243  1  0.62779832  1.00361175  0.73255972  1
  O  O244  1  0.36282497  0.01082345  0.26496470  1
  O  O245  1  0.36575268  0.00190824  0.75145846  1
  O  O246  1  0.35752663  0.49383520  0.27335910  1
  O  O247  1  0.37954778  0.50503758  0.74390529  1
  O  O248  1  0.86653289  0.01878260  0.24749848  1
  O  O249  1  0.87542914  0.01724447  0.74437333  1
  O  O250  1  0.86735070  0.49945825  0.24172587  1
  O  O251  1  0.87087114  0.51781963  0.74165276  1
  O  O252  1  0.15425980  0.36692818  0.35349033  1
  O  O253  1  0.14169431  0.34451836  0.88080338  1
  O  O254  1  0.10660693  0.76735724  0.33685539  1
  O  O255  1  0.12089414  0.87144448  0.86051706  1
  O  O256  1  0.61887545  0.36314265  0.40653826  1
  O  O257  1  0.61900386  0.35699398  0.88318092  1
  O  O258  1  0.61354920  0.89407526  0.37600601  1
  O  O259  1  0.61203923  0.86093521  0.87519024  1
  O  O260  1  0.38291398  0.12868604  0.12998010  1
  O  O261  1  0.38604914  0.13420175  0.62506021  1
  O  O262  1  0.40472129  0.62244835  0.15566432  1
  O  O263  1  0.38800628  0.63313573  0.61997775  1
  O  O264  1  0.85252083  0.13516828  0.14422135  1
  O  O265  1  0.87948101  0.13874348  0.62884819  1
  O  O266  1  0.86781051  0.63173926  0.11953647  1
  O  O267  1  0.87758662  0.64429733  0.62917025  1
  O  O268  1  0.25482310  0.23480566  0.10974008  1
  O  O269  1  0.25081460  0.25827743  0.61888368  1
  O  O270  1  0.30268684  0.74757278  0.13112065  1
  O  O271  1  0.26607965  0.76465388  0.61521455  1
  O  O272  1  0.75873002  0.25406625  0.13789266  1
  O  O273  1  0.75769519  0.25973678  0.62197975  1
  O  O274  1  0.74123078  0.72675454  0.11824180  1
  O  O275  1  0.75189115  0.76855309  0.61595122  1
  O  O276  1  0.25927612  0.23523507  0.38985216  1
  O  O277  1  0.24528004  0.23295723  0.87974801  1
  O  O278  1  0.25160699  0.77098561  0.40215548  1
  O  O279  1  0.25497108  0.73550675  0.86858601  1
  O  O280  1  0.73993317  0.24976274  0.39087037  1
  O  O281  1  0.73372746  0.25432869  0.86018312  1
  O  O282  1  0.75024859  0.72889786  0.38736185  1
  O  O283  1  0.73244864  0.75736074  0.89006673  1
  O  O284  1  0.01623424  0.12422507  -0.00501724  1
  O  O285  1  0.00201869  0.13690833  0.52027990  1
  O  O286  1  -0.00768995  0.61193234  -0.04267677  1
  O  O287  1  0.00813353  0.60726616  0.50721350  1
  O  O288  1  0.49683902  0.11214849  0.00550836  1
  O  O289  1  0.50865421  0.12187623  0.51333844  1
  O  O290  1  0.50677923  0.63425443  -0.00108555  1
  O  O291  1  0.51848195  0.63087389  0.51079776  1
  O  O292  1  0.48653649  0.38219582  0.54311898  1
  O  O293  1  0.47288035  0.36198120  0.99306988  1
  O  O294  1  0.49665977  0.88982448  0.49638329  1
  O  O295  1  0.50152802  0.89247126  0.99754311  1
  O  O296  1  0.99471695  0.38015842  0.50305486  1
  O  O297  1  0.98258839  0.36728263  1.00078803  1
  O  O298  1  1.06902120  0.80646037  0.38537705  1
  O  O299  1  0.99117062  0.89163651  0.99150326  1
  O  O300  1  0.48015456  0.50891601  0.36773203  1
  O  O301  1  0.47471926  0.51093839  0.86820842  1
  O  O302  1  0.49440432  1.00911019  0.38623781  1
  O  O303  1  0.50739859  0.98538615  0.87578611  1
  O  O304  1  1.00542048  0.50004982  0.39135210  1
  O  O305  1  1.06957893  0.47568295  0.87095302  1
  O  O306  1  0.99261887  1.03581920  0.38371183  1
  O  O307  1  1.00805111  0.98204486  0.86354386  1
  O  O308  1  0.01763372  -0.02443231  0.13094704  1
  O  O309  1  -0.00176803  0.01585700  0.61979987  1
  O  O310  1  0.02729264  0.50686374  0.16483939  1
  O  O311  1  0.02021220  0.48737516  0.61998120  1
  O  O312  1  0.49662776  0.00761849  0.11528003  1
  O  O313  1  0.51144545  0.00565092  0.61823015  1
  O  O314  1  0.50069308  0.48184738  0.13238599  1
  O  O315  1  0.52197969  0.51373229  0.63115701  1
  O  O316  1  0.20823826  0.37348304  0.29069390  1
  O  O317  1  0.24398058  0.37839625  0.75032107  1
  O  O318  1  0.25467596  0.88997261  0.25044225  1
  O  O319  1  0.25778131  0.88754442  0.74562118  1
  O  O320  1  0.75471376  0.38872011  0.26347045  1
  O  O321  1  0.76734619  0.39009614  0.73849377  1
  O  O322  1  0.72288225  0.86962200  0.24906160  1
  O  O323  1  0.74806364  0.87085463  0.74216150  1
  O  O324  1  0.25776509  0.11642651  0.26238557  1
  O  O325  1  0.24794208  0.11401044  0.76003504  1
  O  O326  1  0.22668511  0.57725202  0.20989109  1
  O  O327  1  0.26371561  0.62619258  0.72651171  1
  O  O328  1  0.74117800  0.13566293  0.26298977  1
  O  O329  1  0.76431495  0.13005312  0.74393940  1
  O  O330  1  0.74483932  0.61072420  0.26830591  1
  O  O331  1  0.76275018  0.61710174  0.74390582  1
  O  O332  1  0.37018468  0.12053509  0.37069997  1
  O  O333  1  0.36333672  0.12853435  0.87694987  1
  O  O334  1  0.37296121  0.63404380  0.37562487  1
  O  O335  1  0.36668359  0.61986321  0.85344847  1
  O  O336  1  0.85667249  0.13605956  0.35881838  1
  O  O337  1  0.87681336  0.12995689  0.85857870  1
  O  O338  1  0.86706918  0.62127164  0.38216171  1
  O  O339  1  0.87315040  0.64921871  0.85352092  1
  O  O340  1  0.12490765  0.37433014  0.12872241  1
  O  O341  1  0.14284122  0.38334618  0.62209283  1
  O  O342  1  0.15345327  0.89790503  0.10820739  1
  O  O343  1  0.14601246  0.87454108  0.63448228  1
  O  O344  1  0.62440129  0.38574713  0.11280762  1
  O  O345  1  0.64085253  0.39113493  0.62269887  1
  O  O346  1  0.66178335  0.85718965  0.19644180  1
  O  O347  1  0.63628442  0.88888760  0.61805204  1
  O  O348  1  0.10843375  0.23699349  0.24245928  1
  O  O349  1  0.12089697  0.23948472  0.76337528  1
  O  O350  1  0.12915810  0.74621290  0.17347451  1
  O  O351  1  0.13725574  0.77154564  0.74447884  1
  O  O352  1  0.62629007  0.27090785  0.27183634  1
  O  O353  1  0.60896782  0.24696420  0.75894066  1
  O  O354  1  0.61982024  0.79549913  0.20994013  1
  O  O355  1  0.63815622  0.74157018  0.76262416  1
  O  O356  1  0.35663533  0.23909745  0.23042401  1
  O  O357  1  0.38473407  0.25226346  0.74135473  1
  O  O358  1  0.38360422  0.74654710  0.26935011  1
  O  O359  1  0.37337736  0.74330012  0.73236864  1
  O  O360  1  0.88250287  0.24381997  0.24426564  1
  O  O361  1  0.88377930  0.24493092  0.74332628  1
  O  O362  1  0.85697556  0.73517853  0.23841293  1
  O  O363  1  0.87274504  0.74442709  0.73179123  1
  O  O364  1  0.37655005  0.49941745  0.47590045  1
  O  O365  1  0.37663164  0.48829130  1.00901585  1
  O  O366  1  0.38586382  0.99929535  0.49690236  1
  O  O367  1  0.38689021  0.99581023  0.98695206  1
  O  O368  1  0.89198745  0.48772816  0.51355765  1
  O  O369  1  0.87168664  0.49171017  1.01240526  1
  O  O370  1  0.88465433  0.99460018  0.49241819  1
  O  O371  1  0.86833257  1.01816841  1.01587772  1
  O  O372  1  0.12982345  0.00629035  0.00378778  1
  O  O373  1  0.08696740  -0.07698994  0.48618137  1
  O  O374  1  0.17152661  0.42686498  0.10803788  1
  O  O375  1  0.11805174  0.50216983  0.50484817  1
  O  O376  1  0.60694213  0.01468233  -0.00614948  1
  O  O377  1  0.61844059  0.01619661  0.50972646  1
  O  O378  1  0.61773649  0.50583746  -0.02837051  1
  O  O379  1  0.63513879  0.51181290  0.51636026  1
  O  O380  1  0.37201860  0.35930749  0.11686641  1
  O  O381  1  0.35280476  0.36235887  0.63213157  1
  O  O382  1  0.36918421  0.89070744  0.09589910  1
  O  O383  1  0.37742223  0.87320747  0.61757262  1
  O  O384  1  0.87401710  0.36163923  0.11338759  1
  O  O385  1  0.87479030  0.36526778  0.62152568  1
  O  O386  1  0.85544211  0.85088427  0.12863097  1
  O  O387  1  0.86003890  0.86925205  0.62978706  1
  O  O388  1  0.14085317  0.12777916  0.36906155  1
  O  O389  1  0.13457892  0.12667982  0.88518350  1
  O  O390  1  0.12042356  0.62454680  0.39563703  1
  O  O391  1  0.14516288  0.63311757  0.87347485  1
  O  O392  1  0.63389279  0.14015253  0.38659961  1
  O  O393  1  0.62675315  0.13126398  0.88419856  1
  O  O394  1  0.63045413  0.61524854  0.39402196  1
  O  O395  1  0.61333139  0.63595001  0.87833712  1
