# generated using pymatgen
data_V35Zn35O128
_symmetry_space_group_name_H-M   'P 1'
_cell_length_a   16.88256399
_cell_length_b   16.88538288
_cell_length_c   16.90741889
_cell_angle_alpha   89.89385861
_cell_angle_beta   90.09277294
_cell_angle_gamma   90.04211638
_symmetry_Int_Tables_number   1
_chemical_formula_structural   V35Zn35O128
_chemical_formula_sum   'V70 Zn70 O256'
_cell_volume   4819.75762554
_cell_formula_units_Z   2
loop_
 _symmetry_equiv_pos_site_id
 _symmetry_equiv_pos_as_xyz
  1  'x, y, z'
loop_
 _atom_site_type_symbol
 _atom_site_label
 _atom_site_symmetry_multiplicity
 _atom_site_fract_x
 _atom_site_fract_y
 _atom_site_fract_z
 _atom_site_occupancy
  V  V0  1  0.18570368  0.44972984  0.80009616  1
  V  V1  1  -0.00587404  0.75310689  0.74341027  1
  V  V2  1  0.63180232  0.50784293  0.62895927  1
  V  V3  1  0.50016435  0.75489481  0.74754816  1
  V  V4  1  0.37699067  0.37291072  0.50812582  1
  V  V5  1  0.24485927  0.63257775  0.37942735  1
  V  V6  1  -0.00482904  0.34895209  0.38053888  1
  V  V7  1  0.37342385  0.50407582  0.37265500  1
  V  V8  1  0.75961793  0.49815627  0.24772725  1
  V  V9  1  0.24260307  0.24454016  0.49352431  1
  V  V10  1  0.75467037  0.11417738  0.86695900  1
  V  V11  1  0.87787953  0.50315626  0.89903551  1
  V  V12  1  0.37401582  0.24506718  0.13254977  1
  V  V13  1  0.26296579  0.10643878  0.86353625  1
  V  V14  1  0.75290365  0.76065754  0.01361419  1
  V  V15  1  0.12036707  0.34665643  0.26519528  1
  V  V16  1  0.76983064  0.37078040  0.11351720  1
  V  V17  1  0.60594552  -0.00616257  0.62743120  1
  V  V18  1  0.87740200  0.12941357  0.74439388  1
  V  V19  1  0.25059379  0.74899692  -0.00751238  1
  V  V20  1  0.50852553  0.37911420  0.37471998  1
  V  V21  1  0.24517068  0.62972690  0.86728709  1
  V  V22  1  0.86580556  0.75951643  0.61761860  1
  V  V23  1  0.86799886  0.62285541  0.74689448  1
  V  V24  1  0.24067417  0.36663586  0.13732098  1
  V  V25  1  0.62339691  0.37978107  0.24664572  1
  V  V26  1  0.50263561  0.62911402  0.62308324  1
  V  V27  1  0.48897674  0.24589461  0.73917682  1
  V  V28  1  0.73930996  0.24384360  0.49140704  1
  V  V29  1  0.62751700  0.38086453  0.75118603  1
  V  V30  1  0.75391382  0.37164017  0.63042119  1
  V  V31  1  0.50390518  0.50728642  0.50107767  1
  V  V32  1  0.60361364  0.12035761  0.49905542  1
  V  V33  1  0.12334660  0.49551257  0.61949434  1
  V  V34  1  0.37148821  0.61559664  0.74967230  1
  V  V35  1  0.89595582  0.92486041  0.46871043  1
  V  V36  1  0.37686621  0.73599210  0.12651683  1
  V  V37  1  0.37312221  0.38198276  0.00486960  1
  V  V38  1  0.50101670  0.12491314  0.12371795  1
  V  V39  1  0.12147289  0.74984566  0.87436547  1
  V  V40  1  0.62931812  0.25193958  0.87405270  1
  V  V41  1  0.11757022  0.11885103  -0.00719052  1
  V  V42  1  0.25490113  0.87728968  0.12146267  1
  V  V43  1  0.26205366  0.01218759  0.25270723  1
  V  V44  1  0.23810136  0.49757013  0.25819686  1
  V  V45  1  0.87158822  0.36753141  0.50251576  1
  V  V46  1  0.63134268  0.12460971  0.00150274  1
  V  V47  1  0.12255942  0.63511406  0.50050055  1
  V  V48  1  0.62297321  0.75169141  0.87874419  1
  V  V49  1  -0.01291234  0.88992275  0.88476597  1
  V  V50  1  0.13074260  0.88688468  0.74835395  1
  V  V51  1  0.00804046  0.13561241  0.61776004  1
  V  V52  1  0.49727902  0.00515388  -0.00876236  1
  V  V53  1  0.49873396  0.38324821  0.88139833  1
  V  V54  1  0.11926952  0.85307615  0.24182613  1
  V  V55  1  0.11487292  0.00415930  0.12046608  1
  V  V56  1  0.76542715  0.90292803  0.64163195  1
  V  V57  1  0.01138810  0.26425194  0.76126394  1
  V  V58  1  0.50200424  0.87813068  0.86537073  1
  V  V59  1  0.61232338  0.87264484  0.24833893  1
  V  V60  1  0.50478353  0.24867609  0.25284976  1
  V  V61  1  -0.00650511  0.50259540  0.49390154  1
  V  V62  1  0.24455242  0.24620313  -0.00817711  1
  V  V63  1  0.74430653  0.62400727  0.88347253  1
  V  V64  1  0.36035772  0.74852853  0.61501940  1
  V  V65  1  0.24444596  0.87470089  0.61028302  1
  V  V66  1  0.37636499  0.87944441  -0.01119699  1
  V  V67  1  0.61480883  0.49163498  0.10485724  1
  V  V68  1  0.25255158  0.37490136  0.62793205  1
  V  V69  1  0.50196167  0.61358268  0.11551980  1
  Zn  Zn70  1  0.77399634  0.24911671  -0.00011247  1
  Zn  Zn71  1  -0.00073974  0.38404215  0.88143417  1
  Zn  Zn72  1  0.87680195  0.62336074  0.26021346  1
  Zn  Zn73  1  0.12389449  0.01127707  0.61595010  1
  Zn  Zn74  1  0.37817648  0.50558970  0.88686967  1
  Zn  Zn75  1  0.73256105  0.66387047  0.39593851  1
  Zn  Zn76  1  0.18241654  0.18004006  0.18833951  1
  Zn  Zn77  1  0.18621164  0.19407782  0.69297690  1
  Zn  Zn78  1  0.17963066  0.67358933  0.17111083  1
  Zn  Zn79  1  0.17820112  0.68465557  0.68674757  1
  Zn  Zn80  1  0.70029573  0.19395804  0.18678790  1
  Zn  Zn81  1  0.67973131  0.18292478  0.68283755  1
  Zn  Zn82  1  0.68478402  0.67342826  0.19834677  1
  Zn  Zn83  1  0.68913160  0.69934409  0.68795571  1
  Zn  Zn84  1  0.31996065  0.30871182  0.32072025  1
  Zn  Zn85  1  0.31652760  0.31027399  0.81539817  1
  Zn  Zn86  1  0.31731400  0.80793465  0.30266411  1
  Zn  Zn87  1  0.31520236  0.81466618  0.80248483  1
  Zn  Zn88  1  0.80702103  0.31561328  0.31687713  1
  Zn  Zn89  1  0.81927437  0.31504596  0.81404959  1
  Zn  Zn90  1  0.79874529  0.86127123  0.33126439  1
  Zn  Zn91  1  0.80725280  0.81836485  0.81587241  1
  Zn  Zn92  1  0.18320827  0.42880831  0.44116180  1
  Zn  Zn93  1  0.17738538  0.44307271  0.96699008  1
  Zn  Zn94  1  0.23103810  0.90107370  0.40847909  1
  Zn  Zn95  1  0.18735166  0.93945579  0.93116406  1
  Zn  Zn96  1  0.71180796  0.47866341  0.45483350  1
  Zn  Zn97  1  0.69886844  0.43528977  0.93361399  1
  Zn  Zn98  1  0.71693019  0.96404493  0.46376880  1
  Zn  Zn99  1  0.68600237  0.93682544  0.93615072  1
  Zn  Zn100  1  0.31349186  0.06332668  0.05913110  1
  Zn  Zn101  1  0.30839764  0.05295379  0.55187742  1
  Zn  Zn102  1  0.28351841  0.56377128  0.06964696  1
  Zn  Zn103  1  0.30986608  0.56169970  0.56083180  1
  Zn  Zn104  1  0.80006750  0.06189260  0.30985605  1
  Zn  Zn105  1  0.83375851  0.07574115  0.55480902  1
  Zn  Zn106  1  0.80465765  0.57232370  0.07959219  1
  Zn  Zn107  1  0.81415842  0.57111186  0.56350828  1
  Zn  Zn108  1  0.43292247  0.44099383  0.18875982  1
  Zn  Zn109  1  0.44190925  0.43687409  0.69136983  1
  Zn  Zn110  1  0.43276127  0.94256964  0.17527075  1
  Zn  Zn111  1  0.45223103  0.89888037  0.53277917  1
  Zn  Zn112  1  0.94425294  0.43223624  0.19612680  1
  Zn  Zn113  1  0.93882710  0.44071294  0.68675416  1
  Zn  Zn114  1  0.93954851  0.93955825  0.18518997  1
  Zn  Zn115  1  0.94368897  0.95010885  0.69366165  1
  Zn  Zn116  1  0.07979266  -0.01290336  0.33257397  1
  Zn  Zn117  1  0.06355104  0.06966747  0.81231179  1
  Zn  Zn118  1  0.06489169  0.55177441  0.31969689  1
  Zn  Zn119  1  0.05030468  0.57093550  0.81470559  1
  Zn  Zn120  1  0.61149007  0.09031034  0.29271018  1
  Zn  Zn121  1  0.56243610  0.06266773  0.80730762  1
  Zn  Zn122  1  0.54628597  0.60176952  0.31274960  1
  Zn  Zn123  1  0.56142090  0.56571875  0.81175875  1
  Zn  Zn124  1  0.45292886  0.20698734  0.45410130  1
  Zn  Zn125  1  0.43757878  0.19561978  0.93291832  1
  Zn  Zn126  1  0.43016483  0.71227353  0.43580209  1
  Zn  Zn127  1  0.43673546  0.68364650  0.93862511  1
  Zn  Zn128  1  0.96273032  0.12536379  0.40782513  1
  Zn  Zn129  1  0.94301038  0.18681200  0.92659290  1
  Zn  Zn130  1  0.92925345  0.68760805  0.43049660  1
  Zn  Zn131  1  0.92657791  0.70533759  0.93473787  1
  Zn  Zn132  1  0.06075729  0.30441381  0.06671075  1
  Zn  Zn133  1  0.06246451  0.30777211  0.56878238  1
  Zn  Zn134  1  0.06464940  0.81709557  0.05677807  1
  Zn  Zn135  1  0.05398248  0.82173386  0.55864323  1
  Zn  Zn136  1  0.56104820  0.30950611  0.06003858  1
  Zn  Zn137  1  0.56742054  0.31675328  0.56392492  1
  Zn  Zn138  1  0.55523453  0.80455713  0.05413553  1
  Zn  Zn139  1  0.58292277  0.77103869  0.42921072  1
  O  O140  1  0.12837706  0.11179369  0.11177590  1
  O  O141  1  0.11500508  0.12948342  0.62975475  1
  O  O142  1  0.17744378  0.59375362  0.09885861  1
  O  O143  1  0.12922652  0.61179732  0.61060789  1
  O  O144  1  0.61722067  0.13773838  0.10519135  1
  O  O145  1  0.62721716  0.10647744  0.61590345  1
  O  O146  1  0.61055010  0.60510299  0.12249635  1
  O  O147  1  0.61474044  0.62116642  0.63649755  1
  O  O148  1  0.38604214  0.38516260  0.38645999  1
  O  O149  1  0.38001328  0.38085888  0.88617367  1
  O  O150  1  0.33778732  0.86103988  0.39456989  1
  O  O151  1  0.38314233  0.86841907  0.88200907  1
  O  O152  1  0.88720900  0.36981654  0.38494851  1
  O  O153  1  0.86744775  0.40017167  0.87925664  1
  O  O154  1  0.90028152  0.87939462  0.37770077  1
  O  O155  1  0.88765159  0.87745301  0.87054397  1
  O  O156  1  0.23918069  0.00138953  0.35151207  1
  O  O157  1  0.25957840  0.00538528  0.87157204  1
  O  O158  1  0.25391523  0.49337282  0.37158416  1
  O  O159  1  0.23670176  0.50756003  0.87504504  1
  O  O160  1  0.75838848  -0.03214272  0.35990587  1
  O  O161  1  0.74102743  0.01567867  0.87339880  1
  O  O162  1  0.73587760  0.49747759  0.34412930  1
  O  O163  1  0.75958549  0.51762634  0.87722285  1
  O  O164  1  0.25858003  0.47387167  0.15152368  1
  O  O165  1  0.23564910  0.49222375  0.61967047  1
  O  O166  1  0.25110738  0.98917394  0.12400363  1
  O  O167  1  0.24414735  0.98037993  0.61544156  1
  O  O168  1  0.73743376  0.48037886  0.12340772  1
  O  O169  1  0.73758446  0.49439835  0.62380971  1
  O  O170  1  0.79634091  1.02227150  0.11234298  1
  O  O171  1  0.78335982  1.00251559  0.63167849  1
  O  O172  1  0.00942224  0.36837071  0.26657384  1
  O  O173  1  -0.00668625  0.36892122  0.75477725  1
  O  O174  1  0.02005207  0.86720897  0.22612872  1
  O  O175  1  0.00926426  0.86843151  0.75786731  1
  O  O176  1  0.50408160  0.37219532  0.25540349  1
  O  O177  1  0.50918437  0.36995674  0.75956452  1
  O  O178  1  0.50528366  0.87284115  0.24937837  1
  O  O179  1  0.48637473  0.86250406  0.76081421  1
  O  O180  1  0.51829407  0.13683459  0.23565057  1
  O  O181  1  0.50651604  0.14798907  0.75770232  1
  O  O182  1  0.48201349  0.60330577  0.21698680  1
  O  O183  1  0.49060931  0.63178844  0.74385606  1
  O  O184  1  0.97345148  0.04220171  0.31001484  1
  O  O185  1  0.99444581  0.14270362  0.75539463  1
  O  O186  1  0.99601688  0.64377584  0.28593467  1
  O  O187  1  0.98457935  0.64424756  0.75540551  1
  O  O188  1  0.36070071  0.26018344  0.00923985  1
  O  O189  1  0.37174569  0.26788367  0.50346362  1
  O  O190  1  0.36734778  0.75989635  0.00019542  1
  O  O191  1  0.35504745  0.72760574  0.51843354  1
  O  O192  1  0.89575982  0.24987713  0.01669383  1
  O  O193  1  0.85377569  0.26706627  0.50689851  1
  O  O194  1  0.85499781  0.75123806  0.00756623  1
  O  O195  1  0.88791919  0.74707191  0.52056494  1
  O  O196  1  0.14274059  0.25691557  0.50448111  1
  O  O197  1  0.13724834  0.23441495  1.01152621  1
  O  O198  1  0.10625226  0.73307416  0.50545171  1
  O  O199  1  0.14013190  0.76081844  0.98416951  1
  O  O200  1  0.63056754  0.23538962  0.51190700  1
  O  O201  1  0.61720538  0.24012670  0.98542750  1
  O  O202  1  0.68689165  0.75318324  0.45568642  1
  O  O203  1  0.62414169  0.74668097  0.98361274  1
  O  O204  1  0.49206802  0.24518403  0.13069269  1
  O  O205  1  0.50434560  0.26047102  0.63988885  1
  O  O206  1  0.48632193  0.73131801  0.11235914  1
  O  O207  1  0.48123482  0.74055829  0.63301208  1
  O  O208  1  0.97877186  0.24368742  0.12714315  1
  O  O209  1  1.00340343  0.24592428  0.64535473  1
  O  O210  1  1.01812038  0.70734207  0.08726621  1
  O  O211  1  0.99162150  0.75806925  0.64066058  1
  O  O212  1  -0.00460574  0.25147009  0.38465877  1
  O  O213  1  0.00110682  0.26659237  0.87175053  1
  O  O214  1  0.00470814  0.70547900  0.33793416  1
  O  O215  1  0.00569023  0.76006980  0.86789008  1
  O  O216  1  0.49257924  0.26357490  0.36410209  1
  O  O217  1  0.50873940  0.26453839  0.86794247  1
  O  O218  1  0.51722931  0.69745114  0.36914498  1
  O  O219  1  0.50356398  0.75387333  0.86893622  1
  O  O220  1  0.26436966  0.14832460  0.52037377  1
  O  O221  1  0.24926996  0.13618585  0.99306209  1
  O  O222  1  0.23458521  0.62226682  0.49175993  1
  O  O223  1  0.25996200  0.63959321  0.97558304  1
  O  O224  1  0.75451792  0.14294885  0.49979722  1
  O  O225  1  0.73536058  0.13205776  0.98781728  1
  O  O226  1  0.74309899  0.58733037  0.48022221  1
  O  O227  1  0.75068358  0.63470053  0.98671015  1
  O  O228  1  0.24656113  0.36312117  0.01659600  1
  O  O229  1  0.25866067  0.36947465  0.50846736  1
  O  O230  1  0.25827174  0.87044469  -0.00006695  1
  O  O231  1  0.21997333  0.85947235  0.51533179  1
  O  O232  1  0.75559519  0.36942247  0.00893600  1
  O  O233  1  0.75271506  0.38116206  0.51121122  1
  O  O234  1  0.73617568  0.86169422  0.00305460  1
  O  O235  1  0.80196367  0.89984231  0.51194917  1
  O  O236  1  0.13443853  0.48026907  0.25982316  1
  O  O237  1  0.12215335  0.50837451  0.73969879  1
  O  O238  1  0.13859249  0.99159690  0.22669907  1
  O  O239  1  0.12177634  0.98770513  0.74645593  1
  O  O240  1  0.63143365  0.48505411  0.22899356  1
  O  O241  1  0.61963280  0.49025002  0.74329622  1
  O  O242  1  0.60601360  0.97657669  0.25867222  1
  O  O243  1  0.61267294  0.99879191  0.72877369  1
  O  O244  1  0.36176147  -0.00931006  0.24564597  1
  O  O245  1  0.38432084  0.04790316  0.71211368  1
  O  O246  1  0.35892163  0.48606051  0.26620866  1
  O  O247  1  0.37837303  0.51203315  0.75440593  1
  O  O248  1  0.90627605  0.01745359  0.26597235  1
  O  O249  1  0.88738014  0.02955176  0.75889271  1
  O  O250  1  0.86230235  0.48940885  0.25589700  1
  O  O251  1  0.87875833  0.52192534  0.74647506  1
  O  O252  1  0.11253837  0.36520019  0.37284724  1
  O  O253  1  0.12770773  0.39721602  0.86362253  1
  O  O254  1  0.12720376  0.88045698  0.34484401  1
  O  O255  1  0.12295620  0.86820614  0.86170613  1
  O  O256  1  0.61051087  0.38728868  0.36468319  1
  O  O257  1  0.62236470  0.37238189  0.86990097  1
  O  O258  1  0.61375988  0.86368545  0.35158289  1
  O  O259  1  0.61126319  0.86664804  0.87532233  1
  O  O260  1  0.38657391  0.13677250  0.11532754  1
  O  O261  1  0.38050399  0.09400565  0.65516098  1
  O  O262  1  0.36590442  0.63415530  0.11589722  1
  O  O263  1  0.37701374  0.62734684  0.63321876  1
  O  O264  1  0.91524117  0.21329266  0.09290150  1
  O  O265  1  0.88652309  0.13602977  0.64004791  1
  O  O266  1  0.92597843  0.59201589  0.14774760  1
  O  O267  1  0.86370040  0.64296206  0.63938575  1
  O  O268  1  0.25689786  0.25190293  0.12514888  1
  O  O269  1  0.24671922  0.27157842  0.62862499  1
  O  O270  1  0.25853149  0.75754454  0.10849525  1
  O  O271  1  0.25592872  0.75568675  0.63833382  1
  O  O272  1  0.75328751  0.26505506  0.12033542  1
  O  O273  1  0.73967808  0.26899996  0.61724035  1
  O  O274  1  0.72914034  0.73634895  0.10949189  1
  O  O275  1  0.76177246  0.76732617  0.62647015  1
  O  O276  1  0.25805840  0.24820925  0.39300030  1
  O  O277  1  0.24669296  0.25753250  0.89204112  1
  O  O278  1  0.24614862  0.72870142  0.36207476  1
  O  O279  1  0.24244145  0.74836673  0.87241859  1
  O  O280  1  0.73630547  0.26628331  0.39413026  1
  O  O281  1  0.74119492  0.25092552  0.88106517  1
  O  O282  1  0.73724598  0.76763245  0.33078994  1
  O  O283  1  0.74140151  0.74608590  0.88180267  1
  O  O284  1  0.01893348  0.12419472  -0.01301496  1
  O  O285  1  -0.00764042  0.14830057  0.52035553  1
  O  O286  1  0.00511061  0.66124246  0.02768469  1
  O  O287  1  0.00634128  0.60936052  0.48968877  1
  O  O288  1  0.50590986  0.12306408  -0.00020259  1
  O  O289  1  0.50169207  0.12565194  0.51019789  1
  O  O290  1  0.48307256  0.61125885  0.01192868  1
  O  O291  1  0.49074990  0.61690501  0.51531444  1
  O  O292  1  0.49632525  0.38305843  0.49486833  1
  O  O293  1  0.48437047  0.36725234  0.99344323  1
  O  O294  1  0.48998989  0.81276408  0.47369246  1
  O  O295  1  0.49494395  0.88355145  0.99030403  1
  O  O296  1  0.99284479  0.37344807  0.49514090  1
  O  O297  1  1.02818789  0.39508256  1.00126129  1
  O  O298  1  0.98254345  0.89667966  0.51506046  1
  O  O299  1  1.00024869  0.87277160  0.98496836  1
  O  O300  1  0.49269368  0.50212872  0.38239827  1
  O  O301  1  0.50039081  0.48783920  0.87356467  1
  O  O302  1  0.47541128  0.98822085  0.39524387  1
  O  O303  1  0.50425595  0.99226445  0.88092128  1
  O  O304  1  1.00302627  0.48352750  0.39150565  1
  O  O305  1  0.98252383  0.50615201  0.87789675  1
  O  O306  1  1.08523576  1.08914168  0.39226851  1
  O  O307  1  1.00808133  0.98778880  0.87233611  1
  O  O308  1  0.01602276  -0.00355880  0.11924998  1
  O  O309  1  0.00320677  0.02622389  0.63002335  1
  O  O310  1  -0.01599791  0.53961136  0.15140478  1
  O  O311  1  0.01366437  0.49172732  0.61241113  1
  O  O312  1  0.49578464  0.01549386  0.10929026  1
  O  O313  1  0.51164022  -0.03413674  0.60726332  1
  O  O314  1  0.50716212  0.49302787  0.11494579  1
  O  O315  1  0.50719680  0.50899776  0.62201496  1
  O  O316  1  0.23593327  0.36720814  0.25723599  1
  O  O317  1  0.25071713  0.38631923  0.75013320  1
  O  O318  1  0.24398217  0.87424931  0.23060539  1
  O  O319  1  0.23500595  0.87164706  0.74147627  1
  O  O320  1  0.74591520  0.37826200  0.23637821  1
  O  O321  1  0.74233812  0.37229739  0.73956787  1
  O  O322  1  0.71574423  0.88311750  0.23349430  1
  O  O323  1  0.75382114  0.88571323  0.74076314  1
  O  O324  1  0.25706738  0.11218521  0.23834315  1
  O  O325  1  0.24599164  0.13177740  0.76707486  1
  O  O326  1  0.23667252  0.60269530  0.26542703  1
  O  O327  1  0.25543627  0.62890916  0.75833521  1
  O  O328  1  0.71490386  0.10470635  0.24876264  1
  O  O329  1  0.76003487  0.13733988  0.75973316  1
  O  O330  1  0.77710324  0.60130735  0.19756489  1
  O  O331  1  0.76248121  0.63997941  0.76350060  1
  O  O332  1  0.41206703  0.02113870  0.41724294  1
  O  O333  1  0.36065217  0.13215386  0.88070912  1
  O  O334  1  0.35509031  0.61272700  0.38601126  1
  O  O335  1  0.36590375  0.62226074  0.86591044  1
  O  O336  1  0.86078589  0.16013102  0.34319828  1
  O  O337  1  0.85677899  0.12899813  0.87906456  1
  O  O338  1  0.84423509  0.66440883  0.35988700  1
  O  O339  1  0.86673312  0.62244191  0.86940678  1
  O  O340  1  0.13031044  0.35708959  0.14809709  1
  O  O341  1  0.13315596  0.38860296  0.62464050  1
  O  O342  1  0.13647664  0.88135051  0.12108065  1
  O  O343  1  0.12712460  0.87282488  0.63680317  1
  O  O344  1  0.62399615  0.37958721  0.12575421  1
  O  O345  1  0.63257007  0.38695862  0.63329778  1
  O  O346  1  0.60266565  0.87925411  0.14227261  1
  O  O347  1  0.66380423  0.90297666  0.60686901  1
  O  O348  1  0.12211464  0.24716483  0.25970133  1
  O  O349  1  0.11196633  0.25562527  0.75842557  1
  O  O350  1  0.13262291  0.75344207  0.23175857  1
  O  O351  1  0.11095438  0.75495077  0.75432417  1
  O  O352  1  0.61388682  0.26591408  0.24057661  1
  O  O353  1  0.62195427  0.26261898  0.75752100  1
  O  O354  1  0.61345996  0.76895193  0.23682725  1
  O  O355  1  0.60889793  0.74743716  0.75837855  1
  O  O356  1  0.38797453  0.25499376  0.24145583  1
  O  O357  1  0.38849716  0.25737227  0.75007029  1
  O  O358  1  0.37174232  0.75086279  0.22514717  1
  O  O359  1  0.38040164  0.73819830  0.74331339  1
  O  O360  1  0.86368889  0.21500445  0.28395799  1
  O  O361  1  0.88772254  0.24099260  0.76316519  1
  O  O362  1  0.86056692  0.79497391  0.23184616  1
  O  O363  1  0.88270081  0.74860047  0.74862839  1
  O  O364  1  0.38320385  0.49368432  0.49423407  1
  O  O365  1  0.34952489  0.48445343  1.00551053  1
  O  O366  1  0.37927004  0.98496247  0.49307922  1
  O  O367  1  0.38484832  0.99061242  1.00087338  1
  O  O368  1  0.89038492  0.49134700  0.51099793  1
  O  O369  1  0.87165833  0.51708019  0.99750657  1
  O  O370  1  0.89294831  1.03212249  0.46349921  1
  O  O371  1  0.85013482  0.97610675  1.09185462  1
  O  O372  1  0.13541213  0.00816555  0.00901231  1
  O  O373  1  0.12773151  0.00532595  0.48914968  1
  O  O374  1  0.07657872  0.46177302  0.01803755  1
  O  O375  1  0.11557581  0.50137969  0.50732645  1
  O  O376  1  0.61500741  0.01750702  -0.00711304  1
  O  O377  1  0.62755363  0.01379783  0.50653639  1
  O  O378  1  0.62839392  0.49148067  0.00647823  1
  O  O379  1  0.60924403  0.49544673  0.51298462  1
  O  O380  1  0.36702397  0.36318729  0.12282719  1
  O  O381  1  0.36651320  0.39196507  0.61710783  1
  O  O382  1  0.37279042  0.86516418  0.10889446  1
  O  O383  1  0.35842687  0.85837349  0.61061048  1
  O  O384  1  0.86887797  0.38169732  0.12561801  1
  O  O385  1  0.85843271  0.38387529  0.62271167  1
  O  O386  1  0.86384172  0.83826308  0.17018041  1
  O  O387  1  0.87668758  0.86608210  0.64128234  1
  O  O388  1  0.12762106  0.08061140  0.46229420  1
  O  O389  1  0.14313841  0.11597797  0.88913008  1
  O  O390  1  0.13401468  0.61452764  0.39020992  1
  O  O391  1  0.13018153  0.63925478  0.86583828  1
  O  O392  1  0.61444277  0.12429363  0.39874426  1
  O  O393  1  0.63357976  0.13448951  0.87611943  1
  O  O394  1  0.65724453  0.63149954  0.30455095  1
  O  O395  1  0.63866166  0.63172603  0.86621756  1
