# generated using pymatgen
data_V35Zn35O128
_symmetry_space_group_name_H-M   'P 1'
_cell_length_a   16.91622014
_cell_length_b   16.82327339
_cell_length_c   16.84415799
_cell_angle_alpha   90.03920911
_cell_angle_beta   89.76584742
_cell_angle_gamma   89.83548638
_symmetry_Int_Tables_number   1
_chemical_formula_structural   V35Zn35O128
_chemical_formula_sum   'V70 Zn70 O256'
_cell_volume   4793.55389736
_cell_formula_units_Z   2
loop_
 _symmetry_equiv_pos_site_id
 _symmetry_equiv_pos_as_xyz
  1  'x, y, z'
loop_
 _atom_site_type_symbol
 _atom_site_label
 _atom_site_symmetry_multiplicity
 _atom_site_fract_x
 _atom_site_fract_y
 _atom_site_fract_z
 _atom_site_occupancy
  V  V0  1  0.86984147  -0.00795634  0.38167269  1
  V  V1  1  0.00232967  -0.01101088  0.50164787  1
  V  V2  1  0.11442794  0.86436662  0.24676913  1
  V  V3  1  0.74415646  0.88603460  0.60982044  1
  V  V4  1  0.25408461  0.62177272  0.38489044  1
  V  V5  1  0.00682508  0.24370598  0.76572105  1
  V  V6  1  0.13692999  0.12814122  0.48368207  1
  V  V7  1  0.76054913  0.13469419  0.38713791  1
  V  V8  1  0.36428336  0.23792468  0.62299694  1
  V  V9  1  0.63024671  0.11947940  0.00012520  1
  V  V10  1  0.85833408  0.75640901  0.65691080  1
  V  V11  1  0.75310333  0.25087053  0.01215176  1
  V  V12  1  0.89591716  0.62287131  0.26083364  1
  V  V13  1  0.46320454  0.30544398  0.77430494  1
  V  V14  1  0.75495677  0.00973479  0.24191742  1
  V  V15  1  0.76014793  0.62814084  0.86506421  1
  V  V16  1  0.53114060  0.46626116  0.50222980  1
  V  V17  1  0.74511660  0.38628480  0.63199177  1
  V  V18  1  0.11717993  0.62474831  0.00822973  1
  V  V19  1  0.26180958  0.74412471  0.00230751  1
  V  V20  1  0.37025994  0.62072461  0.74120622  1
  V  V21  1  0.62137229  0.25608577  0.38523167  1
  V  V22  1  -0.00723626  -0.00659709  -0.00180227  1
  V  V23  1  0.37557739  0.76346481  0.62111624  1
  V  V24  1  0.50213899  -0.01786759  0.00234082  1
  V  V25  1  -0.01674581  0.13162280  0.13012507  1
  V  V26  1  0.25578860  -0.00697570  0.73974021  1
  V  V27  1  0.49805272  0.14544280  0.12223242  1
  V  V28  1  0.75352737  0.76376710  0.02063759  1
  V  V29  1  -0.00611620  0.64249976  0.63575826  1
  V  V30  1  0.11464694  0.37338075  0.75910313  1
  V  V31  1  0.64388118  0.25515743  0.86410779  1
  V  V32  1  0.63837027  0.88671985  0.25150644  1
  V  V33  1  0.13067486  0.87410511  0.74012334  1
  V  V34  1  0.62458851  0.75075599  0.39043884  1
  V  V35  1  0.26010238  0.86642249  0.12275486  1
  V  V36  1  0.51286047  0.74832579  0.75674835  1
  V  V37  1  0.37340764  0.63011598  0.24024592  1
  V  V38  1  0.00545761  0.28033617  0.27028770  1
  V  V39  1  0.12104755  0.48052704  0.12285207  1
  V  V40  1  0.87125389  0.24519021  0.62014704  1
  V  V41  1  0.63876355  0.62525612  -0.00282630  1
  V  V42  1  0.25196281  0.77395618  0.50411066  1
  V  V43  1  -0.00841423  0.87135498  0.87189564  1
  V  V44  1  0.01372929  0.12183069  0.62223459  1
  V  V45  1  0.14129715  0.12296644  -0.00639151  1
  V  V46  1  0.88961649  0.37994344  0.49857845  1
  V  V47  1  0.87080474  0.49517143  0.86247529  1
  V  V48  1  0.49424189  0.77234639  0.25564195  1
  V  V49  1  0.11952865  0.74870617  0.37936340  1
  V  V50  1  0.37382203  -0.02799158  0.89070933  1
  V  V51  1  0.62377035  0.37453755  0.24850836  1
  V  V52  1  0.10669526  0.50288437  0.61974791  1
  V  V53  1  0.89195404  0.74993213  0.13354690  1
  V  V54  1  0.86942899  0.37302860  0.01336662  1
  V  V55  1  0.50167831  0.50032026  -0.00656037  1
  V  V56  1  0.24868031  0.61780795  0.86951531  1
  V  V57  1  0.29751178  0.30929609  0.00016552  1
  V  V58  1  0.12444653  -0.00246186  0.12871326  1
  V  V59  1  -0.00445988  0.49597071  -0.00498979  1
  V  V60  1  0.24806342  0.49013938  0.74168398  1
  V  V61  1  0.12005806  0.74938145  0.86988621  1
  V  V62  1  0.25016129  0.48763529  0.24351839  1
  V  V63  1  0.37986628  0.11912223  0.77416416  1
  V  V64  1  0.72884880  -0.00268313  0.75251235  1
  V  V65  1  0.52077797  0.62400135  0.13703354  1
  V  V66  1  0.74815334  0.51032265  0.24669847  1
  V  V67  1  0.87264507  0.11554847  0.75854972  1
  V  V68  1  0.33184609  0.37371415  0.50699858  1
  V  V69  1  0.50328864  0.62202125  0.60607126  1
  Zn  Zn70  1  -0.01706621  0.85949564  0.37651760  1
  Zn  Zn71  1  0.63576983  0.40492298  0.76370826  1
  Zn  Zn72  1  0.86138950  -0.00596538  0.87850738  1
  Zn  Zn73  1  0.63344190  0.12682153  0.51435533  1
  Zn  Zn74  1  0.39210017  0.11440804  0.26746108  1
  Zn  Zn75  1  0.38826758  0.48202103  0.37735177  1
  Zn  Zn76  1  0.16583806  0.25517801  0.13826655  1
  Zn  Zn77  1  0.19235629  0.17927157  0.69524605  1
  Zn  Zn78  1  0.18710855  0.68430684  0.18815927  1
  Zn  Zn79  1  0.18578063  0.68690213  0.68100490  1
  Zn  Zn80  1  0.68489138  0.18865322  0.19133679  1
  Zn  Zn81  1  0.68517635  0.17473254  0.68210132  1
  Zn  Zn82  1  0.69407538  0.69572550  0.20822689  1
  Zn  Zn83  1  0.68153995  0.57376439  0.68520071  1
  Zn  Zn84  1  0.32154662  0.30788398  0.30169561  1
  Zn  Zn85  1  0.28999150  0.30089173  0.81691845  1
  Zn  Zn86  1  0.30249670  0.81125516  0.30717673  1
  Zn  Zn87  1  0.31214508  0.80583763  0.81380306  1
  Zn  Zn88  1  0.82400511  0.31395287  0.30606339  1
  Zn  Zn89  1  0.81805436  0.31133398  0.81409423  1
  Zn  Zn90  1  0.81078858  0.80628015  0.31184144  1
  Zn  Zn91  1  0.74177250  0.80328153  0.81027066  1
  Zn  Zn92  1  0.17442169  0.44583594  0.43457451  1
  Zn  Zn93  1  0.18777379  0.43236131  0.93203392  1
  Zn  Zn94  1  0.18374098  0.94297753  0.43485569  1
  Zn  Zn95  1  0.18808538  0.93534746  0.93843433  1
  Zn  Zn96  1  0.71046688  0.42143239  0.43812834  1
  Zn  Zn97  1  0.68840283  0.44235806  0.94362595  1
  Zn  Zn98  1  0.67395554  0.93410806  0.43304746  1
  Zn  Zn99  1  0.67878018  0.92728717  0.92946361  1
  Zn  Zn100  1  0.31893432  0.06166228  0.09048957  1
  Zn  Zn101  1  0.31809386  0.05919391  0.55985081  1
  Zn  Zn102  1  0.30654082  0.52282707  0.04234441  1
  Zn  Zn103  1  0.30616900  0.55789451  0.56571788  1
  Zn  Zn104  1  0.80776003  0.06011300  0.05564115  1
  Zn  Zn105  1  0.81949777  0.06001341  0.56684605  1
  Zn  Zn106  1  0.81742293  0.56280113  0.07863207  1
  Zn  Zn107  1  0.83471568  0.55367314  0.58607448  1
  Zn  Zn108  1  0.45550103  0.45161303  0.19902166  1
  Zn  Zn109  1  0.43651829  0.43591410  0.67109847  1
  Zn  Zn110  1  0.43210301  0.95520135  0.18177236  1
  Zn  Zn111  1  0.45181742  0.93576939  0.69661555  1
  Zn  Zn112  1  0.93500944  0.44012890  0.19293224  1
  Zn  Zn113  1  0.94131325  0.42969097  0.68683595  1
  Zn  Zn114  1  0.93320569  0.93710855  0.19083608  1
  Zn  Zn115  1  0.93862939  0.92938530  0.68581198  1
  Zn  Zn116  1  0.05664391  0.06158101  0.30988255  1
  Zn  Zn117  1  0.07068557  0.05751769  0.81517612  1
  Zn  Zn118  1  0.07587832  0.57038966  0.30067987  1
  Zn  Zn119  1  0.05485419  0.56556479  0.80944699  1
  Zn  Zn120  1  0.57114825  0.08118284  0.31261870  1
  Zn  Zn121  1  0.55680760  0.06807301  0.82554453  1
  Zn  Zn122  1  0.56974915  0.55724732  0.33023979  1
  Zn  Zn123  1  0.55571133  0.58502331  0.81801080  1
  Zn  Zn124  1  0.41918326  0.24630524  0.41329564  1
  Zn  Zn125  1  0.44954824  0.19564698  0.93697805  1
  Zn  Zn126  1  0.43154756  0.69671680  0.43020784  1
  Zn  Zn127  1  0.43594298  0.65843335  0.94152102  1
  Zn  Zn128  1  0.94540590  0.18990429  0.43105518  1
  Zn  Zn129  1  0.93741707  0.18065836  0.94605152  1
  Zn  Zn130  1  0.95008115  0.56472644  0.44905087  1
  Zn  Zn131  1  0.92936992  0.69003253  0.94006210  1
  Zn  Zn132  1  0.04672477  0.30468302  0.04164978  1
  Zn  Zn133  1  0.07405073  0.30818316  0.56678231  1
  Zn  Zn134  1  0.05932136  0.80979225  0.05801802  1
  Zn  Zn135  1  0.05459716  0.80199530  0.56229593  1
  Zn  Zn136  1  0.57337251  0.32350889  0.06197650  1
  Zn  Zn137  1  0.56657887  0.28127622  0.58877453  1
  Zn  Zn138  1  0.56843950  0.80523151  0.07546158  1
  Zn  Zn139  1  0.63594681  0.75168087  0.60508997  1
  O  O140  1  0.11314422  0.10001201  0.11969162  1
  O  O141  1  0.11500420  0.11835359  0.62930674  1
  O  O142  1  0.13020040  0.61646013  0.11015058  1
  O  O143  1  0.10705171  0.61903991  0.63587753  1
  O  O144  1  0.62424969  0.12833286  0.10633962  1
  O  O145  1  0.59818109  0.16892424  0.61285430  1
  O  O146  1  0.62069137  0.62629114  0.14122567  1
  O  O147  1  0.60736186  0.63238068  0.61371897  1
  O  O148  1  0.36881596  0.36225526  0.39796887  1
  O  O149  1  0.38944289  0.36173100  0.81385244  1
  O  O150  1  0.33509274  0.91919898  0.35679907  1
  O  O151  1  0.37873910  0.87214424  0.88118225  1
  O  O152  1  0.87591667  0.35995462  0.40211591  1
  O  O153  1  0.86624346  0.39143237  0.88642173  1
  O  O154  1  0.87047167  0.88580430  0.37575883  1
  O  O155  1  0.89311781  0.87647460  0.86654301  1
  O  O156  1  0.28125157  -0.02644521  0.36489427  1
  O  O157  1  0.26973502  -0.01150850  0.87553348  1
  O  O158  1  0.23591867  0.51383252  0.35975082  1
  O  O159  1  0.23803470  0.50919687  0.85513669  1
  O  O160  1  0.76123596  0.00680022  0.37532055  1
  O  O161  1  0.74861528  -0.00454396  0.85826222  1
  O  O162  1  0.76640274  0.47890837  0.35756919  1
  O  O163  1  0.76183487  0.51360295  0.88231223  1
  O  O164  1  0.24359694  0.49989617  0.13624830  1
  O  O165  1  0.22667095  0.51006078  0.63945155  1
  O  O166  1  0.22920030  0.97465262  0.10993636  1
  O  O167  1  0.26973702  0.98865547  0.64076896  1
  O  O168  1  0.74735587  0.50022605  0.14497758  1
  O  O169  1  0.74930219  0.49395158  0.63139768  1
  O  O170  1  0.75432553  1.00775237  0.14265572  1
  O  O171  1  0.75457624  0.99583610  0.63686604  1
  O  O172  1  0.00628009  0.38291733  0.25686616  1
  O  O173  1  0.00416103  0.35458414  0.75210418  1
  O  O174  1  0.01182923  0.87478825  0.25913048  1
  O  O175  1  0.01863131  0.88666441  0.76412207  1
  O  O176  1  0.52174180  0.38546374  0.26064705  1
  O  O177  1  0.51942627  0.38657815  0.74011816  1
  O  O178  1  0.48255824  0.87244639  0.24661484  1
  O  O179  1  0.49464540  0.84852009  0.75699427  1
  O  O180  1  0.50606963  0.11731602  0.22595762  1
  O  O181  1  0.47759429  0.10970568  0.75060571  1
  O  O182  1  0.48765197  0.61847626  0.24847172  1
  O  O183  1  0.48229471  0.62045504  0.72840637  1
  O  O184  1  0.99908003  0.11670693  0.23028597  1
  O  O185  1  1.00096349  0.12627043  0.74423796  1
  O  O186  1  0.99510280  0.61792285  0.24123240  1
  O  O187  1  0.99184781  0.62762289  0.74017127  1
  O  O188  1  0.39346380  0.28087312  -0.01400009  1
  O  O189  1  0.37033341  0.25917251  0.51649031  1
  O  O190  1  0.35940511  0.73353989  -0.00617211  1
  O  O191  1  0.36348950  0.75447060  0.50876475  1
  O  O192  1  0.86532711  0.26158867  -0.00905534  1
  O  O193  1  0.88496076  0.24626021  0.51822216  1
  O  O194  1  0.86371128  0.74216534  0.02082307  1
  O  O195  1  0.78283536  0.66040962  0.46180315  1
  O  O196  1  0.12946295  0.22698593  0.50914912  1
  O  O197  1  0.12397823  0.22384806  1.02137217  1
  O  O198  1  0.14017620  0.75983179  0.49046873  1
  O  O199  1  0.12759632  0.73468818  0.99291003  1
  O  O200  1  0.63622620  0.25456257  0.48674625  1
  O  O201  1  0.64177621  0.25049313  0.99379123  1
  O  O202  1  0.61349872  0.76558329  0.49021430  1
  O  O203  1  0.64201649  0.73709831  1.01602960  1
  O  O204  1  0.51794655  0.24407761  0.12297983  1
  O  O205  1  0.46316280  0.27060921  0.66372351  1
  O  O206  1  0.50134147  0.73674046  0.14766272  1
  O  O207  1  0.48211075  0.73629607  0.63299699  1
  O  O208  1  0.98861107  0.23149715  0.11041995  1
  O  O209  1  0.99777591  0.23215014  0.63558392  1
  O  O210  1  0.99207682  0.74354191  0.12036782  1
  O  O211  1  0.98126543  0.75122826  0.63502351  1
  O  O212  1  0.01440308  0.25314860  0.36987799  1
  O  O213  1  0.00235288  0.23727194  0.86466863  1
  O  O214  1  0.02096935  0.74906270  0.38846076  1
  O  O215  1  0.00672581  0.76048221  0.88327459  1
  O  O216  1  0.52337733  0.23361141  0.37778022  1
  O  O217  1  0.51195640  0.25654101  0.85281507  1
  O  O218  1  0.49909939  0.75723444  0.36116276  1
  O  O219  1  0.50200880  0.70616290  0.85253991  1
  O  O220  1  0.23429663  0.10023853  0.49688804  1
  O  O221  1  0.23779410  0.10714394  1.01619388  1
  O  O222  1  0.24928018  0.62285628  0.48587012  1
  O  O223  1  0.23767377  0.62445757  0.98916485  1
  O  O224  1  0.75137416  0.11769160  0.49251317  1
  O  O225  1  0.74091479  0.13380677  0.99664052  1
  O  O226  1  0.74197346  0.61111555  0.49738044  1
  O  O227  1  0.74273184  0.62430193  1.01108329  1
  O  O228  1  0.27945419  0.41598708  -0.00250799  1
  O  O229  1  0.23242254  0.36657351  0.49431712  1
  O  O230  1  0.24269082  0.85192653  0.00623598  1
  O  O231  1  0.25214886  0.87319605  0.50059592  1
  O  O232  1  0.75933136  0.36591485  0.00371516  1
  O  O233  1  0.77257748  0.37340735  0.52507866  1
  O  O234  1  0.74536666  0.86238971  0.00416331  1
  O  O235  1  0.75146967  0.89866223  0.50927613  1
  O  O236  1  0.13688003  0.50077865  0.23070916  1
  O  O237  1  0.12387419  0.49023687  0.74719111  1
  O  O238  1  0.12083861  0.98449115  0.23661859  1
  O  O239  1  0.14440970  0.98765131  0.75471332  1
  O  O240  1  0.63784534  0.49092666  0.26458993  1
  O  O241  1  0.62333199  0.51634128  0.75949781  1
  O  O242  1  0.63945519  0.99561050  0.26375928  1
  O  O243  1  0.63057425  1.01491923  0.75208940  1
  O  O244  1  0.35122122  0.03152731  0.20261006  1
  O  O245  1  0.37150619  -0.00408155  0.76577494  1
  O  O246  1  0.36431720  0.50683131  0.25775719  1
  O  O247  1  0.35403693  0.50398434  0.73229478  1
  O  O248  1  0.86351321  -0.00266925  0.26436864  1
  O  O249  1  0.88572842  0.01129121  0.75226423  1
  O  O250  1  0.86709826  0.51661835  0.24149261  1
  O  O251  1  0.87865847  0.49289592  0.76352313  1
  O  O252  1  0.06553878  0.42942778  0.39214488  1
  O  O253  1  0.11674255  0.38080256  0.86000208  1
  O  O254  1  0.13529149  0.86460444  0.35988524  1
  O  O255  1  0.12072205  0.86329779  0.87134040  1
  O  O256  1  0.63260569  0.36110309  0.37413627  1
  O  O257  1  0.63600842  0.36272016  0.87596252  1
  O  O258  1  0.61136203  0.87314300  0.36010507  1
  O  O259  1  0.64902780  0.84460006  0.86106274  1
  O  O260  1  0.39832342  0.14630179  0.10474183  1
  O  O261  1  0.37699981  0.13516376  0.62385852  1
  O  O262  1  0.37540453  0.62587838  0.14205793  1
  O  O263  1  0.37456361  0.62838889  0.62620651  1
  O  O264  1  0.88567920  0.11278985  0.11844960  1
  O  O265  1  0.88859722  0.12983573  0.63613966  1
  O  O266  1  0.87178758  0.63845666  0.14269067  1
  O  O267  1  0.87408703  0.64767149  0.63248467  1
  O  O268  1  0.26377880  0.27044093  0.08908152  1
  O  O269  1  0.26478100  0.24915435  0.64264628  1
  O  O270  1  0.24534056  0.75016723  0.11086531  1
  O  O271  1  0.25753717  0.74826227  0.61076964  1
  O  O272  1  0.75298928  0.24240520  0.11105917  1
  O  O273  1  0.77110156  0.24324222  0.63297283  1
  O  O274  1  0.75316613  0.75227814  0.12475566  1
  O  O275  1  0.76013225  0.76467718  0.61746898  1
  O  O276  1  0.22640751  0.17768591  0.29713989  1
  O  O277  1  0.24421676  0.27817720  0.91707094  1
  O  O278  1  0.25157322  0.74402091  0.38948068  1
  O  O279  1  0.23980473  0.73984257  0.88485570  1
  O  O280  1  0.75690422  0.23590586  0.37338738  1
  O  O281  1  0.74778429  0.24807290  0.88390623  1
  O  O282  1  0.72541640  0.76212156  0.37093123  1
  O  O283  1  0.76429357  0.72998002  0.90115527  1
  O  O284  1  0.00736691  0.10747004  0.00688880  1
  O  O285  1  0.00951122  0.11873101  0.51166133  1
  O  O286  1  0.01266768  0.61625072  -0.00464829  1
  O  O287  1  -0.00747713  0.62866593  0.53098509  1
  O  O288  1  0.51730783  0.12943807  0.00410030  1
  O  O289  1  0.43666701  0.07034247  0.44250681  1
  O  O290  1  0.52476553  0.63500581  0.02113282  1
  O  O291  1  0.48787197  0.63463864  0.50825080  1
  O  O292  1  0.51250212  0.36864164  0.51899682  1
  O  O293  1  0.50454701  0.40149532  1.01396472  1
  O  O294  1  0.54237242  0.96323979  0.54822372  1
  O  O295  1  0.51635225  0.88338265  1.00784458  1
  O  O296  1  0.98842379  0.36661769  0.51749796  1
  O  O297  1  0.98372453  0.38275572  0.99258952  1
  O  O298  1  1.00559144  0.88516133  0.49608244  1
  O  O299  1  1.00505387  0.88359687  0.98691950  1
  O  O300  1  0.49950651  0.49909585  0.40493638  1
  O  O301  1  0.51115895  0.51015700  0.89316548  1
  O  O302  1  0.45853250  1.05015196  0.36525814  1
  O  O303  1  0.48745191  0.99807885  0.88979209  1
  O  O304  1  1.02922808  0.50013607  0.38196325  1
  O  O305  1  0.98470243  0.50660287  0.88560392  1
  O  O306  1  0.98608431  0.99883846  0.38309423  1
  O  O307  1  1.00451175  0.98965457  0.88605125  1
  O  O308  1  0.00499844  -0.00886593  0.11258007  1
  O  O309  1  -0.00769446  0.00762520  0.61147005  1
  O  O310  1  0.01613822  0.49405606  0.11328208  1
  O  O311  1  0.00131039  0.51091383  0.63317324  1
  O  O312  1  0.50018421  0.01260769  0.10271622  1
  O  O313  1  0.51886204  0.00203272  0.61189454  1
  O  O314  1  0.49896614  0.52148932  0.12089288  1
  O  O315  1  0.49447185  0.51048627  0.60009845  1
  O  O316  1  0.25292481  0.38834241  0.25943480  1
  O  O317  1  0.23283738  0.38419450  0.75117537  1
  O  O318  1  0.23531821  0.86125752  0.22829846  1
  O  O319  1  0.24143378  0.87865788  0.75471551  1
  O  O320  1  0.74951764  0.39029759  0.26340364  1
  O  O321  1  0.75662241  0.37211255  0.73760552  1
  O  O322  1  0.74273160  0.88783517  0.25362968  1
  O  O323  1  0.74858545  0.89446281  0.73751442  1
  O  O324  1  0.22321501  0.14702388  0.23051911  1
  O  O325  1  0.26173308  0.10186932  0.75151465  1
  O  O326  1  0.26113451  0.62342083  0.25606025  1
  O  O327  1  0.24970185  0.61693434  0.75130806  1
  O  O328  1  0.74473785  0.11397089  0.26472376  1
  O  O329  1  0.76685882  0.11161849  0.74229756  1
  O  O330  1  0.75169217  0.61416291  0.26412017  1
  O  O331  1  0.74716422  0.63437926  0.76664127  1
  O  O332  1  0.35744689  0.20417429  0.32654803  1
  O  O333  1  0.37911969  0.11905787  0.87580524  1
  O  O334  1  0.36161632  0.62081093  0.37012863  1
  O  O335  1  0.35697011  0.62655538  0.85504805  1
  O  O336  1  0.86685219  0.11516557  0.38129923  1
  O  O337  1  0.88038349  0.12073868  0.86187665  1
  O  O338  1  0.89589377  0.61711553  0.36361494  1
  O  O339  1  0.86763203  0.61215421  0.88071944  1
  O  O340  1  0.12670887  0.38141097  0.10713239  1
  O  O341  1  0.11121126  0.39135125  0.64054201  1
  O  O342  1  0.11971210  0.87298608  0.13433181  1
  O  O343  1  0.11864717  0.86446586  0.64197823  1
  O  O344  1  0.63539447  0.37060759  0.14822570  1
  O  O345  1  0.64675978  0.36280476  0.63124600  1
  O  O346  1  0.61440198  0.87797412  0.15340012  1
  O  O347  1  0.64564474  0.86918348  0.62225723  1
  O  O348  1  0.09743077  0.25323619  0.22424561  1
  O  O349  1  0.11720400  0.25793572  0.74700868  1
  O  O350  1  0.12602875  0.75563918  0.26014388  1
  O  O351  1  0.13493523  0.76039425  0.76047919  1
  O  O352  1  0.64036651  0.26303042  0.26562659  1
  O  O353  1  0.64434224  0.24718384  0.76421474  1
  O  O354  1  0.60948968  0.76658342  0.25912332  1
  O  O355  1  0.60914928  0.73743570  0.73040645  1
  O  O356  1  0.38025716  0.30301059  0.18746132  1
  O  O357  1  0.36350582  0.22594835  0.75840552  1
  O  O358  1  0.38277623  0.73974151  0.25908345  1
  O  O359  1  0.36623303  0.73801454  0.73462621  1
  O  O360  1  0.90531514  0.25823218  0.24981343  1
  O  O361  1  0.89037649  0.23653541  0.74734679  1
  O  O362  1  0.87621954  0.73563950  0.24968731  1
  O  O363  1  0.84413095  0.76192845  0.75482994  1
  O  O364  1  0.35215376  0.47924223  0.49435372  1
  O  O365  1  0.40398241  0.54480584  0.99606875  1
  O  O366  1  0.39893749  1.01205452  0.48105334  1
  O  O367  1  0.38639056  0.99108961  0.99662014  1
  O  O368  1  0.88323491  0.48844158  0.50604053  1
  O  O369  1  0.88064014  0.49178347  1.00394587  1
  O  O370  1  0.88842174  1.00263067  0.49060818  1
  O  O371  1  0.88763416  1.00002989  0.99423513  1
  O  O372  1  0.11454041  -0.00044413  0.00658574  1
  O  O373  1  0.10755279  0.00650813  0.49258291  1
  O  O374  1  0.12027699  0.50595195  0.00377820  1
  O  O375  1  0.12405454  0.50318162  0.52170642  1
  O  O376  1  0.61780984  0.01221840  -0.01525785  1
  O  O377  1  0.59740754  0.00690793  0.50044836  1
  O  O378  1  0.62052493  0.51733165  0.00681797  1
  O  O379  1  0.62877524  0.48211807  0.50007419  1
  O  O380  1  0.38837037  0.36374398  0.14280776  1
  O  O381  1  0.35683868  0.37534365  0.60976780  1
  O  O382  1  0.35746915  0.87462252  0.12567163  1
  O  O383  1  0.38435961  0.86197586  0.62961130  1
  O  O384  1  0.87865927  0.37559810  0.11196017  1
  O  O385  1  0.87319650  0.35824113  0.62777989  1
  O  O386  1  0.87711539  0.85199838  0.14256136  1
  O  O387  1  0.86851946  0.86175566  0.62732347  1
  O  O388  1  0.12108671  0.11837141  0.38374475  1
  O  O389  1  0.13022764  0.11707446  0.89270245  1
  O  O390  1  0.14162404  0.64214912  0.36521761  1
  O  O391  1  0.12864795  0.63081974  0.87840612  1
  O  O392  1  0.64245062  0.13081381  0.38711102  1
  O  O393  1  0.61893169  0.14504062  0.88911677  1
  O  O394  1  0.61325878  0.64944755  0.37721258  1
  O  O395  1  0.64468655  0.62778643  0.89323640  1
