# generated using pymatgen
data_V35Zn35O128
_symmetry_space_group_name_H-M   'P 1'
_cell_length_a   16.95379798
_cell_length_b   16.85638411
_cell_length_c   16.93461442
_cell_angle_alpha   90.09122406
_cell_angle_beta   90.06012531
_cell_angle_gamma   89.96533739
_symmetry_Int_Tables_number   1
_chemical_formula_structural   V35Zn35O128
_chemical_formula_sum   'V70 Zn70 O256'
_cell_volume   4839.55987048
_cell_formula_units_Z   2
loop_
 _symmetry_equiv_pos_site_id
 _symmetry_equiv_pos_as_xyz
  1  'x, y, z'
loop_
 _atom_site_type_symbol
 _atom_site_label
 _atom_site_symmetry_multiplicity
 _atom_site_fract_x
 _atom_site_fract_y
 _atom_site_fract_z
 _atom_site_occupancy
  V  V0  1  0.12172749  0.49128069  0.13098343  1
  V  V1  1  0.39479287  0.37398960  0.50539030  1
  V  V2  1  0.38463962  -0.00326447  0.38708635  1
  V  V3  1  0.40226547  0.86924764  0.49975773  1
  V  V4  1  0.10884623  0.38248022  0.76237118  1
  V  V5  1  0.24780371  0.00103488  0.24838678  1
  V  V6  1  0.37524470  0.12731836  0.26117506  1
  V  V7  1  0.70833216  0.70867619  0.46585146  1
  V  V8  1  -0.01341195  0.01918415  0.48400915  1
  V  V9  1  0.51242370  0.13221522  0.60534484  1
  V  V10  1  0.24470047  0.24402656  -0.00422029  1
  V  V11  1  0.87874728  0.49108540  0.88206387  1
  V  V12  1  0.87984551  0.01405038  0.86639339  1
  V  V13  1  0.87146356  0.22751895  0.11904993  1
  V  V14  1  0.36009029  0.25309451  0.63899714  1
  V  V15  1  0.75968382  0.87893095  0.13216472  1
  V  V16  1  -0.00776246  0.63379662  0.12664662  1
  V  V17  1  0.10885599  0.24647765  0.87259310  1
  V  V18  1  0.38212703  0.37328742  -0.00897475  1
  V  V19  1  -0.00100920  0.87393296  0.38692841  1
  V  V20  1  0.49992542  0.62096268  0.61794920  1
  V  V21  1  0.00023482  0.48353300  -0.00089269  1
  V  V22  1  0.00301831  0.74647899  0.25804249  1
  V  V23  1  0.37278634  0.74885960  0.63580923  1
  V  V24  1  0.76819506  0.37305375  0.10805806  1
  V  V25  1  0.77005415  0.01176089  0.24798002  1
  V  V26  1  0.52711711  0.74242181  0.75869936  1
  V  V27  1  0.01142361  0.63705044  0.61256792  1
  V  V28  1  0.37921695  0.51452520  0.88438501  1
  V  V29  1  0.76087443  0.27648225  0.49687045  1
  V  V30  1  0.26761567  0.13031283  0.86724777  1
  V  V31  1  0.62295490  0.48701407  0.12404904  1
  V  V32  1  0.88761404  0.63638647  0.75819942  1
  V  V33  1  0.11260426  0.88855161  0.74764509  1
  V  V34  1  -0.00162693  0.12466841  0.64067792  1
  V  V35  1  0.37473603  0.23894701  0.12196003  1
  V  V36  1  0.49887176  0.75196752  0.24742619  1
  V  V37  1  0.18182910  0.82054671  0.59128366  1
  V  V38  1  0.02746075  0.10769689  0.11702788  1
  V  V39  1  0.61582984  0.89233921  0.25598734  1
  V  V40  1  0.12913362  0.86675957  0.25279742  1
  V  V41  1  0.37517843  0.87699288  -0.01947500  1
  V  V42  1  0.25499699  0.00708685  0.75464703  1
  V  V43  1  0.74820924  0.49667769  0.75325250  1
  V  V44  1  0.24865649  0.50959529  0.76924055  1
  V  V45  1  0.76111255  0.74425340  0.02335670  1
  V  V46  1  0.75480918  0.48430657  0.26048147  1
  V  V47  1  -0.01679052  0.37314765  0.37640092  1
  V  V48  1  0.14140927  0.02329764  0.59888173  1
  V  V49  1  0.87103062  0.24521927  0.63195823  1
  V  V50  1  0.12545348  0.64898516  -0.00152868  1
  V  V51  1  0.74515470  0.63366822  0.88088745  1
  V  V52  1  0.25848831  0.86271435  0.12558825  1
  V  V53  1  0.37917771  0.61225093  0.24912494  1
  V  V54  1  0.87041265  0.61864592  0.26646932  1
  V  V55  1  0.62334505  0.50077375  0.62422665  1
  V  V56  1  0.50672981  0.25388975  0.24660391  1
  V  V57  1  0.23037376  0.62569682  0.37620762  1
  V  V58  1  0.62061145  0.26051503  0.38650230  1
  V  V59  1  0.61819354  0.62286974  0.01226486  1
  V  V60  1  0.12844236  0.50219522  0.61978941  1
  V  V61  1  0.52754483  0.87364284  0.87714710  1
  V  V62  1  -0.01471967  0.86879936  0.89603161  1
  V  V63  1  0.61097839  0.36786274  0.76573314  1
  V  V64  1  0.65655582  -0.00730537  0.59587701  1
  V  V65  1  0.86782207  0.75407427  0.61812996  1
  V  V66  1  0.62262310  0.14924732  0.01481483  1
  V  V67  1  0.01119546  0.25146362  0.24485130  1
  V  V68  1  0.75309537  0.12450663  0.37957638  1
  V  V69  1  0.24474461  0.37079413  0.12984495  1
  Zn  Zn70  1  0.24949150  0.49376296  0.25870275  1
  Zn  Zn71  1  0.28379540  0.69622976  -0.06517931  1
  Zn  Zn72  1  0.48316543  0.02944704  0.03635443  1
  Zn  Zn73  1  0.26485106  0.74395548  0.48303903  1
  Zn  Zn74  1  0.55646933  0.43707404  0.31400302  1
  Zn  Zn75  1  0.38170394  0.73781362  0.11413072  1
  Zn  Zn76  1  0.19050221  0.18126504  0.18551623  1
  Zn  Zn77  1  0.18010126  0.19575898  0.69180211  1
  Zn  Zn78  1  0.18599015  0.67914790  0.18798589  1
  Zn  Zn79  1  0.18672240  0.68501379  0.70586275  1
  Zn  Zn80  1  0.68673873  0.18821078  0.17885632  1
  Zn  Zn81  1  0.66168668  0.20292160  0.65872113  1
  Zn  Zn82  1  0.68705006  0.67815732  0.19041362  1
  Zn  Zn83  1  0.69326693  0.67897940  0.68128932  1
  Zn  Zn84  1  0.35633721  0.34259994  0.30420322  1
  Zn  Zn85  1  0.30078718  0.32384430  0.80786745  1
  Zn  Zn86  1  0.31952287  0.80677038  0.31297639  1
  Zn  Zn87  1  0.29870037  0.82062622  0.80622924  1
  Zn  Zn88  1  0.81983173  0.29939581  0.30250891  1
  Zn  Zn89  1  0.82828322  0.31607340  0.80044199  1
  Zn  Zn90  1  0.82669021  0.82026464  0.30007802  1
  Zn  Zn91  1  0.81161807  0.81186432  0.82245648  1
  Zn  Zn92  1  0.24325513  0.44544299  0.45744152  1
  Zn  Zn93  1  0.18567623  0.43478253  0.94230652  1
  Zn  Zn94  1  0.19690977  0.93166952  0.42931494  1
  Zn  Zn95  1  0.17373821  0.85279860  0.94219032  1
  Zn  Zn96  1  0.65965546  0.53688314  0.42380135  1
  Zn  Zn97  1  0.68825828  0.43676060  0.94041839  1
  Zn  Zn98  1  0.70203031  0.92128812  0.41946501  1
  Zn  Zn99  1  0.70836206  0.93443064  0.94613188  1
  Zn  Zn100  1  0.20747304  0.03874746  0.04131592  1
  Zn  Zn101  1  0.35644894  0.04225735  0.60304578  1
  Zn  Zn102  1  0.30767828  0.55987799  0.06381471  1
  Zn  Zn103  1  0.30614754  0.56613288  0.57140864  1
  Zn  Zn104  1  0.79933338  0.06042513  0.04303544  1
  Zn  Zn105  1  0.81789697  0.07466550  0.55134943  1
  Zn  Zn106  1  0.81458361  0.55618871  0.06767307  1
  Zn  Zn107  1  0.81994580  0.55913421  0.56812701  1
  Zn  Zn108  1  0.43258085  0.43269316  0.17761581  1
  Zn  Zn109  1  0.43385021  0.43446209  0.70059936  1
  Zn  Zn110  1  0.43507291  0.94125899  0.19047887  1
  Zn  Zn111  1  0.43807187  0.92068482  0.70300468  1
  Zn  Zn112  1  0.93888901  0.43402037  0.19400499  1
  Zn  Zn113  1  0.93285951  0.45290655  0.67709617  1
  Zn  Zn114  1  0.93981514  0.93353885  0.19209206  1
  Zn  Zn115  1  0.82717857  0.94007435  0.68551300  1
  Zn  Zn116  1  0.05393852  0.05814068  0.29985767  1
  Zn  Zn117  1  0.06497221  0.05631284  0.82342109  1
  Zn  Zn118  1  0.05999690  0.55571141  0.32029184  1
  Zn  Zn119  1  0.06452439  0.56705682  0.82258501  1
  Zn  Zn120  1  0.56369459  0.07487170  0.32057308  1
  Zn  Zn121  1  0.57333461  0.05158980  0.80114208  1
  Zn  Zn122  1  0.56592928  0.63375134  0.32694750  1
  Zn  Zn123  1  0.56136361  0.56305693  0.81719972  1
  Zn  Zn124  1  0.43526390  0.19082069  0.44198564  1
  Zn  Zn125  1  0.47753117  0.15587909  0.88901413  1
  Zn  Zn126  1  0.43382837  0.67751065  0.43178690  1
  Zn  Zn127  1  0.45251364  0.69627468  0.94353216  1
  Zn  Zn128  1  0.93393302  0.20047047  0.42911789  1
  Zn  Zn129  1  0.93947935  0.18613057  0.94935730  1
  Zn  Zn130  1  0.94021786  0.68955904  0.43836142  1
  Zn  Zn131  1  0.93963271  0.68767114  0.94288910  1
  Zn  Zn132  1  0.05879563  0.30301877  0.06147359  1
  Zn  Zn133  1  0.02368108  0.33758522  0.58132767  1
  Zn  Zn134  1  0.06886043  0.92928934  0.06285801  1
  Zn  Zn135  1  -0.00000365  0.86144636  0.60546054  1
  Zn  Zn136  1  0.56439261  0.31592176  0.06312144  1
  Zn  Zn137  1  0.56610667  0.33017485  0.56165668  1
  Zn  Zn138  1  0.54756587  0.85109282  0.08568107  1
  Zn  Zn139  1  0.57058915  0.81743571  0.58052148  1
  O  O140  1  0.13122443  0.10930916  0.11259339  1
  O  O141  1  0.11411753  0.12619371  0.62357738  1
  O  O142  1  0.11270581  0.61151143  0.11875812  1
  O  O143  1  0.11648275  0.62594718  0.63418523  1
  O  O144  1  0.60644738  0.14022078  0.11590759  1
  O  O145  1  0.62421900  0.09607975  0.62121230  1
  O  O146  1  0.63538004  0.60369641  0.11786513  1
  O  O147  1  0.60960044  0.61487484  0.63469421  1
  O  O148  1  0.34431914  0.36966467  0.41042730  1
  O  O149  1  0.36740656  0.37852954  0.88862619  1
  O  O150  1  0.37675959  0.88175009  0.39113643  1
  O  O151  1  0.37226593  0.87537922  0.88008001  1
  O  O152  1  0.88383916  0.36509905  0.37448636  1
  O  O153  1  0.87484083  0.39215949  0.87008923  1
  O  O154  1  0.90126755  0.88132571  0.36664513  1
  O  O155  1  0.88294204  0.88638553  0.86950852  1
  O  O156  1  0.26933340  -0.00931356  0.35968253  1
  O  O157  1  0.25784878  0.02035269  0.85996093  1
  O  O158  1  0.23949061  0.51546571  0.37077088  1
  O  O159  1  0.25588281  0.49891106  0.87628932  1
  O  O160  1  0.74965467  0.01295858  0.35882666  1
  O  O161  1  0.69539343  -0.06274322  0.79223049  1
  O  O162  1  0.74406345  0.49279692  0.35880579  1
  O  O163  1  0.76381688  0.50889420  0.87286763  1
  O  O164  1  0.23112053  0.48869943  0.11988552  1
  O  O165  1  0.23227272  0.51807753  0.65066943  1
  O  O166  1  0.25633039  0.98618404  0.14215645  1
  O  O167  1  0.24121216  1.02898796  0.62851600  1
  O  O168  1  0.75231017  0.48459744  0.13083080  1
  O  O169  1  0.73459092  0.52040181  0.64875567  1
  O  O170  1  0.75388383  0.98678014  0.13204912  1
  O  O171  1  0.76042211  0.99307455  0.60815455  1
  O  O172  1  0.00243262  0.36132514  0.25654085  1
  O  O173  1  0.00949929  0.39603351  0.75592092  1
  O  O174  1  0.01024471  0.86586988  0.25593375  1
  O  O175  1  0.01684639  0.88907371  0.72083106  1
  O  O176  1  0.47625279  0.36330014  0.26760295  1
  O  O177  1  0.51089780  0.37227751  0.75987848  1
  O  O178  1  0.51042798  0.86465343  0.25502947  1
  O  O179  1  0.50447998  0.85405605  0.76362931  1
  O  O180  1  0.48778752  0.14370600  0.25727139  1
  O  O181  1  0.49780092  0.06073888  0.69609717  1
  O  O182  1  0.48077743  0.62650061  0.23798868  1
  O  O183  1  0.50210733  0.63907153  0.75061926  1
  O  O184  1  1.00873166  0.13048997  0.22834600  1
  O  O185  1  1.00145546  0.11313291  0.73774867  1
  O  O186  1  0.99512578  0.62445532  0.24516807  1
  O  O187  1  0.98756317  0.62863994  0.76295929  1
  O  O188  1  0.36079432  0.25953063  0.00711072  1
  O  O189  1  0.38583495  0.26429545  0.51601184  1
  O  O190  1  0.37146089  0.75643419  -0.00206696  1
  O  O191  1  0.38250541  0.76030710  0.50325213  1
  O  O192  1  0.88426243  0.25366408  0.02138587  1
  O  O193  1  0.86386272  0.24733416  0.50631013  1
  O  O194  1  0.85884187  0.74312808  0.00471322  1
  O  O195  1  0.88094867  0.74311035  0.51980492  1
  O  O196  1  0.17748686  0.29702151  0.36492842  1
  O  O197  1  0.13475821  0.25707409  0.98550470  1
  O  O198  1  0.12119113  0.76832532  0.53828871  1
  O  O199  1  0.12268645  0.74766146  1.00851196  1
  O  O200  1  0.63889139  0.26568289  0.49114586  1
  O  O201  1  0.61253763  0.24738794  0.98834874  1
  O  O202  1  0.63408392  0.74264470  0.52579520  1
  O  O203  1  0.64583672  0.72378420  1.01245731  1
  O  O204  1  0.48682310  0.26543908  0.14121506  1
  O  O205  1  0.54181796  0.23034498  0.62082058  1
  O  O206  1  0.49598108  0.76027239  0.13769281  1
  O  O207  1  0.49468386  0.74154811  0.64106948  1
  O  O208  1  0.99624301  0.23091701  0.12588863  1
  O  O209  1  0.99501458  0.22881952  0.62069202  1
  O  O210  1  0.99893954  0.73330379  0.13869228  1
  O  O211  1  0.98965386  0.73907963  0.63363717  1
  O  O212  1  0.00149022  0.24636153  0.34915926  1
  O  O213  1  0.01060134  0.24815489  0.88230758  1
  O  O214  1  0.00266769  0.76239806  0.37169403  1
  O  O215  1  -0.01340094  0.76832396  0.87863764  1
  O  O216  1  0.51422860  0.24600635  0.37118548  1
  O  O217  1  0.54631952  0.15947117  0.80420022  1
  O  O218  1  0.49711415  0.73366124  0.35445111  1
  O  O219  1  0.51141341  0.75165016  0.86397019  1
  O  O220  1  0.19870654  0.13066428  0.40308507  1
  O  O221  1  0.24795542  0.13220887  0.98151255  1
  O  O222  1  0.25949397  0.62593849  0.48210519  1
  O  O223  1  0.22941324  0.62643607  1.00881630  1
  O  O224  1  0.74450926  0.12527754  0.48078262  1
  O  O225  1  0.72572145  0.14054020  1.01492188  1
  O  O226  1  0.75674604  0.62939424  0.50996257  1
  O  O227  1  0.75522283  0.62659072  0.99521646  1
  O  O228  1  0.25169160  0.36416093  0.01001503  1
  O  O229  1  0.19540132  0.33721979  0.50686003  1
  O  O230  1  0.26713554  0.87072551  0.01826023  1
  O  O231  1  0.24470325  0.86217534  0.51274430  1
  O  O232  1  0.75957000  0.37693065  0.00868996  1
  O  O233  1  0.76144375  0.37174613  0.50231649  1
  O  O234  1  0.74125977  0.85545592  0.02562121  1
  O  O235  1  0.75535635  0.81765949  0.45839222  1
  O  O236  1  0.12061585  0.49976030  0.23156618  1
  O  O237  1  0.13032807  0.49652758  0.76316390  1
  O  O238  1  0.14453212  0.99428444  0.25958574  1
  O  O239  1  0.13360472  1.00086598  0.74187917  1
  O  O240  1  0.64703936  0.49552569  0.23338338  1
  O  O241  1  0.63630131  0.49437566  0.75749052  1
  O  O242  1  0.62124091  0.99409875  0.25802644  1
  O  O243  1  0.67262774  1.00233209  0.75016259  1
  O  O244  1  0.37297881  0.00801945  0.26042460  1
  O  O245  1  0.35337845  -0.00218279  0.72487914  1
  O  O246  1  0.37048838  0.50579015  0.24117839  1
  O  O247  1  0.35918662  0.49563825  0.76982787  1
  O  O248  1  0.86843421  0.00817082  0.24798986  1
  O  O249  1  0.84886961  0.01107447  0.77093137  1
  O  O250  1  0.86807025  0.50815836  0.24927799  1
  O  O251  1  0.86659078  0.51418570  0.76110337  1
  O  O252  1  0.15474304  0.36710984  0.37004630  1
  O  O253  1  0.12293429  0.36661444  0.86999372  1
  O  O254  1  0.11971556  0.87504568  0.36171593  1
  O  O255  1  0.09505059  0.87614960  0.85025883  1
  O  O256  1  0.62766145  0.35679031  0.35965150  1
  O  O257  1  0.63267087  0.37809905  0.86453060  1
  O  O258  1  0.63786119  0.85901938  0.34812510  1
  O  O259  1  0.62576493  0.86865041  0.89503639  1
  O  O260  1  0.37727031  0.13837396  0.13698716  1
  O  O261  1  0.40087677  0.15051668  0.62065256  1
  O  O262  1  0.35411816  0.62848384  0.14064249  1
  O  O263  1  0.38544854  0.63883503  0.62464177  1
  O  O264  1  0.86696594  0.12557086  0.11461537  1
  O  O265  1  0.89071778  0.12868065  0.61944678  1
  O  O266  1  0.89060517  0.61511995  0.13433710  1
  O  O267  1  0.88777000  0.63214834  0.64444791  1
  O  O268  1  0.25411979  0.25111839  0.11574238  1
  O  O269  1  0.26160434  0.24302722  0.62676982  1
  O  O270  1  0.24737644  0.76168592  0.13490210  1
  O  O271  1  0.26509076  0.74316108  0.61545454  1
  O  O272  1  0.76517154  0.26179467  0.13413057  1
  O  O273  1  0.75891352  0.24205206  0.60511610  1
  O  O274  1  0.75771008  0.74616277  0.12735567  1
  O  O275  1  0.76800753  0.74553128  0.63178059  1
  O  O276  1  0.20600771  0.27196359  0.47291875  1
  O  O277  1  0.24416389  0.24451224  0.87865096  1
  O  O278  1  0.25041641  0.73594735  0.36959716  1
  O  O279  1  0.22814373  0.77344037  0.87709674  1
  O  O280  1  0.74407061  0.25091864  0.38350955  1
  O  O281  1  0.76069103  0.25174333  0.88672857  1
  O  O282  1  0.77998002  0.76510329  0.39472495  1
  O  O283  1  0.75059940  0.73718726  0.88858688  1
  O  O284  1  0.00266061  0.11829805  0.02054913  1
  O  O285  1  0.00045398  0.11960455  0.47688311  1
  O  O286  1  0.00460757  0.62329895  0.01619289  1
  O  O287  1  0.00347331  0.62841913  0.51416814  1
  O  O288  1  0.50831010  0.12670818  -0.00792963  1
  O  O289  1  0.50561018  0.12067171  0.50604527  1
  O  O290  1  0.51949538  0.62555676  0.00187388  1
  O  O291  1  0.49720080  0.62767485  0.51873554  1
  O  O292  1  0.49326617  0.38972768  0.49411445  1
  O  O293  1  0.48004903  0.36905861  1.00343175  1
  O  O294  1  0.49961829  0.87099466  0.49991315  1
  O  O295  1  0.48968110  0.85858782  0.98035321  1
  O  O296  1  1.01458430  0.34280028  0.46992527  1
  O  O297  1  0.99946981  0.38518188  1.00241076  1
  O  O298  1  1.00703146  0.88968401  0.49041021  1
  O  O299  1  0.99078726  0.87629696  0.99547645  1
  O  O300  1  0.55611647  0.53075038  0.37249028  1
  O  O301  1  0.47798635  0.50735550  0.87280928  1
  O  O302  1  0.48286487  1.00549665  0.37240490  1
  O  O303  1  0.51054528  0.97244733  0.86066863  1
  O  O304  1  1.00702883  0.47173401  0.37031474  1
  O  O305  1  0.98872533  0.50571792  0.88995733  1
  O  O306  1  1.01533465  0.99065391  0.38115432  1
  O  O307  1  0.98612688  0.98925530  0.87259060  1
  O  O308  1  0.00719131  0.00285375  0.13082447  1
  O  O309  1  0.01660090  0.01977698  0.59430633  1
  O  O310  1  0.00647502  0.49991455  0.11615395  1
  O  O311  1  0.01861897  0.52472466  0.63717205  1
  O  O312  1  0.51519444  -0.04014237  0.11579114  1
  O  O313  1  0.47964007  0.00824094  0.62752722  1
  O  O314  1  0.52375576  0.48048294  0.13209299  1
  O  O315  1  0.50472221  0.51423714  0.63976760  1
  O  O316  1  0.26400484  0.37611368  0.23286432  1
  O  O317  1  0.22997890  0.39584861  0.75331507  1
  O  O318  1  0.24964299  0.87915667  0.24790587  1
  O  O319  1  0.23645807  0.90177539  0.75180628  1
  O  O320  1  0.76249838  0.38243955  0.24247692  1
  O  O321  1  0.75771460  0.39625965  0.75079607  1
  O  O322  1  0.75034173  0.89378901  0.24940365  1
  O  O323  1  0.74185021  0.88183387  0.74960779  1
  O  O324  1  0.26011469  0.11043011  0.24572515  1
  O  O325  1  0.24426454  0.12398589  0.75987420  1
  O  O326  1  0.25055271  0.61834226  0.26074934  1
  O  O327  1  0.24039060  0.61351896  0.77123736  1
  O  O328  1  0.74439251  0.11289368  0.24510019  1
  O  O329  1  0.71839138  0.19867390  0.85927913  1
  O  O330  1  0.76740270  0.61618780  0.24903067  1
  O  O331  1  0.75377887  0.62071152  0.76991072  1
  O  O332  1  0.37325242  0.11618428  0.37192389  1
  O  O333  1  0.36505124  0.14176905  0.86867551  1
  O  O334  1  0.36801188  0.62184222  0.35471173  1
  O  O335  1  0.36849507  0.61699229  0.89806987  1
  O  O336  1  0.85064941  0.14370384  0.36492831  1
  O  O337  1  0.88775542  0.11401451  0.88173318  1
  O  O338  1  0.88425248  0.61916976  0.36539817  1
  O  O339  1  0.86750071  0.62014115  0.87144393  1
  O  O340  1  0.12843193  0.38260301  0.11817187  1
  O  O341  1  0.10943048  0.39490266  0.64100967  1
  O  O342  1  0.13995862  0.87868620  0.14455667  1
  O  O343  1  0.12686587  0.91148507  0.61806398  1
  O  O344  1  0.64518832  0.38023930  0.11716747  1
  O  O345  1  0.61625985  0.39638599  0.64475845  1
  O  O346  1  0.64624994  0.85755449  0.15575914  1
  O  O347  1  0.61516810  0.90810463  0.63377164  1
  O  O348  1  0.11233345  0.25002793  0.22974544  1
  O  O349  1  0.12226912  0.26905722  0.76106606  1
  O  O350  1  0.11217676  0.75257185  0.24674751  1
  O  O351  1  0.14838727  0.79293096  0.70094137  1
  O  O352  1  0.60661692  0.25477209  0.24368357  1
  O  O353  1  0.64855631  0.27491084  0.74385932  1
  O  O354  1  0.60223455  0.72283712  0.24800393  1
  O  O355  1  0.62522363  0.74641024  0.74767478  1
  O  O356  1  0.37447739  0.24283261  0.24506830  1
  O  O357  1  0.36981369  0.26104903  0.73929410  1
  O  O358  1  0.38609011  0.74288707  0.24485732  1
  O  O359  1  0.36708039  0.75985372  0.73521662  1
  O  O360  1  0.89359468  0.24953560  0.22695493  1
  O  O361  1  0.85352779  0.23357163  0.73125919  1
  O  O362  1  0.88966738  0.73297250  0.25568416  1
  O  O363  1  0.86792940  0.73788580  0.75290720  1
  O  O364  1  0.33787241  0.46408027  0.52630317  1
  O  O365  1  0.36554709  0.48586729  0.99373082  1
  O  O366  1  0.37321281  0.98565961  0.49619924  1
  O  O367  1  0.38355929  0.97472477  1.00432202  1
  O  O368  1  0.89199672  0.47752928  0.57119163  1
  O  O369  1  0.88613389  0.50358274  0.99067391  1
  O  O370  1  0.88907161  1.00632496  0.48869969  1
  O  O371  1  0.80510484  0.99601955  0.94610727  1
  O  O372  1  0.14605292  -0.03964906  -0.01279866  1
  O  O373  1  0.14546408  0.01492300  0.49915784  1
  O  O374  1  0.10867479  0.50229353  0.00543726  1
  O  O375  1  0.14462205  0.49456561  0.52335357  1
  O  O376  1  0.62535458  0.01462036  -0.01868736  1
  O  O377  1  0.64610060  -0.01733703  0.49672854  1
  O  O378  1  0.63512533  0.50668562  0.01344505  1
  O  O379  1  0.63514895  0.49566095  0.52700049  1
  O  O380  1  0.36242140  0.36682015  0.11250283  1
  O  O381  1  0.39238178  0.35871639  0.62205186  1
  O  O382  1  0.36320526  0.86676469  0.13356785  1
  O  O383  1  0.38598222  0.85963064  0.61194727  1
  O  O384  1  0.86991766  0.37570931  0.12195201  1
  O  O385  1  0.90569378  0.34282798  0.63292016  1
  O  O386  1  0.85932497  0.86750901  0.14136708  1
  O  O387  1  0.88421874  0.85919963  0.63172440  1
  O  O388  1  0.13415207  0.14538823  0.37196705  1
  O  O389  1  0.12917361  0.14298644  0.86648935  1
  O  O390  1  0.12962619  0.62881830  0.37289029  1
  O  O391  1  0.11143775  0.63367215  0.89962642  1
  O  O392  1  0.64112855  0.14963826  0.36061802  1
  O  O393  1  0.63291642  0.06985204  0.92034903  1
  O  O394  1  0.66131034  0.65480206  0.39211449  1
  O  O395  1  0.64198346  0.61155903  0.89196132  1
