# generated using pymatgen
data_V35Zn35O128
_symmetry_space_group_name_H-M   'P 1'
_cell_length_a   16.85404204
_cell_length_b   16.90937799
_cell_length_c   16.91367071
_cell_angle_alpha   90.01869844
_cell_angle_beta   89.70481983
_cell_angle_gamma   90.26679230
_symmetry_Int_Tables_number   1
_chemical_formula_structural   V35Zn35O128
_chemical_formula_sum   'V70 Zn70 O256'
_cell_volume   4820.13370113
_cell_formula_units_Z   2
loop_
 _symmetry_equiv_pos_site_id
 _symmetry_equiv_pos_as_xyz
  1  'x, y, z'
loop_
 _atom_site_type_symbol
 _atom_site_label
 _atom_site_symmetry_multiplicity
 _atom_site_fract_x
 _atom_site_fract_y
 _atom_site_fract_z
 _atom_site_occupancy
  V  V0  1  0.47355599  0.37550732  0.87942187  1
  V  V1  1  0.63159065  0.37245756  0.76529109  1
  V  V2  1  0.37589420  0.11625856  0.27881827  1
  V  V3  1  0.76968566  0.61625244  0.37148531  1
  V  V4  1  0.62506546  0.12326040  -0.00817099  1
  V  V5  1  0.48782037  0.11602515  0.12073772  1
  V  V6  1  0.64510947  0.74491693  0.86835186  1
  V  V7  1  0.01540905  0.11749730  0.62756473  1
  V  V8  1  0.50072260  0.61652463  0.59559880  1
  V  V9  1  0.12366034  0.24698052  0.37390165  1
  V  V10  1  0.61986801  0.87140306  0.25796067  1
  V  V11  1  0.12990443  0.37915054  0.76827619  1
  V  V12  1  0.86676775  0.77050812  0.64701544  1
  V  V13  1  0.48937585  0.88465414  0.38532067  1
  V  V14  1  -0.00516200  0.61404086  0.13212126  1
  V  V15  1  0.12422360  0.39849137  0.24964515  1
  V  V16  1  0.86784063  0.74997299  0.12006684  1
  V  V17  1  0.49581545  0.38241134  0.36285191  1
  V  V18  1  0.49159603  -0.00748370  -0.01763498  1
  V  V19  1  0.56493102  0.07007514  0.57677110  1
  V  V20  1  0.25431047  0.24588570  0.49078102  1
  V  V21  1  0.49644314  0.24496898  0.24108596  1
  V  V22  1  0.37271174  0.51381344  0.33413846  1
  V  V23  1  0.01420901  0.50627712  0.51206457  1
  V  V24  1  0.11917010  0.62111552  0.00885677  1
  V  V25  1  0.61894728  0.73316752  0.38071683  1
  V  V26  1  0.12836512  0.88341060  0.73927538  1
  V  V27  1  0.11648109  0.76629884  0.38561096  1
  V  V28  1  0.01615088  0.24992636  0.75559984  1
  V  V29  1  0.01579359  0.02328615  0.00538634  1
  V  V30  1  0.22144833  0.61483635  0.36919466  1
  V  V31  1  0.62471751  -0.00238692  0.12328330  1
  V  V32  1  0.23560743  0.12678141  0.87168443  1
  V  V33  1  0.87374997  0.37437657  0.50016671  1
  V  V34  1  0.76482480  0.49867046  0.24670021  1
  V  V35  1  0.38962350  0.76071059  0.13852814  1
  V  V36  1  0.64381733  0.63635632  0.00204551  1
  V  V37  1  0.75199206  0.12626095  0.87037898  1
  V  V38  1  0.25697081  -0.01523255  0.26836571  1
  V  V39  1  0.26774313  0.00369534  0.73968711  1
  V  V40  1  -0.00457336  0.77586572  0.24512535  1
  V  V41  1  0.63981143  0.87951973  0.74092607  1
  V  V42  1  0.75379918  0.01227107  0.25381266  1
  V  V43  1  0.12787399  0.11470784  0.50132270  1
  V  V44  1  0.62825471  0.24724587  0.38550802  1
  V  V45  1  0.23893361  0.38774223  0.61213335  1
  V  V46  1  0.39153064  0.26143009  0.61791309  1
  V  V47  1  0.63175727  0.37265835  0.23589690  1
  V  V48  1  0.74761654  0.38574819  0.62802310  1
  V  V49  1  0.25607521  0.61306701  0.88042244  1
  V  V50  1  0.76279518  0.25239190  0.00619812  1
  V  V51  1  -0.02347864  0.88267691  0.40320832  1
  V  V52  1  0.87390600  0.24784606  0.63108036  1
  V  V53  1  0.39001276  0.63139849  0.75292911  1
  V  V54  1  0.49473447  0.50241448  -0.00782427  1
  V  V55  1  0.87535392  0.00726362  0.89060093  1
  V  V56  1  0.62833227  0.49883275  0.11478923  1
  V  V57  1  -0.00665860  0.38271098  0.37307575  1
  V  V58  1  0.25577399  0.50699065  0.73915814  1
  V  V59  1  0.82719575  0.06965836  0.70199788  1
  V  V60  1  0.24774376  0.87255074  0.10884776  1
  V  V61  1  0.88244668  0.24204136  0.14319653  1
  V  V62  1  0.75233727  0.86845867  0.11868271  1
  V  V63  1  -0.00292201  0.87112124  0.88396095  1
  V  V64  1  0.49670108  0.86204253  0.87128439  1
  V  V65  1  0.14814047  0.76188772  0.88298711  1
  V  V66  1  0.86568639  0.02007012  0.38654925  1
  V  V67  1  0.76180319  0.76421979  0.49222649  1
  V  V68  1  0.36704736  0.40199384  0.48868979  1
  V  V69  1  0.37208033  0.75024479  0.60830341  1
  Zn  Zn70  1  -0.01012317  0.21764566  0.26287595  1
  Zn  Zn71  1  0.34269349  0.27008361  0.10142489  1
  Zn  Zn72  1  0.63860742  0.57848248  0.50922070  1
  Zn  Zn73  1  0.82841296  0.55211234  0.87213985  1
  Zn  Zn74  1  0.49679359  0.24677027  0.76141728  1
  Zn  Zn75  1  0.12071244  -0.00659995  0.14313746  1
  Zn  Zn76  1  0.18529431  0.16552876  0.21357834  1
  Zn  Zn77  1  0.20248464  0.19059753  0.68300603  1
  Zn  Zn78  1  0.18259631  0.70482604  0.19473329  1
  Zn  Zn79  1  0.19819929  0.70761171  0.69915766  1
  Zn  Zn80  1  0.68124038  0.18888131  0.18062237  1
  Zn  Zn81  1  0.65060075  0.20729565  0.65276505  1
  Zn  Zn82  1  0.66691802  0.67588496  0.19998330  1
  Zn  Zn83  1  0.66281635  0.72102193  0.65564633  1
  Zn  Zn84  1  0.32279172  0.32989960  0.27414466  1
  Zn  Zn85  1  0.31203269  0.31755104  0.80042641  1
  Zn  Zn86  1  0.30794533  0.79910757  0.30954336  1
  Zn  Zn87  1  0.31563958  0.81861995  0.80083045  1
  Zn  Zn88  1  0.80867876  0.30659674  0.31376373  1
  Zn  Zn89  1  0.81297663  0.30385795  0.80647760  1
  Zn  Zn90  1  0.81004402  0.81646450  0.30734113  1
  Zn  Zn91  1  0.81644979  0.81755222  0.81913343  1
  Zn  Zn92  1  0.18609674  0.44083952  0.42185035  1
  Zn  Zn93  1  0.08230143  0.41511704  0.96816885  1
  Zn  Zn94  1  0.18205763  0.92637504  0.43031200  1
  Zn  Zn95  1  0.19463125  0.95024455  0.93533021  1
  Zn  Zn96  1  0.69396501  0.42535130  0.42633452  1
  Zn  Zn97  1  0.72800176  0.44598641  0.94320883  1
  Zn  Zn98  1  0.67701861  0.94059063  0.44099881  1
  Zn  Zn99  1  0.68661508  0.93253491  0.93262395  1
  Zn  Zn100  1  0.30401248  0.05119684  0.05457691  1
  Zn  Zn101  1  0.37671738  0.04911064  0.61176446  1
  Zn  Zn102  1  0.31216476  0.56540528  0.05663561  1
  Zn  Zn103  1  0.28646373  0.60111630  0.56591050  1
  Zn  Zn104  1  0.81364336  0.06609996  0.06319838  1
  Zn  Zn105  1  0.73847876  0.05832285  0.54029876  1
  Zn  Zn106  1  0.81875825  0.55834203  0.06327105  1
  Zn  Zn107  1  0.81787629  0.55696951  0.55322064  1
  Zn  Zn108  1  0.44054437  0.43273328  0.16931652  1
  Zn  Zn109  1  0.47977234  0.47434299  0.72025574  1
  Zn  Zn110  1  0.43440083  0.93376993  0.18883758  1
  Zn  Zn111  1  0.45061622  0.92197862  0.69012912  1
  Zn  Zn112  1  0.94092312  0.41859778  0.17257376  1
  Zn  Zn113  1  0.94654939  0.43093002  0.68695301  1
  Zn  Zn114  1  0.92993831  0.95078791  0.18192429  1
  Zn  Zn115  1  0.94972899  0.93507314  0.69702115  1
  Zn  Zn116  1  0.06660049  0.04417953  0.32661952  1
  Zn  Zn117  1  0.07074918  0.06132826  0.81534655  1
  Zn  Zn118  1  0.04243542  0.57104644  0.31612903  1
  Zn  Zn119  1  0.07735915  0.57354261  0.80663357  1
  Zn  Zn120  1  0.56289798  0.06183399  0.31766809  1
  Zn  Zn121  1  0.57164299  0.06531235  0.78607095  1
  Zn  Zn122  1  0.56448652  0.56307947  0.30450179  1
  Zn  Zn123  1  0.61685832  0.53887531  0.82987725  1
  Zn  Zn124  1  0.45368808  0.19504810  0.44582078  1
  Zn  Zn125  1  0.37625527  0.20018725  0.92646998  1
  Zn  Zn126  1  0.42985067  0.68981169  0.42775594  1
  Zn  Zn127  1  0.45037747  0.68009579  0.93960212  1
  Zn  Zn128  1  0.94033133  0.18689748  0.44627270  1
  Zn  Zn129  1  0.97657124  0.23155192  0.96608910  1
  Zn  Zn130  1  0.94506464  0.68680345  0.43797446  1
  Zn  Zn131  1  0.94126668  0.69362439  0.94602279  1
  Zn  Zn132  1  0.08359225  0.28485601  0.09382237  1
  Zn  Zn133  1  0.05971062  0.30847960  0.56057665  1
  Zn  Zn134  1  0.06440653  0.81646427  0.05929859  1
  Zn  Zn135  1  0.04061644  0.80116099  0.57233417  1
  Zn  Zn136  1  0.52125339  0.27989862  0.02083143  1
  Zn  Zn137  1  0.56622657  0.37432796  0.54378878  1
  Zn  Zn138  1  0.56478601  0.81447155  0.06017013  1
  Zn  Zn139  1  0.55277987  0.80842189  0.55944977  1
  O  O140  1  0.08855946  0.11287062  0.17318611  1
  O  O141  1  0.12475781  0.13053508  0.61298398  1
  O  O142  1  0.12049335  0.63198608  0.11558257  1
  O  O143  1  0.09483538  0.64467941  0.65238694  1
  O  O144  1  0.61741584  0.11058268  0.11637638  1
  O  O145  1  0.56752999  0.11714377  0.67583738  1
  O  O146  1  0.63041419  0.60925715  0.11153493  1
  O  O147  1  0.60821580  0.63173790  0.60921455  1
  O  O148  1  0.37301739  0.39468876  0.36421943  1
  O  O149  1  0.37425916  0.38627310  0.87270483  1
  O  O150  1  0.39395769  0.85616328  0.36558487  1
  O  O151  1  0.39689898  0.86012740  0.86970667  1
  O  O152  1  0.88371522  0.35971850  0.39093710  1
  O  O153  1  0.88396423  0.39532185  0.84307263  1
  O  O154  1  0.87426689  0.89086766  0.37368142  1
  O  O155  1  0.89045330  0.89082733  0.87094836  1
  O  O156  1  0.26280986  -0.02189405  0.36832928  1
  O  O157  1  0.24837363  0.01646038  0.85880539  1
  O  O158  1  0.25680652  0.51301792  0.35751535  1
  O  O159  1  0.25288996  0.51493316  0.86622425  1
  O  O160  1  0.75086608  0.00067788  0.36128707  1
  O  O161  1  0.76780124  0.00143705  0.88430148  1
  O  O162  1  0.75123259  0.50653359  0.36251931  1
  O  O163  1  0.72722221  0.51175132  0.85072543  1
  O  O164  1  0.24407812  0.47089496  0.10006107  1
  O  O165  1  0.25102180  0.50492925  0.62915402  1
  O  O166  1  0.24643934  0.99039606  0.13202195  1
  O  O167  1  0.26709865  1.01767900  0.63782756  1
  O  O168  1  0.74204926  0.50436117  0.13969031  1
  O  O169  1  0.75256009  0.48459462  0.62198101  1
  O  O170  1  0.74420976  0.99046330  0.13155877  1
  O  O171  1  0.77785886  1.01136713  0.64084752  1
  O  O172  1  -0.00083589  0.37617815  0.26816994  1
  O  O173  1  0.02486417  0.36794672  0.74542192  1
  O  O174  1  -0.00577955  0.87668227  0.24715324  1
  O  O175  1  0.02090122  0.88763002  0.77356966  1
  O  O176  1  0.50977409  0.36481475  0.24463957  1
  O  O177  1  0.50380147  0.37601480  0.77309433  1
  O  O178  1  0.51673670  0.87748984  0.25454832  1
  O  O179  1  0.51798035  0.86910921  0.76606892  1
  O  O180  1  0.49120861  0.12352834  0.24238968  1
  O  O181  1  0.47005918  0.13058549  0.79603322  1
  O  O182  1  0.55750770  0.65062244  0.23830627  1
  O  O183  1  0.48762751  0.62068968  0.75889625  1
  O  O184  1  1.02835453  0.10737560  0.23442126  1
  O  O185  1  1.02572852  0.13992016  0.73776264  1
  O  O186  1  1.00158182  0.63900144  0.23353834  1
  O  O187  1  1.04072515  0.63043023  0.70411322  1
  O  O188  1  0.41088559  0.24581512  0.01964191  1
  O  O189  1  0.36158266  0.26172003  0.48810718  1
  O  O190  1  0.37451703  0.71228268  0.02807267  1
  O  O191  1  0.37534017  0.74991290  0.50691957  1
  O  O192  1  0.86464233  0.24799243  -0.00063900  1
  O  O193  1  0.88831797  0.25897174  0.52129884  1
  O  O194  1  0.87611010  0.75304202  0.01991937  1
  O  O195  1  0.86140059  0.75176858  0.48184932  1
  O  O196  1  0.13313935  0.24911312  0.49173266  1
  O  O197  1  0.18361712  0.23421640  1.06040482  1
  O  O198  1  0.09687223  0.75218648  0.48392635  1
  O  O199  1  0.12231991  0.74070448  0.98699009  1
  O  O200  1  0.60327015  0.27387610  0.47897876  1
  O  O201  1  0.62381560  0.22598379  1.00113658  1
  O  O202  1  0.63987368  0.75210779  0.48380804  1
  O  O203  1  0.62822847  0.73852313  1.00221217  1
  O  O204  1  0.51274042  0.23088552  0.13713357  1
  O  O205  1  0.48776257  0.28578640  0.60169662  1
  O  O206  1  0.49032442  0.76631880  0.12841390  1
  O  O207  1  0.48610499  0.72940133  0.61561648  1
  O  O208  1  0.98896143  0.24276506  0.14565335  1
  O  O209  1  0.99888487  0.24166006  0.63365122  1
  O  O210  1  0.98894454  0.75888677  0.13367996  1
  O  O211  1  0.95561700  0.73508206  0.61091533  1
  O  O212  1  0.00707563  0.25638317  0.37730441  1
  O  O213  1  0.00080942  0.24307621  0.85243989  1
  O  O214  1  -0.01062305  0.76966254  0.36518893  1
  O  O215  1  0.00211965  0.76899830  0.88111004  1
  O  O216  1  0.50059465  0.26266746  0.35721138  1
  O  O217  1  0.48593821  0.27168230  0.88196978  1
  O  O218  1  0.51833832  0.75292348  0.37932555  1
  O  O219  1  0.51879448  0.75879490  0.88863899  1
  O  O220  1  0.23902562  0.14420238  0.49988321  1
  O  O221  1  0.28120325  0.12051726  0.96766330  1
  O  O222  1  0.25729358  0.63956202  0.45953629  1
  O  O223  1  0.23583733  0.61829716  0.98851697  1
  O  O224  1  0.66321891  0.13820090  0.56483792  1
  O  O225  1  0.74371607  0.12854320  0.98881932  1
  O  O226  1  0.75177407  0.61825145  0.48378492  1
  O  O227  1  0.74325353  0.62992233  1.00335401  1
  O  O228  1  0.23330461  0.41716541  0.04939323  1
  O  O229  1  0.25356173  0.37537527  0.49148123  1
  O  O230  1  0.25403807  0.88424770  0.00890515  1
  O  O231  1  0.26795992  0.89294053  0.51810952  1
  O  O232  1  0.73558933  0.34601242  -0.00949188  1
  O  O233  1  0.76840308  0.37211749  0.50896515  1
  O  O234  1  0.73917681  0.87443349  0.02063047  1
  O  O235  1  0.75097375  0.86254598  0.48789978  1
  O  O236  1  0.11646534  0.49795402  0.26568305  1
  O  O237  1  0.13844683  0.48933674  0.75469841  1
  O  O238  1  0.15028565  0.99842518  0.26213283  1
  O  O239  1  0.13454641  0.98918253  0.74724092  1
  O  O240  1  0.62707157  0.48653950  0.23707183  1
  O  O241  1  0.60709744  0.47261571  0.73619783  1
  O  O242  1  0.63073525  0.99171748  0.24254339  1
  O  O243  1  0.62725930  0.97853912  0.73522087  1
  O  O244  1  0.37308977  0.01022656  0.25104591  1
  O  O245  1  0.36817679  -0.01082330  0.74969965  1
  O  O246  1  0.37423745  0.51117297  0.23485257  1
  O  O247  1  0.36503694  0.51746004  0.74797717  1
  O  O248  1  0.85863111  0.00367587  0.25499292  1
  O  O249  1  0.88398866  0.00932317  0.76266921  1
  O  O250  1  0.86243774  0.48799991  0.24073249  1
  O  O251  1  0.88518881  0.45432287  0.79090920  1
  O  O252  1  0.10792620  0.36590185  0.37224915  1
  O  O253  1  0.13451579  0.37658243  0.86649269  1
  O  O254  1  0.08907293  0.87688540  0.38383485  1
  O  O255  1  0.12547837  0.86913504  0.87955630  1
  O  O256  1  0.61153381  0.37202053  0.35588127  1
  O  O257  1  0.63765111  0.37249504  0.86299420  1
  O  O258  1  0.61816276  0.87391535  0.36725915  1
  O  O259  1  0.62697954  0.86162378  0.86347779  1
  O  O260  1  0.38724491  0.11303429  0.12052767  1
  O  O261  1  0.38167290  0.16131165  0.60801461  1
  O  O262  1  0.37736076  0.65489204  0.09292681  1
  O  O263  1  0.38707315  0.62801329  0.63392473  1
  O  O264  1  0.87107541  0.14026795  0.12206845  1
  O  O265  1  0.89083172  0.13462895  0.63870547  1
  O  O266  1  0.88484929  0.63730898  0.12267438  1
  O  O267  1  0.86922409  0.59004297  0.66478608  1
  O  O268  1  0.23630985  0.22324026  0.12351391  1
  O  O269  1  0.25716582  0.26727835  0.60605206  1
  O  O270  1  0.25609820  0.76732297  0.12944926  1
  O  O271  1  0.26641511  0.71458949  0.61210350  1
  O  O272  1  0.75464338  0.24194283  0.11104415  1
  O  O273  1  0.77279447  0.24790813  0.63879767  1
  O  O274  1  0.75789363  0.75732424  0.13824897  1
  O  O275  1  0.76698896  0.73805744  0.60242297  1
  O  O276  1  0.23304769  0.25787432  0.38402731  1
  O  O277  1  0.28199896  0.22581322  0.85950110  1
  O  O278  1  0.21507035  0.79379493  0.38299420  1
  O  O279  1  0.24925132  0.75398755  0.88090929  1
  O  O280  1  0.72914899  0.26234642  0.38027341  1
  O  O281  1  0.75872843  0.23080727  0.87916626  1
  O  O282  1  0.74665091  0.73405390  0.37725308  1
  O  O283  1  0.74383997  0.75601704  0.88623260  1
  O  O284  1  0.00234288  0.12215481  -0.00066648  1
  O  O285  1  0.01542954  0.12899385  0.51648742  1
  O  O286  1  0.00967611  0.63750829  0.01999397  1
  O  O287  1  -0.01246789  0.60316896  0.49737239  1
  O  O288  1  0.51147515  0.10254811  0.00454519  1
  O  O289  1  0.51028133  0.12256869  0.51201961  1
  O  O290  1  0.52206566  0.60545609  -0.00522572  1
  O  O291  1  0.49400577  0.61646882  0.49570161  1
  O  O292  1  0.47306295  0.38149755  0.47258883  1
  O  O293  1  0.50622250  0.38879642  0.98595014  1
  O  O294  1  0.50252045  0.87427591  0.48534303  1
  O  O295  1  0.51402351  0.88578406  0.98648186  1
  O  O296  1  0.99535825  0.37925602  0.49267060  1
  O  O297  1  1.03137683  0.32524889  1.00144276  1
  O  O298  1  0.97775799  0.87595481  0.50127066  1
  O  O299  1  1.00915647  0.88975125  0.98569650  1
  O  O300  1  0.48578220  0.49105720  0.34733378  1
  O  O301  1  0.51199165  0.49130546  0.88481616  1
  O  O302  1  0.49964009  0.98500426  0.37228438  1
  O  O303  1  0.51170165  0.98590830  0.87982817  1
  O  O304  1  0.99378566  0.48560017  0.38364766  1
  O  O305  1  0.98277415  0.55488354  0.86912637  1
  O  O306  1  0.97923795  0.99277785  0.38412944  1
  O  O307  1  0.99508685  1.00397242  0.88720694  1
  O  O308  1  0.00313301  -0.00708251  0.10712472  1
  O  O309  1  0.00118599  0.01955644  0.63532900  1
  O  O310  1  -0.01057997  0.51513054  0.12971473  1
  O  O311  1  0.00610707  0.49211027  0.61307856  1
  O  O312  1  0.50979455  -0.00215138  0.11834009  1
  O  O313  1  0.48112361  0.00159862  0.61139679  1
  O  O314  1  0.51936166  0.48983481  0.10852948  1
  O  O315  1  0.49249297  0.51608006  0.61732505  1
  O  O316  1  0.22122671  0.37726210  0.26446044  1
  O  O317  1  0.24398914  0.38623729  0.73443054  1
  O  O318  1  0.26366702  0.88528358  0.24008095  1
  O  O319  1  0.24065663  0.88927642  0.75015111  1
  O  O320  1  0.73818673  0.38588423  0.25886418  1
  O  O321  1  0.74255719  0.36840121  0.73873505  1
  O  O322  1  0.73905746  0.88746368  0.24342918  1
  O  O323  1  0.73956073  0.87155810  0.75346520  1
  O  O324  1  0.26960591  0.11106824  0.26487222  1
  O  O325  1  0.24951287  0.11540760  0.75579155  1
  O  O326  1  0.24976225  0.66846131  0.28665922  1
  O  O327  1  0.24925015  0.62019630  0.76231112  1
  O  O328  1  0.73698790  0.10969981  0.24267447  1
  O  O329  1  0.75517433  0.12071536  0.76062611  1
  O  O330  1  0.74610021  0.61062745  0.26165828  1
  O  O331  1  0.81854225  0.59047827  0.72045059  1
  O  O332  1  0.39072597  0.12024663  0.37607231  1
  O  O333  1  0.41846954  0.11355434  0.85333163  1
  O  O334  1  0.38637008  0.61046689  0.35845597  1
  O  O335  1  0.36333182  0.63571141  0.86834335  1
  O  O336  1  0.88916417  0.11760765  0.36901328  1
  O  O337  1  0.86318705  0.11185934  0.87684208  1
  O  O338  1  0.86802434  0.62308092  0.36883868  1
  O  O339  1  0.92352932  0.61534201  0.85952589  1
  O  O340  1  0.10397350  0.38317996  0.15161900  1
  O  O341  1  0.13837655  0.37627968  0.61541569  1
  O  O342  1  0.14034320  0.87505543  0.12271099  1
  O  O343  1  0.11068861  0.86063622  0.64267685  1
  O  O344  1  0.63183044  0.38173457  0.13388694  1
  O  O345  1  0.64922702  0.35825340  0.62121398  1
  O  O346  1  0.63250534  0.87780974  0.13753731  1
  O  O347  1  0.62439377  0.83635216  0.64481541  1
  O  O348  1  0.12150109  0.24800124  0.26935830  1
  O  O349  1  0.12846330  0.26700375  0.74290635  1
  O  O350  1  0.10099730  0.75708731  0.26378970  1
  O  O351  1  0.13454081  0.76830482  0.77146405  1
  O  O352  1  0.62070797  0.26037944  0.25184688  1
  O  O353  1  0.60938338  0.26689147  0.74061545  1
  O  O354  1  0.64133399  0.76728035  0.26976381  1
  O  O355  1  0.63904936  0.73725740  0.76776731  1
  O  O356  1  0.38303414  0.22632245  0.25333243  1
  O  O357  1  0.38579918  0.27172324  0.72205201  1
  O  O358  1  0.37870287  0.74425310  0.23675708  1
  O  O359  1  0.36699354  0.73294019  0.74183872  1
  O  O360  1  0.87161780  0.24090322  0.24915704  1
  O  O361  1  0.89944080  0.26277137  0.73807118  1
  O  O362  1  0.88588914  0.75574641  0.24051903  1
  O  O363  1  0.86396684  0.74480488  0.74495675  1
  O  O364  1  0.35997456  0.49943540  0.48554048  1
  O  O365  1  0.39499082  0.50636160  1.00440931  1
  O  O366  1  0.33202428  0.92931671  0.51163778  1
  O  O367  1  0.39375320  0.99418401  0.99547296  1
  O  O368  1  0.88803614  0.47853294  0.50609237  1
  O  O369  1  0.83364012  0.49467568  0.97354590  1
  O  O370  1  0.83520637  1.02633414  0.48254264  1
  O  O371  1  0.88712051  1.00422058  0.99370875  1
  O  O372  1  0.11800857  0.01124884  0.00075820  1
  O  O373  1  0.13683320  0.01676624  0.49152544  1
  O  O374  1  0.10818446  0.52198719  -0.01219637  1
  O  O375  1  0.11385752  0.50110957  0.48792908  1
  O  O376  1  0.62680790  0.00207559  0.00908021  1
  O  O377  1  0.63087321  -0.00208574  0.52739505  1
  O  O378  1  0.63780559  0.50138380  0.00987786  1
  O  O379  1  0.61783104  0.46975832  0.49520758  1
  O  O380  1  0.35903281  0.35759584  0.16681439  1
  O  O381  1  0.36045699  0.37893864  0.59429272  1
  O  O382  1  0.36735544  0.86766586  0.12315543  1
  O  O383  1  0.37846608  0.84709518  0.63752893  1
  O  O384  1  0.87145362  0.34611374  0.12497903  1
  O  O385  1  0.87031758  0.36673071  0.62109375  1
  O  O386  1  0.85878684  0.86862836  0.12946933  1
  O  O387  1  0.87637783  0.87033606  0.64240398  1
  O  O388  1  0.11352834  0.13771346  0.39056053  1
  O  O389  1  0.13601986  0.13510267  0.87907562  1
  O  O390  1  0.11815275  0.64313051  0.37298029  1
  O  O391  1  0.14006163  0.64233685  0.87806818  1
  O  O392  1  0.61257613  0.14642217  0.37373425  1
  O  O393  1  0.64325901  0.10600406  0.87712369  1
  O  O394  1  0.62916715  0.62838163  0.38543953  1
  O  O395  1  0.62863075  0.63750205  0.88996822  1
