# generated using pymatgen
data_V35Zn35O128
_symmetry_space_group_name_H-M   'P 1'
_cell_length_a   16.89461006
_cell_length_b   16.91566299
_cell_length_c   16.90001191
_cell_angle_alpha   89.92102433
_cell_angle_beta   90.00121758
_cell_angle_gamma   90.15884677
_symmetry_Int_Tables_number   1
_chemical_formula_structural   V35Zn35O128
_chemical_formula_sum   'V70 Zn70 O256'
_cell_volume   4829.72191242
_cell_formula_units_Z   2
loop_
 _symmetry_equiv_pos_site_id
 _symmetry_equiv_pos_as_xyz
  1  'x, y, z'
loop_
 _atom_site_type_symbol
 _atom_site_label
 _atom_site_symmetry_multiplicity
 _atom_site_fract_x
 _atom_site_fract_y
 _atom_site_fract_z
 _atom_site_occupancy
  V  V0  1  0.25987160  0.25189041  0.50762188  1
  V  V1  1  0.37235410  0.74268335  0.63415184  1
  V  V2  1  0.38228760  0.73971548  0.12195028  1
  V  V3  1  0.49140598  -0.00583470  0.47923371  1
  V  V4  1  0.51499049  0.63079909  0.62994912  1
  V  V5  1  0.24977202  0.87353069  0.62940926  1
  V  V6  1  0.51411801  0.76189421  0.76463103  1
  V  V7  1  0.24569622  0.62183559  0.85764523  1
  V  V8  1  0.36767105  0.87353242  0.48465620  1
  V  V9  1  0.74557788  0.75331797  -0.00940993  1
  V  V10  1  0.72929857  0.00226683  0.24125830  1
  V  V11  1  0.48990112  0.25090134  0.24597322  1
  V  V12  1  -0.00479513  0.26089702  0.25857781  1
  V  V13  1  -0.00216668  -0.01631159  0.00500254  1
  V  V14  1  0.50140621  0.51022663  0.49556433  1
  V  V15  1  0.25823805  0.39096802  0.62466617  1
  V  V16  1  0.61576291  0.63668805  -0.02422980  1
  V  V17  1  0.50193111  0.24773344  0.74390837  1
  V  V18  1  0.74034993  0.62566840  0.38344289  1
  V  V19  1  0.50292516  0.38178041  0.86516599  1
  V  V20  1  0.74810949  0.49024549  0.26086524  1
  V  V21  1  0.00051200  0.37162207  0.88044941  1
  V  V22  1  0.36375706  0.25803943  0.11129603  1
  V  V23  1  0.74605797  0.12359290  0.36963937  1
  V  V24  1  0.26330560  0.00523113  0.74954714  1
  V  V25  1  0.87748694  0.61045649  0.24200313  1
  V  V26  1  0.60928530  0.85469137  0.25754949  1
  V  V27  1  0.24090656  0.74268178  -0.00725362  1
  V  V28  1  0.02297997  0.76356078  0.77301653  1
  V  V29  1  0.62004738  0.12174999  0.49949287  1
  V  V30  1  0.75628110  0.87274104  0.60357491  1
  V  V31  1  0.25810677  0.13774652  0.87228807  1
  V  V32  1  0.63258824  0.47973007  0.63499090  1
  V  V33  1  0.11790817  0.11874562  0.49918483  1
  V  V34  1  0.49416486  0.12221212  0.11975739  1
  V  V35  1  0.74648352  0.13045979  0.88095418  1
  V  V36  1  0.74531034  0.87279490  0.12655185  1
  V  V37  1  0.13764559  0.12905684  -0.00518947  1
  V  V38  1  0.11169437  0.60850800  0.00982436  1
  V  V39  1  0.11558780  0.83448099  0.25379204  1
  V  V40  1  -0.00267493  0.12409787  0.62853997  1
  V  V41  1  0.62187738  0.37081805  0.23299028  1
  V  V42  1  0.23626574  0.73756307  0.49223133  1
  V  V43  1  0.48657702  0.37663695  0.38142558  1
  V  V44  1  0.87380720  0.74055820  0.12885548  1
  V  V45  1  0.25372700  0.87168538  0.11694279  1
  V  V46  1  -0.05021668  0.18286896  0.07368590  1
  V  V47  1  0.24507390  0.38597209  0.11613458  1
  V  V48  1  0.61408801  -0.00388149  0.63411209  1
  V  V49  1  0.62687015  0.51733406  0.12088136  1
  V  V50  1  0.87297856  0.13650151  0.74869699  1
  V  V51  1  0.12043242  0.25945069  0.37050235  1
  V  V52  1  0.48885704  0.50061012  0.00439281  1
  V  V53  1  0.38733992  0.62271103  0.25885793  1
  V  V54  1  0.25044685  0.50271540  0.26624582  1
  V  V55  1  0.36552041  0.11826957  0.25028887  1
  V  V56  1  0.88256331  0.11908524  0.24781761  1
  V  V57  1  0.37143743  0.50689102  0.85009749  1
  V  V58  1  0.24839329  0.11662814  0.37157991  1
  V  V59  1  -0.00543178  0.63237004  0.65330839  1
  V  V60  1  0.13705160  0.39782409  0.74975982  1
  V  V61  1  0.74777134  -0.00816907  0.75293218  1
  V  V62  1  0.38013340  -0.01239975  0.88447496  1
  V  V63  1  0.03493356  0.23885661  0.75280025  1
  V  V64  1  0.11948843  -0.00300793  0.62976048  1
  V  V65  1  0.87857771  -0.01144874  0.87944961  1
  V  V66  1  0.75317437  0.26060159  0.50907761  1
  V  V67  1  0.62202734  0.13103862  0.00422712  1
  V  V68  1  0.62268442  0.25496460  0.37255231  1
  V  V69  1  0.12133683  0.00061863  0.12975068  1
  Zn  Zn70  1  0.48410175  0.12540300  0.62736050  1
  Zn  Zn71  1  0.50092939  -0.00421752  -0.00197049  1
  Zn  Zn72  1  0.24861461  -0.02545652  0.26589555  1
  Zn  Zn73  1  0.65083991  0.28872661  0.87387627  1
  Zn  Zn74  1  -0.08722948  0.96066502  0.41296323  1
  Zn  Zn75  1  0.78693524  0.59497685  0.84290079  1
  Zn  Zn76  1  0.18256489  0.19077527  0.18468857  1
  Zn  Zn77  1  0.32184364  0.19027720  0.68853794  1
  Zn  Zn78  1  0.20049963  0.67376374  0.17582057  1
  Zn  Zn79  1  0.17245338  0.67956567  0.67613195  1
  Zn  Zn80  1  0.68802289  0.18979798  0.18428445  1
  Zn  Zn81  1  0.67890368  0.19039326  0.69457466  1
  Zn  Zn82  1  0.69020830  0.68718401  0.19638699  1
  Zn  Zn83  1  0.69407483  0.69549676  0.69592252  1
  Zn  Zn84  1  0.30296129  0.31358346  0.30751540  1
  Zn  Zn85  1  0.31876690  0.32280743  0.81241129  1
  Zn  Zn86  1  0.30428318  0.79503165  0.30779835  1
  Zn  Zn87  1  0.31095365  0.81151396  0.81260005  1
  Zn  Zn88  1  0.82095198  0.32258097  0.18289301  1
  Zn  Zn89  1  0.82561892  0.30950788  0.94673502  1
  Zn  Zn90  1  0.83978853  0.78398545  0.34669183  1
  Zn  Zn91  1  0.81640522  0.81277430  0.80855985  1
  Zn  Zn92  1  0.19531420  0.43437846  0.43845472  1
  Zn  Zn93  1  0.18760298  0.43810614  0.93363178  1
  Zn  Zn94  1  0.10708873  0.93771790  0.42685585  1
  Zn  Zn95  1  0.18956004  0.93374126  0.93791171  1
  Zn  Zn96  1  0.72343441  0.47474937  0.48733793  1
  Zn  Zn97  1  0.69435587  0.46068702  0.93262987  1
  Zn  Zn98  1  0.68441103  0.93652516  0.42944998  1
  Zn  Zn99  1  0.68433494  0.94538121  0.94564639  1
  Zn  Zn100  1  0.31413554  0.05927169  0.06187315  1
  Zn  Zn101  1  0.30833797  0.05805824  0.55306864  1
  Zn  Zn102  1  0.30893759  0.56571217  0.06474329  1
  Zn  Zn103  1  0.32142674  0.56173991  0.55549557  1
  Zn  Zn104  1  0.80917386  0.05785849  0.06089877  1
  Zn  Zn105  1  0.81028734  0.04937161  0.56536601  1
  Zn  Zn106  1  0.80232083  0.56424233  0.04066405  1
  Zn  Zn107  1  0.81854087  0.56242836  0.65273020  1
  Zn  Zn108  1  0.43356567  0.44117941  0.18548260  1
  Zn  Zn109  1  0.43923643  0.43854175  0.67995894  1
  Zn  Zn110  1  0.43340639  0.93686962  0.18966208  1
  Zn  Zn111  1  0.43351000  0.93091152  0.68805078  1
  Zn  Zn112  1  1.07408344  0.43868129  0.20536282  1
  Zn  Zn113  1  0.96198541  0.45274098  0.73580375  1
  Zn  Zn114  1  0.91515082  0.90623350  0.23491234  1
  Zn  Zn115  1  0.93291380  0.93424529  0.69038194  1
  Zn  Zn116  1  0.06099243  0.06485687  0.31022693  1
  Zn  Zn117  1  0.08453421  0.01718510  0.83105164  1
  Zn  Zn118  1  0.08434088  0.61906965  0.27641577  1
  Zn  Zn119  1  0.05881803  0.56664707  0.83180552  1
  Zn  Zn120  1  0.55627725  0.06440388  0.30794799  1
  Zn  Zn121  1  0.55925020  0.06577076  0.81290614  1
  Zn  Zn122  1  0.56415775  0.56228884  0.31161654  1
  Zn  Zn123  1  0.55893792  0.56549955  0.80407948  1
  Zn  Zn124  1  0.43496068  0.18338925  0.43500760  1
  Zn  Zn125  1  0.43669837  0.19454702  0.93185177  1
  Zn  Zn126  1  0.43160411  0.68705433  0.44642485  1
  Zn  Zn127  1  0.42718396  0.68831427  0.93703396  1
  Zn  Zn128  1  0.91378744  0.14953478  0.45495053  1
  Zn  Zn129  1  0.95700511  0.16839857  0.90951428  1
  Zn  Zn130  1  0.94357893  0.63517341  0.42890500  1
  Zn  Zn131  1  0.94567386  0.70850093  0.94413633  1
  Zn  Zn132  1  0.07682890  0.31679560  0.06063890  1
  Zn  Zn133  1  0.08558058  0.29624023  0.57772986  1
  Zn  Zn134  1  0.06288624  0.80623861  0.06726894  1
  Zn  Zn135  1  0.06155235  0.80142077  0.58533524  1
  Zn  Zn136  1  0.67669009  0.31084942  0.05443901  1
  Zn  Zn137  1  0.56575115  0.31335607  0.56206710  1
  Zn  Zn138  1  0.56742397  0.81339465  0.06689997  1
  Zn  Zn139  1  0.55465310  0.82278051  0.56866498  1
  O  O140  1  0.14155803  0.10721733  0.11152992  1
  O  O141  1  0.11640033  0.11089383  0.61442417  1
  O  O142  1  0.11998392  0.62376163  0.11094921  1
  O  O143  1  0.08970720  0.61453139  0.62436614  1
  O  O144  1  0.61102743  0.13774297  0.11129213  1
  O  O145  1  0.61785802  0.11093783  0.61437002  1
  O  O146  1  0.62153154  0.61704470  0.12836672  1
  O  O147  1  0.61367602  0.63972223  0.61920469  1
  O  O148  1  0.38861383  0.36974503  0.36644172  1
  O  O149  1  0.38152008  0.40008044  0.87135172  1
  O  O150  1  0.36374038  0.86554406  0.38572271  1
  O  O151  1  0.36986111  0.88842937  0.87350786  1
  O  O152  1  0.89747098  0.38639269  0.40168142  1
  O  O153  1  0.90050433  0.35693026  0.87714805  1
  O  O154  1  0.87244455  0.88832114  0.33897504  1
  O  O155  1  0.87434645  0.89041476  0.87758843  1
  O  O156  1  0.23689541  0.01617816  0.37412081  1
  O  O157  1  0.26125436  0.00280108  0.86306600  1
  O  O158  1  0.25600761  0.49769351  0.36660557  1
  O  O159  1  0.26142879  0.50993607  0.87273372  1
  O  O160  1  0.73744685  0.01440927  0.35466051  1
  O  O161  1  0.75947056  0.00288569  0.87441909  1
  O  O162  1  0.74342548  0.48572319  0.35984625  1
  O  O163  1  0.78984249  0.52433147  0.92970686  1
  O  O164  1  0.25528827  0.48857070  0.12970867  1
  O  O165  1  0.25110090  0.48945901  0.61063226  1
  O  O166  1  0.24038990  0.98117844  0.11609747  1
  O  O167  1  0.24817071  0.99351924  0.63278176  1
  O  O168  1  0.72855727  0.49992498  0.11565370  1
  O  O169  1  0.73406444  0.49544227  0.60901220  1
  O  O170  1  0.75482075  0.98696452  0.13212063  1
  O  O171  1  0.73498982  0.99668165  0.63320215  1
  O  O172  1  0.00125571  0.35994984  0.25116404  1
  O  O173  1  0.02347625  0.35458490  0.74660530  1
  O  O174  1  0.02067266  0.86061656  0.23569249  1
  O  O175  1  -0.01222602  0.85769144  0.74899159  1
  O  O176  1  0.50161788  0.36756611  0.25355674  1
  O  O177  1  0.49477506  0.37273840  0.75816938  1
  O  O178  1  0.51119082  0.87650908  0.23933190  1
  O  O179  1  0.50000816  0.86105397  0.74557960  1
  O  O180  1  0.48576506  0.13089392  0.24268438  1
  O  O181  1  0.50033695  0.14251282  0.75140409  1
  O  O182  1  0.48782732  0.61431108  0.24617486  1
  O  O183  1  0.50160171  0.64053989  0.73392496  1
  O  O184  1  0.98611874  0.13023287  0.25108213  1
  O  O185  1  0.99538528  0.13222701  0.74907808  1
  O  O186  1  0.97611348  0.60309670  0.23692559  1
  O  O187  1  1.01246874  0.64393332  0.76027999  1
  O  O188  1  0.37182783  0.24820425  0.01327141  1
  O  O189  1  0.35763793  0.24756791  0.48910626  1
  O  O190  1  0.35644852  0.74208533  0.01171792  1
  O  O191  1  0.37075772  0.76133112  0.50911860  1
  O  O192  1  0.89857064  0.23531731  0.00285065  1
  O  O193  1  0.85051381  0.23662420  0.49517705  1
  O  O194  1  0.85306076  0.74277305  0.01235127  1
  O  O195  1  0.92855544  0.79308836  0.49226925  1
  O  O196  1  0.13235212  0.23816997  0.48942007  1
  O  O197  1  0.12666569  0.22707631  1.00481763  1
  O  O198  1  0.13822869  0.75241227  0.51511514  1
  O  O199  1  0.13674938  0.74260870  1.00362130  1
  O  O200  1  0.62176347  0.23887072  0.48995311  1
  O  O201  1  0.62334159  0.23312202  0.97976610  1
  O  O202  1  0.59193880  0.75732121  0.46815006  1
  O  O203  1  0.62547757  0.74162833  0.99781440  1
  O  O204  1  0.48038812  0.24064625  0.13576486  1
  O  O205  1  0.50710896  0.24996387  0.63958062  1
  O  O206  1  0.47893572  0.76112252  0.11123483  1
  O  O207  1  0.49089628  0.74599007  0.62544007  1
  O  O208  1  1.01107040  0.24109101  0.13303245  1
  O  O209  1  1.01091782  0.23356796  0.64048778  1
  O  O210  1  0.97219132  0.75098621  0.11300366  1
  O  O211  1  0.98936709  0.73856911  0.64852361  1
  O  O212  1  0.00927325  0.24566426  0.36542678  1
  O  O213  1  0.01264536  0.25212587  0.85799437  1
  O  O214  1  -0.05839940  0.75452907  0.41944816  1
  O  O215  1  0.02077529  0.76115292  0.87458649  1
  O  O216  1  0.50080183  0.25328678  0.36425368  1
  O  O217  1  0.49542056  0.27521306  0.87236946  1
  O  O218  1  0.53874822  0.74956924  0.41512241  1
  O  O219  1  0.48821927  0.74577236  0.86099991  1
  O  O220  1  0.24212996  0.13234338  0.48693749  1
  O  O221  1  0.24399811  0.11774207  0.98832198  1
  O  O222  1  0.25479469  0.63910650  0.50819009  1
  O  O223  1  0.23900559  0.63342120  1.00051812  1
  O  O224  1  0.72877575  0.11787234  0.48798019  1
  O  O225  1  0.74011750  0.11976372  0.99090634  1
  O  O226  1  0.76646257  0.58376998  0.47262564  1
  O  O227  1  0.72723445  0.64651982  1.00237419  1
  O  O228  1  0.24432644  0.37936952  0.01577055  1
  O  O229  1  0.24142812  0.36136089  0.51328521  1
  O  O230  1  0.24293130  0.86050744  0.00823460  1
  O  O231  1  0.26140251  0.86650634  0.51229369  1
  O  O232  1  0.72638027  0.35667489  -0.03684697  1
  O  O233  1  0.74482678  0.36009514  0.49566916  1
  O  O234  1  0.73853387  0.86920378  0.01792229  1
  O  O235  1  0.74936151  0.88276261  0.50245376  1
  O  O236  1  0.13894868  0.51742273  0.25465695  1
  O  O237  1  0.12144987  0.49488179  0.74572363  1
  O  O238  1  0.13099592  1.00590948  0.23343708  1
  O  O239  1  0.14382013  1.00826446  0.73274893  1
  O  O240  1  0.62772136  0.49150929  0.23548617  1
  O  O241  1  0.62621987  0.50911782  0.73201907  1
  O  O242  1  0.63023235  1.01554824  0.23430740  1
  O  O243  1  0.62863860  1.00518453  0.73895465  1
  O  O244  1  0.35998346  0.01291483  0.24109895  1
  O  O245  1  0.36698327  -0.00011680  0.75515697  1
  O  O246  1  0.36788186  0.51289582  0.24694328  1
  O  O247  1  0.37737805  0.51028880  0.75157451  1
  O  O248  1  0.86873116  0.01799720  0.24010586  1
  O  O249  1  0.86893251  0.00474163  0.76590583  1
  O  O250  1  0.84892550  0.50126200  0.23459343  1
  O  O251  1  0.81452274  0.43417359  0.75315444  1
  O  O252  1  0.12577038  0.35850805  0.37986634  1
  O  O253  1  0.12842895  0.37674860  0.85498557  1
  O  O254  1  0.13095583  0.85999193  0.35031424  1
  O  O255  1  0.11612919  0.91166683  0.85994171  1
  O  O256  1  0.61020839  0.36040170  0.35770317  1
  O  O257  1  0.60647562  0.40070173  0.86818251  1
  O  O258  1  0.62061017  0.88482960  0.35421773  1
  O  O259  1  0.58867615  0.88007736  0.91398472  1
  O  O260  1  0.37157367  0.13631807  0.13050062  1
  O  O261  1  0.37305728  0.11896066  0.61984411  1
  O  O262  1  0.37632417  0.63562267  0.12920008  1
  O  O263  1  0.38561820  0.64053933  0.61804293  1
  O  O264  1  0.87895547  0.12792290  0.12778311  1
  O  O265  1  0.88952952  0.10808855  0.63721834  1
  O  O266  1  0.85459074  0.62935290  0.12703910  1
  O  O267  1  0.88425217  0.64630580  0.58467434  1
  O  O268  1  0.25873029  0.26090113  0.13294677  1
  O  O269  1  0.25122000  0.24464332  0.60945159  1
  O  O270  1  0.25395585  0.75661851  0.11338466  1
  O  O271  1  0.26006390  0.75269001  0.62404317  1
  O  O272  1  0.75111242  0.25739346  0.12116462  1
  O  O273  1  0.73357120  0.23931009  0.60700015  1
  O  O274  1  0.74863293  0.75833700  0.12076578  1
  O  O275  1  0.74234235  0.77611486  0.62804981  1
  O  O276  1  0.23623617  0.24469960  0.37830867  1
  O  O277  1  0.25867483  0.23649593  0.86761475  1
  O  O278  1  0.24530122  0.74785960  0.39264740  1
  O  O279  1  0.25674001  0.73774394  0.88512705  1
  O  O280  1  0.73237251  0.23538022  0.38332895  1
  O  O281  1  0.75817242  0.23058188  0.87275659  1
  O  O282  1  0.75477206  0.72593512  0.38982211  1
  O  O283  1  0.74664835  0.76989281  0.89270123  1
  O  O284  1  0.00900595  0.12110074  0.00918568  1
  O  O285  1  0.01119296  0.13423626  0.51305613  1
  O  O286  1  0.01368446  0.62554861  -0.01538676  1
  O  O287  1  -0.05162413  0.61252648  0.54279810  1
  O  O288  1  0.50601080  0.12979686  0.00309799  1
  O  O289  1  0.50133173  0.11108673  0.49786551  1
  O  O290  1  0.51031091  0.61987514  -0.01092613  1
  O  O291  1  0.50059612  0.61542977  0.50668087  1
  O  O292  1  0.50025433  0.36756757  0.48260113  1
  O  O293  1  0.49928707  0.40169994  0.97973809  1
  O  O294  1  0.48486693  0.88722291  0.50013930  1
  O  O295  1  0.53457371  0.88159259  0.97384496  1
  O  O296  1  1.00284401  0.37128128  0.51557778  1
  O  O297  1  1.02296948  0.37014745  0.97773499  1
  O  O298  1  0.98309812  0.85185539  0.50475162  1
  O  O299  1  1.00315252  0.88573841  1.00136952  1
  O  O300  1  0.50712510  0.48714061  0.38632636  1
  O  O301  1  0.48521320  0.50583679  0.87341958  1
  O  O302  1  0.49441015  0.99983597  0.38054772  1
  O  O303  1  0.48201993  1.00795200  0.87217644  1
  O  O304  1  1.06727699  0.52542987  0.41488014  1
  O  O305  1  0.99369700  0.47455631  0.84917734  1
  O  O306  1  1.01852491  0.99348941  0.38405418  1
  O  O307  1  0.98602524  1.01323294  0.89083354  1
  O  O308  1  0.01518533  -0.00343802  0.11478273  1
  O  O309  1  0.01471820  0.00321381  0.63738226  1
  O  O310  1  -0.00642538  0.47361182  0.11407540  1
  O  O311  1  -0.06837899  0.53769374  0.67488910  1
  O  O312  1  0.48431715  0.01835666  0.11972794  1
  O  O313  1  0.50821510  -0.00136192  0.62499264  1
  O  O314  1  0.50919712  0.49525810  0.11078896  1
  O  O315  1  0.50996857  0.51638144  0.62464703  1
  O  O316  1  0.25386855  0.39510051  0.24398620  1
  O  O317  1  0.24495035  0.37967706  0.74083384  1
  O  O318  1  0.23563559  0.86271214  0.23524138  1
  O  O319  1  0.25612235  0.88643696  0.73817639  1
  O  O320  1  0.73689608  0.38288102  0.24068227  1
  O  O321  1  0.77041114  0.37593694  0.74526454  1
  O  O322  1  0.73002401  0.89427824  0.24389865  1
  O  O323  1  0.75246263  0.88948716  0.74995455  1
  O  O324  1  0.25033633  0.13091443  0.26161401  1
  O  O325  1  0.25592559  0.11454295  0.76135176  1
  O  O326  1  0.26341857  0.61112794  0.24604926  1
  O  O327  1  0.23902960  0.63076031  0.75937742  1
  O  O328  1  0.75377279  0.11882190  0.24765019  1
  O  O329  1  0.75335911  0.11316930  0.75856406  1
  O  O330  1  0.74575349  0.60627266  0.25968609  1
  O  O331  1  0.76328126  0.61750694  0.73649189  1
  O  O332  1  0.35774361  0.12706036  0.36587812  1
  O  O333  1  0.36102415  0.11635551  0.88414297  1
  O  O334  1  0.38159704  0.63906433  0.35912617  1
  O  O335  1  0.35903272  0.61614834  0.87459977  1
  O  O336  1  0.85876203  0.13585234  0.35123338  1
  O  O337  1  0.86324678  0.11530498  0.86858723  1
  O  O338  1  0.86420812  0.61415614  0.34949857  1
  O  O339  1  0.87901979  0.67449617  0.85140866  1
  O  O340  1  0.13979961  0.37152240  0.13636706  1
  O  O341  1  0.14131207  0.37073774  0.64052905  1
  O  O342  1  0.13270354  0.87756173  0.13250768  1
  O  O343  1  0.13324798  0.89048098  0.61659990  1
  O  O344  1  0.61497540  0.37686942  0.13062086  1
  O  O345  1  0.61961204  0.38032136  0.63705997  1
  O  O346  1  0.63644605  0.86773819  0.13994384  1
  O  O347  1  0.63233614  0.89293413  0.61570460  1
  O  O348  1  0.11195071  0.24110221  0.26130044  1
  O  O349  1  0.13053761  0.23443473  0.75094993  1
  O  O350  1  0.12134104  0.72947971  0.24906477  1
  O  O351  1  0.12095488  0.76029426  0.74189136  1
  O  O352  1  0.61080120  0.25167100  0.25156326  1
  O  O353  1  0.61134176  0.25153839  0.76629773  1
  O  O354  1  0.62152852  0.75460499  0.25657718  1
  O  O355  1  0.61411858  0.75104516  0.75655930  1
  O  O356  1  0.37659854  0.23979884  0.24756122  1
  O  O357  1  0.39086331  0.25389525  0.75471357  1
  O  O358  1  0.36831839  0.73666435  0.23333091  1
  O  O359  1  0.37874401  0.75271529  0.73575038  1
  O  O360  1  0.89035311  0.24409765  0.23921355  1
  O  O361  1  0.87079164  0.23314295  0.74731562  1
  O  O362  1  0.86459968  0.72522115  0.23791242  1
  O  O363  1  0.88938388  0.72799894  0.78566368  1
  O  O364  1  0.40256710  0.49245494  0.51250177  1
  O  O365  1  0.38822304  0.51313314  0.99977425  1
  O  O366  1  0.38105976  0.98705754  0.49639961  1
  O  O367  1  0.37840468  0.99536859  0.99019953  1
  O  O368  1  0.90923233  0.45775270  0.40776504  1
  O  O369  1  0.91871020  0.45389390  1.10464484  1
  O  O370  1  0.87586444  1.04095409  0.47854210  1
  O  O371  1  0.88673743  1.00261208  0.99455353  1
  O  O372  1  0.11366912  0.00530892  0.00644419  1
  O  O373  1  0.13413245  0.00837365  0.51331472  1
  O  O374  1  0.12452327  0.50893499  -0.00120232  1
  O  O375  1  0.11607388  0.51717045  0.47482504  1
  O  O376  1  0.61675861  0.02294681  -0.00344298  1
  O  O377  1  0.60638149  0.00349958  0.50133150  1
  O  O378  1  0.61638601  0.52035977  0.00571748  1
  O  O379  1  0.60603277  0.48862094  0.51980294  1
  O  O380  1  0.36599018  0.36358719  0.12824934  1
  O  O381  1  0.35784823  0.37403480  0.63191070  1
  O  O382  1  0.35723702  0.86688853  0.13158602  1
  O  O383  1  0.36758468  0.86408064  0.61793004  1
  O  O384  1  0.90090223  0.37399953  0.10701327  1
  O  O385  1  0.97554327  0.42957199  0.55175955  1
  O  O386  1  0.85354696  0.85576136  0.14550261  1
  O  O387  1  0.85437117  0.89604232  0.61900859  1
  O  O388  1  0.13198865  0.13238069  0.38051250  1
  O  O389  1  0.13817580  0.11204508  0.88742547  1
  O  O390  1  0.05535569  0.61040272  0.39393446  1
  O  O391  1  0.14406833  0.61822435  0.88834493  1
  O  O392  1  0.62227332  0.13277884  0.37679610  1
  O  O393  1  0.64112987  0.11895311  0.87714708  1
  O  O394  1  0.63895541  0.61328095  0.37717378  1
  O  O395  1  0.63057262  0.62221284  0.87782564  1
