# generated using pymatgen
data_V35Zn35O128
_symmetry_space_group_name_H-M   'P 1'
_cell_length_a   16.83428540
_cell_length_b   16.85901371
_cell_length_c   16.85099737
_cell_angle_alpha   89.86900247
_cell_angle_beta   89.93158669
_cell_angle_gamma   89.98615700
_symmetry_Int_Tables_number   1
_chemical_formula_structural   V35Zn35O128
_chemical_formula_sum   'V70 Zn70 O256'
_cell_volume   4782.45622355
_cell_formula_units_Z   2
loop_
 _symmetry_equiv_pos_site_id
 _symmetry_equiv_pos_as_xyz
  1  'x, y, z'
loop_
 _atom_site_type_symbol
 _atom_site_label
 _atom_site_symmetry_multiplicity
 _atom_site_fract_x
 _atom_site_fract_y
 _atom_site_fract_z
 _atom_site_occupancy
  V  V0  1  0.62090389  -0.00893328  0.61227222  1
  V  V1  1  0.74589026  0.49753078  0.73580183  1
  V  V2  1  0.87959947  0.12562963  0.72999721  1
  V  V3  1  0.25189598  0.62429650  0.36800666  1
  V  V4  1  -0.03528542  0.11659199  0.11793870  1
  V  V5  1  0.74038251  -0.00355625  0.75102056  1
  V  V6  1  0.12674125  0.60683519  0.00447083  1
  V  V7  1  0.50885840  0.15488603  0.59047919  1
  V  V8  1  0.47546648  -0.01355180  0.50095255  1
  V  V9  1  0.62632467  0.00566477  0.11363097  1
  V  V10  1  0.24628409  0.02011355  0.75550244  1
  V  V11  1  0.36695875  0.75935848  0.10992147  1
  V  V12  1  0.26033950  0.75454113  0.50718407  1
  V  V13  1  0.86847683  0.38450094  0.00087600  1
  V  V14  1  0.36461348  0.37670326  0.01181295  1
  V  V15  1  0.76330657  0.87086405  0.62484797  1
  V  V16  1  0.23396128  0.88487107  0.12924066  1
  V  V17  1  0.23733178  0.23599923  -0.00184446  1
  V  V18  1  0.38423183  0.23651436  0.13348751  1
  V  V19  1  0.51114002  0.87172082  0.86746830  1
  V  V20  1  -0.01081275  0.75079119  0.74245179  1
  V  V21  1  0.62215519  0.61733607  0.50709412  1
  V  V22  1  -0.01606875  0.62462976  0.63132533  1
  V  V23  1  0.48394985  0.23218465  0.75895897  1
  V  V24  1  0.11759525  0.01172199  0.13255089  1
  V  V25  1  0.75915414  0.74817463  0.50613436  1
  V  V26  1  0.74977974  0.24968172  0.01500224  1
  V  V27  1  0.87454470  0.00020985  0.36529258  1
  V  V28  1  0.49543224  0.62118057  0.12992367  1
  V  V29  1  0.24993125  0.24247580  0.49670126  1
  V  V30  1  0.76540614  0.62598272  0.86315022  1
  V  V31  1  0.25543330  0.50065509  0.76646522  1
  V  V32  1  0.51452933  0.37005550  0.36290255  1
  V  V33  1  0.36471634  0.00591374  0.87124792  1
  V  V34  1  -0.00669353  0.87228330  0.88614583  1
  V  V35  1  0.48682384  0.86821055  0.38157382  1
  V  V36  1  0.62561993  0.63947136  -0.01372999  1
  V  V37  1  -0.01406639  -0.00669831  0.50626796  1
  V  V38  1  0.49804178  0.59569644  0.62666749  1
  V  V39  1  -0.00538756  0.61440231  0.13101418  1
  V  V40  1  -0.00300522  0.86731504  0.36308306  1
  V  V41  1  0.12411494  0.75234915  0.36292283  1
  V  V42  1  0.63116295  0.24490139  0.87363937  1
  V  V43  1  0.74200342  0.35140115  0.62508788  1
  V  V44  1  0.87961914  0.35374028  0.50764316  1
  V  V45  1  0.49108045  0.75061739  0.24843105  1
  V  V46  1  0.63206255  0.74858708  0.37171735  1
  V  V47  1  0.64104206  0.49720345  0.13295068  1
  V  V48  1  0.49991581  0.49673463  -0.00667550  1
  V  V49  1  0.12351885  0.00568942  0.61707445  1
  V  V50  1  0.38675418  0.50776218  0.37362760  1
  V  V51  1  0.26184382  0.86985606  0.62901073  1
  V  V52  1  -0.00695819  0.40589463  0.87278117  1
  V  V53  1  0.38150885  0.37841534  0.50213486  1
  V  V54  1  0.48160189  0.00451684  0.00246437  1
  V  V55  1  0.74682923  0.86320396  0.11254474  1
  V  V56  1  0.01197123  0.23200142  0.24161964  1
  V  V57  1  0.49900660  0.37319787  0.87053672  1
  V  V58  1  0.87946261  0.75175756  0.09661488  1
  V  V59  1  0.12931540  0.62598189  0.51751680  1
  V  V60  1  0.37929599  0.63085365  0.76223943  1
  V  V61  1  0.87749906  -0.00327222  0.87960813  1
  V  V62  1  0.24348110  0.38730548  0.61997858  1
  V  V63  1  0.13932526  0.74867505  0.88808067  1
  V  V64  1  0.73611011  -0.01934487  0.25731875  1
  V  V65  1  -0.00002434  0.49915571  0.49899294  1
  V  V66  1  0.86664139  0.50953835  0.37120123  1
  V  V67  1  0.12859683  0.86962803  0.75118479  1
  V  V68  1  0.73242086  0.14389195  0.37075699  1
  V  V69  1  0.24218481  0.49228067  0.24100911  1
  Zn  Zn70  1  0.11700186  0.38436786  0.74993207  1
  Zn  Zn71  1  0.13294766  0.26696163  0.36466632  1
  Zn  Zn72  1  0.10941607  0.11824323  -0.01022582  1
  Zn  Zn73  1  0.74775416  0.12300995  0.87667303  1
  Zn  Zn74  1  0.00177798  0.25234259  0.74816552  1
  Zn  Zn75  1  0.31693588  0.16385090  0.31363415  1
  Zn  Zn76  1  0.18962162  0.19578988  0.17789043  1
  Zn  Zn77  1  0.16332132  0.20914913  0.66345368  1
  Zn  Zn78  1  0.18800764  0.67916193  0.17850220  1
  Zn  Zn79  1  0.19498261  0.68713952  0.69926635  1
  Zn  Zn80  1  0.73322703  0.15970721  0.18080389  1
  Zn  Zn81  1  0.67294417  0.17938312  0.69483254  1
  Zn  Zn82  1  0.68410611  0.68545906  0.17985426  1
  Zn  Zn83  1  0.68600033  0.68334977  0.68663231  1
  Zn  Zn84  1  0.31566085  0.32666042  0.31220817  1
  Zn  Zn85  1  0.30951457  0.31710854  0.81890245  1
  Zn  Zn86  1  0.30727918  0.81140334  0.30628645  1
  Zn  Zn87  1  0.32714216  0.81447387  0.82040109  1
  Zn  Zn88  1  0.84945125  0.31284141  0.33041221  1
  Zn  Zn89  1  0.81812304  0.31579349  0.80565760  1
  Zn  Zn90  1  0.81336674  0.81102738  0.31519151  1
  Zn  Zn91  1  0.80415985  0.81017649  0.81557130  1
  Zn  Zn92  1  0.18392486  0.43958697  0.43437602  1
  Zn  Zn93  1  0.18045601  0.42706923  0.93606437  1
  Zn  Zn94  1  0.18065433  0.92642535  0.44074260  1
  Zn  Zn95  1  0.18513559  0.93495985  0.95153332  1
  Zn  Zn96  1  0.69706498  0.43088006  0.44780930  1
  Zn  Zn97  1  0.68713375  0.44013999  0.93391198  1
  Zn  Zn98  1  0.68562805  0.92295909  0.43824137  1
  Zn  Zn99  1  0.68614237  0.92748967  0.93697873  1
  Zn  Zn100  1  0.30200103  0.06503878  0.06713802  1
  Zn  Zn101  1  0.31926661  0.06986524  0.57494334  1
  Zn  Zn102  1  0.31327935  0.56793577  0.05673051  1
  Zn  Zn103  1  0.32061295  0.56452255  0.56290589  1
  Zn  Zn104  1  0.79472934  0.05221772  0.05251984  1
  Zn  Zn105  1  0.80357459  0.06511143  0.55102602  1
  Zn  Zn106  1  0.81276045  0.57066847  0.04967145  1
  Zn  Zn107  1  0.81161085  0.56299422  0.56295379  1
  Zn  Zn108  1  0.43137586  0.43960487  0.19235467  1
  Zn  Zn109  1  0.42863846  0.43491435  0.69233482  1
  Zn  Zn110  1  0.45150789  0.92752914  0.18516483  1
  Zn  Zn111  1  0.43523024  0.94372287  0.69404213  1
  Zn  Zn112  1  0.92797006  0.42741316  0.18586538  1
  Zn  Zn113  1  0.92542936  0.43982427  0.68969722  1
  Zn  Zn114  1  0.93634748  0.93065509  0.18210346  1
  Zn  Zn115  1  0.93655286  0.93907243  0.69355099  1
  Zn  Zn116  1  0.05272716  0.07127742  0.31240439  1
  Zn  Zn117  1  0.05643318  0.06047070  0.80553221  1
  Zn  Zn118  1  0.05940371  0.56717635  0.31179873  1
  Zn  Zn119  1  0.07282263  0.56787524  0.80969333  1
  Zn  Zn120  1  0.56318755  0.05619704  0.32764914  1
  Zn  Zn121  1  0.56187875  0.05993452  0.82182136  1
  Zn  Zn122  1  0.57554362  0.56467554  0.31414441  1
  Zn  Zn123  1  0.56885078  0.55665158  0.80525245  1
  Zn  Zn124  1  0.45405728  0.19980183  0.43010405  1
  Zn  Zn125  1  0.43466303  0.18649138  0.94675171  1
  Zn  Zn126  1  0.44150193  0.68423931  0.44329030  1
  Zn  Zn127  1  0.44222977  0.68982807  0.93674989  1
  Zn  Zn128  1  0.95750152  0.17449531  0.43270158  1
  Zn  Zn129  1  0.92337805  0.18466647  0.93393170  1
  Zn  Zn130  1  0.94059364  0.68418520  0.43625778  1
  Zn  Zn131  1  0.94781838  0.67937779  0.93486926  1
  Zn  Zn132  1  0.03663377  0.29539211  0.04481329  1
  Zn  Zn133  1  0.07167464  0.31569852  0.55492790  1
  Zn  Zn134  1  0.06138775  0.81199121  0.06919484  1
  Zn  Zn135  1  0.06528752  0.81525810  0.55945774  1
  Zn  Zn136  1  0.56834235  0.31030560  0.06856576  1
  Zn  Zn137  1  0.55129572  0.32796385  0.56857685  1
  Zn  Zn138  1  0.56021330  0.82246036  0.05813348  1
  Zn  Zn139  1  0.57214322  0.81429645  0.56060595  1
  O  O140  1  0.11736120  0.11582243  0.12117724  1
  O  O141  1  0.12954028  0.10289696  0.63183058  1
  O  O142  1  0.11010109  0.62715855  0.11535879  1
  O  O143  1  0.12665173  0.63251151  0.61870234  1
  O  O144  1  0.63742451  0.10210792  0.14106858  1
  O  O145  1  0.60136299  0.10876691  0.62977292  1
  O  O146  1  0.61449221  0.62125959  0.11178141  1
  O  O147  1  0.60845215  0.62719190  0.61955292  1
  O  O148  1  0.38737223  0.39245677  0.37868547  1
  O  O149  1  0.39207081  0.36943477  0.89791437  1
  O  O150  1  0.38705229  0.86511529  0.37220236  1
  O  O151  1  0.38207804  0.89667017  0.87492889  1
  O  O152  1  0.88076910  0.39185680  0.40666878  1
  O  O153  1  0.88785643  0.37040401  0.87796048  1
  O  O154  1  0.89075665  0.87111608  0.37581323  1
  O  O155  1  0.88428001  0.88102294  0.86521235  1
  O  O156  1  0.23287066  0.01458001  0.37574079  1
  O  O157  1  0.25190862  -0.00531715  0.86540261  1
  O  O158  1  0.25126877  0.51636994  0.37266640  1
  O  O159  1  0.25607421  0.48559741  0.86529027  1
  O  O160  1  0.76047672  -0.02145895  0.36843908  1
  O  O161  1  0.75669534  -0.00904804  0.86178881  1
  O  O162  1  0.76632414  0.49987675  0.38528421  1
  O  O163  1  0.73726094  0.51706025  0.86469192  1
  O  O164  1  0.26217457  0.51481032  0.14450786  1
  O  O165  1  0.25778471  0.49060984  0.62451136  1
  O  O166  1  0.23241098  0.99603066  0.12960818  1
  O  O167  1  0.24520331  0.99245775  0.63768667  1
  O  O168  1  0.73936903  0.51082476  0.11532380  1
  O  O169  1  0.74991180  0.49560026  0.63002047  1
  O  O170  1  0.74526908  0.98692777  0.13987901  1
  O  O171  1  0.74087827  0.99334914  0.62986986  1
  O  O172  1  0.07056551  0.40219851  0.18468617  1
  O  O173  1  -0.00692765  0.37765938  0.76241174  1
  O  O174  1  0.00093967  0.87360945  0.26343460  1
  O  O175  1  0.01072348  0.86538663  0.75065565  1
  O  O176  1  0.50703898  0.39936020  0.26552768  1
  O  O177  1  0.48841420  0.36978329  0.76846953  1
  O  O178  1  0.50436773  0.85818058  0.26292160  1
  O  O179  1  0.50111785  0.89342536  0.76696532  1
  O  O180  1  0.45248853  0.07958438  0.26650389  1
  O  O181  1  0.49278391  0.13183905  0.76191199  1
  O  O182  1  0.50732764  0.63565648  0.23639245  1
  O  O183  1  0.49200577  0.61299648  0.73655409  1
  O  O184  1  0.98263048  0.12777142  0.23029760  1
  O  O185  1  0.98088257  0.10780635  0.73388590  1
  O  O186  1  1.00215312  0.62821760  0.23217908  1
  O  O187  1  1.00682320  0.63913293  0.73997635  1
  O  O188  1  0.36824714  0.26064783  0.00979904  1
  O  O189  1  0.36434439  0.27268181  0.48474286  1
  O  O190  1  0.37592478  0.74897130  0.01122737  1
  O  O191  1  0.35864830  0.74597478  0.49855624  1
  O  O192  1  0.85600346  0.25877462  -0.01138634  1
  O  O193  1  0.90374787  0.25694158  0.49072465  1
  O  O194  1  0.87799800  0.75586233  -0.00223548  1
  O  O195  1  0.85788011  0.74067161  0.49529740  1
  O  O196  1  0.14353509  0.25301346  0.48857524  1
  O  O197  1  0.13362793  0.24535187  1.01255416  1
  O  O198  1  0.13429756  0.74084738  0.49524958  1
  O  O199  1  0.12480997  0.75949228  0.98818416  1
  O  O200  1  0.52996505  0.22480265  0.51515255  1
  O  O201  1  0.63924613  0.25737184  0.99082127  1
  O  O202  1  0.63245561  0.74230503  0.49490345  1
  O  O203  1  0.61503920  0.73759951  1.00376397  1
  O  O204  1  0.48535820  0.25029087  0.11934530  1
  O  O205  1  0.50954280  0.25012536  0.65447262  1
  O  O206  1  0.49800031  0.74880824  0.13523850  1
  O  O207  1  0.53431908  0.76387918  0.66924263  1
  O  O208  1  0.99460011  0.23061696  0.13284273  1
  O  O209  1  1.04708057  0.24383298  0.63945006  1
  O  O210  1  0.98051621  0.75345374  0.12464879  1
  O  O211  1  1.00675388  0.74570600  0.63548853  1
  O  O212  1  0.03924265  0.18733530  0.35084727  1
  O  O213  1  0.02003191  0.20783792  0.86794398  1
  O  O214  1  0.01316330  0.75599678  0.38059316  1
  O  O215  1  0.00543508  0.76040904  0.86299329  1
  O  O216  1  0.50321124  0.27118708  0.35480889  1
  O  O217  1  0.50464374  0.25537473  0.87629782  1
  O  O218  1  0.50313073  0.74992582  0.36705314  1
  O  O219  1  0.48830171  0.77318082  0.87671871  1
  O  O220  1  0.26330885  0.14324676  0.50815480  1
  O  O221  1  0.24128310  0.13234533  0.99214491  1
  O  O222  1  0.24232402  0.63489878  0.50127021  1
  O  O223  1  0.22831291  0.62574514  1.00904099  1
  O  O224  1  0.74945771  0.11835781  0.46801761  1
  O  O225  1  0.75403413  0.14323104  0.99323970  1
  O  O226  1  0.73553846  0.64070629  0.51952610  1
  O  O227  1  0.73259000  0.62454102  0.97907804  1
  O  O228  1  0.26397165  0.38531189  0.00573910  1
  O  O229  1  0.25759756  0.37911632  0.50574637  1
  O  O230  1  0.25219344  0.87785854  0.02641370  1
  O  O231  1  0.24693351  0.86387968  0.51381630  1
  O  O232  1  0.75702289  0.36408513  -0.00972423  1
  O  O233  1  0.76886408  0.36266473  0.51087404  1
  O  O234  1  0.75592825  0.87945400  0.01394240  1
  O  O235  1  0.74837902  0.86164215  0.51422749  1
  O  O236  1  0.14329283  0.51645729  0.25477613  1
  O  O237  1  0.14678415  0.50117135  0.75173469  1
  O  O238  1  0.10578188  1.00481600  0.23375391  1
  O  O239  1  0.13310444  0.99002288  0.74819995  1
  O  O240  1  0.63479364  0.51699751  0.23360099  1
  O  O241  1  0.64002225  0.49094582  0.74961580  1
  O  O242  1  0.63329838  0.98900412  0.25493205  1
  O  O243  1  0.63665462  1.00582430  0.74477401  1
  O  O244  1  0.40634478  0.02229264  0.24416259  1
  O  O245  1  0.35740820  0.00686261  0.75794005  1
  O  O246  1  0.36197734  0.50211667  0.26890230  1
  O  O247  1  0.36473753  0.51029722  0.74795191  1
  O  O248  1  0.86783755  -0.01349590  0.26254103  1
  O  O249  1  0.86209396  0.00527555  0.75252170  1
  O  O250  1  0.88615394  0.47819002  0.27533527  1
  O  O251  1  0.85047560  0.49695684  0.75338244  1
  O  O252  1  0.10911339  0.37608995  0.38474390  1
  O  O253  1  0.09749405  0.37895582  0.87479075  1
  O  O254  1  0.12231626  0.85947966  0.37118164  1
  O  O255  1  0.11431819  0.87000993  0.86961247  1
  O  O256  1  0.61209281  0.38566500  0.38948776  1
  O  O257  1  0.60692484  0.36438929  0.88327641  1
  O  O258  1  0.61083453  0.85373660  0.38282302  1
  O  O259  1  0.61457128  0.87588111  0.87191564  1
  O  O260  1  0.37391312  0.13577264  0.12202704  1
  O  O261  1  0.41322795  0.12722144  0.61366360  1
  O  O262  1  0.39155325  0.63902132  0.12007116  1
  O  O263  1  0.39525297  0.62406197  0.62582881  1
  O  O264  1  0.86395307  0.11401925  0.12439570  1
  O  O265  1  0.86125767  0.12088234  0.63097118  1
  O  O266  1  0.88141590  0.64137870  0.11044790  1
  O  O267  1  0.88610152  0.63383765  0.62426764  1
  O  O268  1  0.26259904  0.25011195  0.10711725  1
  O  O269  1  0.24899643  0.26818436  0.60685638  1
  O  O270  1  0.26331340  0.75472511  0.13097412  1
  O  O271  1  0.24717262  0.75913420  0.61873165  1
  O  O272  1  0.74597303  0.24945519  0.11672377  1
  O  O273  1  0.74008749  0.25127899  0.63401994  1
  O  O274  1  0.75500207  0.75673855  0.11901305  1
  O  O275  1  0.74621717  0.76261404  0.62280365  1
  O  O276  1  0.25310976  0.25104634  0.37963411  1
  O  O277  1  0.24865257  0.26825326  0.90092224  1
  O  O278  1  0.24367365  0.74575712  0.38650688  1
  O  O279  1  0.23748353  0.75989340  0.87371865  1
  O  O280  1  0.76834728  0.23779597  0.35165769  1
  O  O281  1  0.73532261  0.25307970  0.86547692  1
  O  O282  1  0.73891022  0.75728501  0.39038595  1
  O  O283  1  0.73970518  0.72732453  0.85393032  1
  O  O284  1  -0.01146462  0.13257695  0.01621019  1
  O  O285  1  0.00706326  0.09122153  0.49470810  1
  O  O286  1  0.01440447  0.63165375  0.01159771  1
  O  O287  1  0.01129335  0.62714003  0.51578647  1
  O  O288  1  0.50187000  0.10408112  -0.00178821  1
  O  O289  1  0.50650881  0.08570285  0.49728523  1
  O  O290  1  0.50332622  0.61572668  0.00827148  1
  O  O291  1  0.50946354  0.63005200  0.51668408  1
  O  O292  1  0.48610257  0.38098507  0.48826832  1
  O  O293  1  0.49776407  0.38872884  1.00136863  1
  O  O294  1  0.49445124  0.86908206  0.49270310  1
  O  O295  1  0.50914805  0.89643401  0.98813405  1
  O  O296  1  0.99428388  0.39485472  0.51840737  1
  O  O297  1  0.98460363  0.37281487  0.98200201  1
  O  O298  1  1.01468656  0.88704586  0.48385055  1
  O  O299  1  0.99877760  0.87098707  0.98392225  1
  O  O300  1  0.48748968  0.51693513  0.37391203  1
  O  O301  1  0.50514876  0.48850692  0.88678662  1
  O  O302  1  0.50608843  0.97564561  0.38973107  1
  O  O303  1  0.48773645  0.99708645  0.88529770  1
  O  O304  1  1.00185857  0.50949170  0.39580361  1
  O  O305  1  0.99389322  0.50594518  0.86894509  1
  O  O306  1  0.99032147  0.98720302  0.37748206  1
  O  O307  1  0.98827441  0.98413449  0.86615447  1
  O  O308  1  -0.00391754  0.01112979  0.12323971  1
  O  O309  1  0.01105593  -0.01588613  0.61449949  1
  O  O310  1  -0.02024430  0.51587841  0.12469282  1
  O  O311  1  -0.00489459  0.51904901  0.62246022  1
  O  O312  1  0.51667997  -0.00956322  0.11266456  1
  O  O313  1  0.50883725  -0.02173587  0.60945908  1
  O  O314  1  0.50063251  0.51447020  0.12342286  1
  O  O315  1  0.50103917  0.49641796  0.62239960  1
  O  O316  1  0.24477459  0.39165101  0.25124456  1
  O  O317  1  0.26131267  0.38611111  0.73548487  1
  O  O318  1  0.25838696  0.87610514  0.23118176  1
  O  O319  1  0.24343736  0.87238259  0.74155706  1
  O  O320  1  0.74804606  0.37640537  0.25420806  1
  O  O321  1  0.75382522  0.37779458  0.73094550  1
  O  O322  1  0.74998141  0.87680621  0.24348830  1
  O  O323  1  0.75259099  0.88609545  0.73829797  1
  O  O324  1  0.23203906  0.12311836  0.25547482  1
  O  O325  1  0.23660035  0.11607288  0.75028479  1
  O  O326  1  0.25398444  0.63184088  0.26771686  1
  O  O327  1  0.26405566  0.61219173  0.74930075  1
  O  O328  1  0.75456778  0.09524515  0.27029646  1
  O  O329  1  0.75446545  0.11008375  0.75117156  1
  O  O330  1  0.78250454  0.65776604  0.25075106  1
  O  O331  1  0.74665497  0.61368864  0.75119651  1
  O  O332  1  0.40023023  0.12064409  0.37323530  1
  O  O333  1  0.37415760  0.10595884  0.88520755  1
  O  O334  1  0.36112452  0.61965575  0.38788309  1
  O  O335  1  0.38924741  0.62114417  0.86191828  1
  O  O336  1  0.87737535  0.10064851  0.37484639  1
  O  O337  1  0.87086488  0.10602241  0.86234789  1
  O  O338  1  0.88385459  0.61073816  0.37329150  1
  O  O339  1  0.86487964  0.62740429  0.87630127  1
  O  O340  1  0.10517088  0.38768429  0.12090588  1
  O  O341  1  0.14106828  0.38698692  0.62252534  1
  O  O342  1  0.12729561  0.88407464  0.12886018  1
  O  O343  1  0.13488493  0.88111244  0.63540501  1
  O  O344  1  0.62094197  0.39774173  0.12215982  1
  O  O345  1  0.64459677  0.37476045  0.60518983  1
  O  O346  1  0.63906551  0.88245925  0.12343900  1
  O  O347  1  0.63653594  0.88749181  0.62659185  1
  O  O348  1  0.11173582  0.26115031  0.23881713  1
  O  O349  1  0.12159777  0.26735573  0.75125852  1
  O  O350  1  0.13140434  0.73998397  0.26521274  1
  O  O351  1  0.12175540  0.75608481  0.76165571  1
  O  O352  1  0.68684866  0.33652360  0.24885300  1
  O  O353  1  0.60871904  0.24763062  0.76866347  1
  O  O354  1  0.62229282  0.73826480  0.26651929  1
  O  O355  1  0.58886971  0.75689494  0.72181740  1
  O  O356  1  0.36370671  0.25073327  0.23668889  1
  O  O357  1  0.38461739  0.24834087  0.76501762  1
  O  O358  1  0.38924389  0.74528115  0.24601391  1
  O  O359  1  0.36730757  0.73162105  0.75059875  1
  O  O360  1  0.94362004  0.30662422  0.26519184  1
  O  O361  1  0.88280411  0.22906870  0.75714041  1
  O  O362  1  0.83786965  0.71209756  0.25047210  1
  O  O363  1  0.89123592  0.75757972  0.75000602  1
  O  O364  1  0.36640263  0.49169433  0.48336306  1
  O  O365  1  0.38993521  0.49316334  1.00826987  1
  O  O366  1  0.37650104  0.99126509  0.50688363  1
  O  O367  1  0.37719855  0.99994417  0.99908544  1
  O  O368  1  0.89108558  0.50931632  0.49789335  1
  O  O369  1  0.86207218  0.48463989  0.99221164  1
  O  O370  1  0.88141843  0.99121695  0.49237000  1
  O  O371  1  0.86513907  0.99829205  0.97840849  1
  O  O372  1  0.11968712  0.00407269  0.01367500  1
  O  O373  1  0.13162577  -0.00345777  0.51574223  1
  O  O374  1  0.12247752  0.50752972  -0.00337793  1
  O  O375  1  0.11677860  0.51962614  0.50155344  1
  O  O376  1  0.64195554  0.00706782  0.01310063  1
  O  O377  1  0.63237715  -0.00411224  0.51202691  1
  O  O378  1  0.61095616  0.50934987  0.00824077  1
  O  O379  1  0.63410343  0.52001788  0.49671828  1
  O  O380  1  0.38156423  0.37029685  0.11544734  1
  O  O381  1  0.37331781  0.37899340  0.60696290  1
  O  O382  1  0.37946484  0.86152516  0.12667383  1
  O  O383  1  0.36030345  0.87806561  0.63405168  1
  O  O384  1  0.88278467  0.36903192  0.10178801  1
  O  O385  1  0.86965590  0.36952909  0.61430021  1
  O  O386  1  0.86196558  0.85834938  0.13220362  1
  O  O387  1  0.86261163  0.88056354  0.62466622  1
  O  O388  1  0.18942397  0.07422933  0.35814521  1
  O  O389  1  0.08260462  0.15023590  0.87484210  1
  O  O390  1  0.13612903  0.63587582  0.38687147  1
  O  O391  1  0.11919030  0.64138810  0.88893661  1
  O  O392  1  0.62979635  0.14083530  0.36015059  1
  O  O393  1  0.62661715  0.13832090  0.87898687  1
  O  O394  1  0.61721557  0.63886077  0.39321702  1
  O  O395  1  0.60463491  0.62902356  0.88704820  1
