# generated using pymatgen
data_V35Zn35O128
_symmetry_space_group_name_H-M   'P 1'
_cell_length_a   16.87745812
_cell_length_b   16.88050296
_cell_length_c   16.90565874
_cell_angle_alpha   89.62874263
_cell_angle_beta   90.07527599
_cell_angle_gamma   89.96705672
_symmetry_Int_Tables_number   1
_chemical_formula_structural   V35Zn35O128
_chemical_formula_sum   'V70 Zn70 O256'
_cell_volume   4816.31577979
_cell_formula_units_Z   2
loop_
 _symmetry_equiv_pos_site_id
 _symmetry_equiv_pos_as_xyz
  1  'x, y, z'
loop_
 _atom_site_type_symbol
 _atom_site_label
 _atom_site_symmetry_multiplicity
 _atom_site_fract_x
 _atom_site_fract_y
 _atom_site_fract_z
 _atom_site_occupancy
  V  V0  1  0.38379418  0.37503894  0.49089632  1
  V  V1  1  0.76109081  0.87693134  0.62251984  1
  V  V2  1  0.61442027  0.74940671  0.38604347  1
  V  V3  1  0.61217196  0.37802724  0.26035214  1
  V  V4  1  0.38006344  0.25628138  0.10834204  1
  V  V5  1  0.49901962  0.73661365  0.76949940  1
  V  V6  1  0.75692434  0.75164558  -0.02932059  1
  V  V7  1  0.62269860  0.25631761  0.37910378  1
  V  V8  1  0.62430508  0.51690222  0.13328350  1
  V  V9  1  0.75925039  0.49686338  0.25495841  1
  V  V10  1  0.76948814  0.25923764  0.50424374  1
  V  V11  1  0.36274584  0.62013718  0.23811834  1
  V  V12  1  0.88620622  0.75343485  0.62710701  1
  V  V13  1  -0.00682951  0.63092768  0.11961484  1
  V  V14  1  0.49944267  0.75005877  0.22666248  1
  V  V15  1  0.23304369  0.24714944  0.49706324  1
  V  V16  1  0.13154723  0.36410022  0.25445007  1
  V  V17  1  0.24854028  0.37249611  0.10480487  1
  V  V18  1  0.72984460  0.23448248  0.01249009  1
  V  V19  1  0.17594469  0.88764644  0.72786833  1
  V  V20  1  0.36675328  0.50428336  0.36731596  1
  V  V21  1  0.11082337  0.24954031  0.87405085  1
  V  V22  1  0.63792701  0.49020582  0.64190472  1
  V  V23  1  0.13696556  0.12773599  0.00513000  1
  V  V24  1  0.01381282  0.85935290  0.36727575  1
  V  V25  1  0.36108930  0.88925211  -0.00352051  1
  V  V26  1  -0.00610425  0.88015436  0.86167099  1
  V  V27  1  0.85992591  0.11843374  0.25714418  1
  V  V28  1  -0.00266792  0.14675280  0.65407636  1
  V  V29  1  0.25661867  0.74383068  0.48593851  1
  V  V30  1  0.12127519  0.50096086  0.12061408  1
  V  V31  1  -0.01991474  0.47937955  -0.00554751  1
  V  V32  1  0.62987099  0.63070698  -0.01945555  1
  V  V33  1  0.02441297  -0.00007151  0.49328850  1
  V  V34  1  0.02893835  0.50330123  0.50428805  1
  V  V35  1  0.00338408  0.12219185  0.13571196  1
  V  V36  1  0.88571728  0.62996561  0.25230097  1
  V  V37  1  0.86864506  -0.00997869  0.37621865  1
  V  V38  1  0.35060750  0.73979848  0.10488271  1
  V  V39  1  0.25999853  0.12939652  0.85361398  1
  V  V40  1  0.49749446  0.62709158  0.62399214  1
  V  V41  1  0.86231610  0.01289451  0.86671224  1
  V  V42  1  0.63626924  -0.00336207  0.62906078  1
  V  V43  1  0.45927552  -0.04982343  0.54319343  1
  V  V44  1  0.37950256  0.25193722  0.62604707  1
  V  V45  1  0.64388635  0.11717651  0.48760040  1
  V  V46  1  0.51429840  0.50148436  0.49282660  1
  V  V47  1  -0.00564231  0.00712570  0.00348168  1
  V  V48  1  0.11300606  0.37153718  0.75196004  1
  V  V49  1  0.37995343  0.00134405  0.36121042  1
  V  V50  1  0.73466808  0.12706170  0.86834192  1
  V  V51  1  0.00510384  0.36391589  0.37649890  1
  V  V52  1  0.75337756  0.37816332  0.12265407  1
  V  V53  1  0.88075813  0.25475506  0.12833655  1
  V  V54  1  0.51073424  0.25992133  0.75416925  1
  V  V55  1  0.86248449  0.62171691  0.75887009  1
  V  V56  1  0.76152677  0.74685135  0.49467768  1
  V  V57  1  0.25242736  0.51091105  0.74823089  1
  V  V58  1  0.23723964  0.12936403  0.36797259  1
  V  V59  1  0.50823558  0.12983620  0.61453740  1
  V  V60  1  0.39414297  0.14917039  0.25226083  1
  V  V61  1  0.49913601  0.38600566  0.88134162  1
  V  V62  1  0.51246851  0.00734882  0.03059891  1
  V  V63  1  0.23568597  0.64571881  0.89491561  1
  V  V64  1  0.12378211  0.88150611  0.21453571  1
  V  V65  1  0.88057583  0.49614104  0.39286771  1
  V  V66  1  0.01193786  0.62690865  0.62716195  1
  V  V67  1  0.86674146  0.87578637  0.01757926  1
  V  V68  1  0.50144158  0.90030560  0.87481566  1
  V  V69  1  0.24472721  0.37461311  0.63107514  1
  Zn  Zn70  1  0.51515768  0.88530364  0.35809132  1
  Zn  Zn71  1  0.38071423  0.11495187  0.74390269  1
  Zn  Zn72  1  0.74435755  0.61735432  0.38424300  1
  Zn  Zn73  1  0.48764771  0.50632912  0.01846864  1
  Zn  Zn74  1  0.36666495  0.50254023  0.87302660  1
  Zn  Zn75  1  0.63646907  0.86621225  0.76473377  1
  Zn  Zn76  1  0.19165457  0.19267019  0.18729753  1
  Zn  Zn77  1  0.17659736  0.18615202  0.68240761  1
  Zn  Zn78  1  0.17840224  0.68643758  0.18621040  1
  Zn  Zn79  1  0.15081933  0.69166434  0.74235258  1
  Zn  Zn80  1  0.70878582  0.21120150  0.21978170  1
  Zn  Zn81  1  0.69661332  0.19218368  0.67790916  1
  Zn  Zn82  1  0.68913146  0.69129969  0.21348417  1
  Zn  Zn83  1  0.67832644  0.68509753  0.68398219  1
  Zn  Zn84  1  0.30804235  0.31422708  0.31353684  1
  Zn  Zn85  1  0.31610040  0.30457264  0.82316595  1
  Zn  Zn86  1  0.31136401  0.81313759  0.29421878  1
  Zn  Zn87  1  0.32161091  0.78867109  0.82956995  1
  Zn  Zn88  1  0.81890482  0.30991268  0.32240687  1
  Zn  Zn89  1  0.68325417  0.30367162  0.82242638  1
  Zn  Zn90  1  0.81469573  0.81403936  0.30609573  1
  Zn  Zn91  1  0.82861546  0.82215553  0.80553725  1
  Zn  Zn92  1  0.19152651  0.43340577  0.43588197  1
  Zn  Zn93  1  0.17549575  0.44435872  0.93210981  1
  Zn  Zn94  1  0.19148762  0.94069375  0.41054987  1
  Zn  Zn95  1  0.17988202  0.94858364  0.92248961  1
  Zn  Zn96  1  0.69829082  0.43018262  0.44635972  1
  Zn  Zn97  1  0.66777805  0.43163511  0.95319405  1
  Zn  Zn98  1  0.68919266  0.92822762  0.43517726  1
  Zn  Zn99  1  0.68331975  0.94322566  0.94802560  1
  Zn  Zn100  1  0.32079738  0.06000561  0.08165766  1
  Zn  Zn101  1  0.31278233  0.06781363  0.55413207  1
  Zn  Zn102  1  0.30245958  0.55804228  0.05601930  1
  Zn  Zn103  1  0.31832586  0.55503617  0.56890902  1
  Zn  Zn104  1  0.80957495  0.06263219  0.07385344  1
  Zn  Zn105  1  0.82733012  0.06666450  0.55680173  1
  Zn  Zn106  1  0.81495785  0.56827650  0.05903537  1
  Zn  Zn107  1  0.81378897  0.56797919  0.57284172  1
  Zn  Zn108  1  0.43355949  0.43300937  0.18522066  1
  Zn  Zn109  1  0.43918405  0.44154603  0.68363117  1
  Zn  Zn110  1  0.41217603  0.93199842  0.18340360  1
  Zn  Zn111  1  0.38652393  0.88155102  0.71377775  1
  Zn  Zn112  1  0.94430091  0.43708514  0.19417521  1
  Zn  Zn113  1  0.95186238  0.46794645  0.70548057  1
  Zn  Zn114  1  0.93982432  0.93430121  0.19319169  1
  Zn  Zn115  1  0.93714322  0.97782419  0.68151303  1
  Zn  Zn116  1  0.06600601  0.04647288  0.30557735  1
  Zn  Zn117  1  0.06883763  0.05331267  0.81172817  1
  Zn  Zn118  1  0.06956812  0.55440622  0.30574365  1
  Zn  Zn119  1  0.06139894  0.55509430  0.81709180  1
  Zn  Zn120  1  0.56411369  0.06743775  0.30611349  1
  Zn  Zn121  1  0.56424278  0.06766364  0.80414281  1
  Zn  Zn122  1  0.55466235  0.57192456  0.31251439  1
  Zn  Zn123  1  0.57150201  0.55902617  0.80359857  1
  Zn  Zn124  1  0.44125163  0.18994994  0.43658061  1
  Zn  Zn125  1  0.44386341  0.17970788  0.93531824  1
  Zn  Zn126  1  0.44134727  0.67328473  0.43147849  1
  Zn  Zn127  1  0.42589220  0.65366542  0.93888654  1
  Zn  Zn128  1  0.94724429  0.17495668  0.43620612  1
  Zn  Zn129  1  0.92691454  0.19252759  0.94301630  1
  Zn  Zn130  1  0.94491250  0.68413626  0.43957767  1
  Zn  Zn131  1  0.96123439  0.68880348  0.92967019  1
  Zn  Zn132  1  0.06358438  0.31034034  0.06053228  1
  Zn  Zn133  1  0.04785343  0.31046971  0.56718694  1
  Zn  Zn134  1  0.06379563  0.80743583  0.03918324  1
  Zn  Zn135  1  0.05134523  0.85281573  0.58276089  1
  Zn  Zn136  1  0.56070263  0.32476181  0.07092632  1
  Zn  Zn137  1  0.57312593  0.31120173  0.55919092  1
  Zn  Zn138  1  0.56382664  0.80999323  0.04439959  1
  Zn  Zn139  1  0.56929001  0.80831625  0.56181173  1
  O  O140  1  0.11086858  0.13855982  0.11615281  1
  O  O141  1  0.09597202  0.12898441  0.62785452  1
  O  O142  1  0.10961574  0.60729100  0.13322528  1
  O  O143  1  0.10807809  0.64775297  0.64098950  1
  O  O144  1  0.66532798  0.03047881  0.17122650  1
  O  O145  1  0.62955782  0.11382667  0.61329507  1
  O  O146  1  0.63507969  0.61706408  0.14085997  1
  O  O147  1  0.61170097  0.60571284  0.63000396  1
  O  O148  1  0.37470046  0.38011356  0.38633372  1
  O  O149  1  0.39425584  0.37237366  0.87476607  1
  O  O150  1  0.36006647  0.90147033  0.35400170  1
  O  O151  1  0.39377550  0.86198939  0.89522413  1
  O  O152  1  0.89122827  0.38755579  0.37402104  1
  O  O153  1  0.80452804  0.44006745  0.85412182  1
  O  O154  1  0.89047872  0.88622639  0.35054597  1
  O  O155  1  0.87139030  0.89896684  0.88380371  1
  O  O156  1  0.26685519  0.02396509  0.38415213  1
  O  O157  1  0.24633937  0.03369760  0.88456366  1
  O  O158  1  0.26779375  0.49280615  0.37460118  1
  O  O159  1  0.24463840  0.50291927  0.85876631  1
  O  O160  1  0.76817997  -0.01644106  0.37163294  1
  O  O161  1  0.75288383  0.01452247  0.88637954  1
  O  O162  1  0.76545518  0.49687310  0.37388797  1
  O  O163  1  0.76152407  0.49159463  0.88406658  1
  O  O164  1  0.23246297  0.48810257  0.11953815  1
  O  O165  1  0.25110023  0.48073789  0.62908031  1
  O  O166  1  0.30633099  0.97704030  0.15707545  1
  O  O167  1  0.28990181  1.00669456  0.65302715  1
  O  O168  1  0.74648368  0.49632118  0.13750503  1
  O  O169  1  0.73499308  0.50281852  0.61450491  1
  O  O170  1  0.73508652  1.00019731  0.14830595  1
  O  O171  1  0.74707001  0.98908247  0.61484856  1
  O  O172  1  0.00668613  0.37426798  0.26951155  1
  O  O173  1  0.01397309  0.38175303  0.74118516  1
  O  O174  1  0.01495644  0.87334874  0.25075770  1
  O  O175  1  -0.01157537  0.91031739  0.76422578  1
  O  O176  1  0.51405773  0.38707849  0.25446278  1
  O  O177  1  0.49977509  0.36376969  0.75284444  1
  O  O178  1  0.47415147  0.85183057  0.25163744  1
  O  O179  1  0.49437819  0.87058520  0.77319192  1
  O  O180  1  0.49408545  0.13982447  0.24967963  1
  O  O181  1  0.50007165  0.13422889  0.73268399  1
  O  O182  1  0.48119505  0.64328824  0.25510816  1
  O  O183  1  0.50352369  0.63210023  0.74190094  1
  O  O184  1  1.00253461  0.12185036  0.23698197  1
  O  O185  1  1.00208761  0.12733069  0.75512698  1
  O  O186  1  0.99022018  0.61001454  0.24045958  1
  O  O187  1  0.99061236  0.60843655  0.73260222  1
  O  O188  1  0.37859420  0.24328585  0.00986191  1
  O  O189  1  0.37677669  0.26386128  0.50550429  1
  O  O190  1  0.37751206  0.73321954  0.00695443  1
  O  O191  1  0.36292948  0.74897605  0.47827072  1
  O  O192  1  0.85758566  0.24382185  0.02457206  1
  O  O193  1  0.86542425  0.24092931  0.47758327  1
  O  O194  1  0.86246687  0.76461402  -0.00373763  1
  O  O195  1  0.86842751  0.74924862  0.50772040  1
  O  O196  1  0.13558398  0.25736706  0.50588535  1
  O  O197  1  0.12180016  0.23751433  0.99025019  1
  O  O198  1  0.15510486  0.73024895  0.48975535  1
  O  O199  1  0.06422899  0.72486208  0.96662748  1
  O  O200  1  0.64237030  0.23955491  0.49830456  1
  O  O201  1  0.63135900  0.24838215  1.02433584  1
  O  O202  1  0.63907958  0.74844433  0.48977534  1
  O  O203  1  0.64217404  0.74151387  0.99590619  1
  O  O204  1  0.47770451  0.27473616  0.12814278  1
  O  O205  1  0.49902007  0.24906692  0.62970110  1
  O  O206  1  0.50440471  0.75061299  0.12595553  1
  O  O207  1  0.50349668  0.72860367  0.60906632  1
  O  O208  1  0.98565333  0.24128604  0.12252454  1
  O  O209  1  0.98099199  0.24582749  0.63031930  1
  O  O210  1  1.00345208  0.72841094  0.12009193  1
  O  O211  1  0.99127396  0.75004656  0.61249648  1
  O  O212  1  0.00383264  0.26618198  0.39055116  1
  O  O213  1  0.01107962  0.24349641  0.88101587  1
  O  O214  1  -0.00321798  0.75977964  0.37381383  1
  O  O215  1  -0.03151303  0.78269488  0.85758070  1
  O  O216  1  0.52186920  0.25771723  0.39166370  1
  O  O217  1  0.49918006  0.25324339  0.85840910  1
  O  O218  1  0.51027627  0.75319358  0.38893266  1
  O  O219  1  0.49927136  0.72956778  0.86938168  1
  O  O220  1  0.25091084  0.14109946  0.49251579  1
  O  O221  1  0.23482092  0.11668189  1.02161767  1
  O  O222  1  0.26750548  0.63999931  0.49861620  1
  O  O223  1  0.22565810  0.61441394  0.99008774  1
  O  O224  1  0.74612194  0.12461282  0.49373030  1
  O  O225  1  0.73875606  0.13260619  1.01601861  1
  O  O226  1  0.75593014  0.64124024  0.49950807  1
  O  O227  1  0.74860897  0.64604473  1.00528564  1
  O  O228  1  0.24233325  0.37715860  0.00601030  1
  O  O229  1  0.25777669  0.36516289  0.50839557  1
  O  O230  1  0.26269275  0.89132466  -0.01688112  1
  O  O231  1  0.24652164  0.84753825  0.47570454  1
  O  O232  1  0.74036613  0.36629537  0.01919114  1
  O  O233  1  0.76075129  0.36055444  0.50717954  1
  O  O234  1  0.75469363  0.86251276  -0.00259881  1
  O  O235  1  0.74836156  0.86184344  0.51244768  1
  O  O236  1  0.11274617  0.48032195  0.22940349  1
  O  O237  1  0.13847822  0.47701717  0.75213526  1
  O  O238  1  0.12982523  0.98230822  0.23749696  1
  O  O239  1  0.14120489  0.97469144  0.77262474  1
  O  O240  1  0.63502659  0.49755901  0.24989211  1
  O  O241  1  0.63646448  0.48985830  0.74341177  1
  O  O242  1  0.63980898  1.00022689  0.24096788  1
  O  O243  1  0.62665673  0.99877908  0.73024219  1
  O  O244  1  0.37783651  0.02943296  0.25967375  1
  O  O245  1  0.35565880  0.00533752  0.70091688  1
  O  O246  1  0.38232840  0.50854824  0.25663388  1
  O  O247  1  0.35684897  0.49065368  0.75025797  1
  O  O248  1  0.87801252  0.01322656  0.25139880  1
  O  O249  1  0.86203880  0.00897731  0.76865942  1
  O  O250  1  0.87069817  0.50124078  0.26129842  1
  O  O251  1  0.86093516  0.51907556  0.73800733  1
  O  O252  1  0.11791392  0.38186733  0.36461497  1
  O  O253  1  0.12780778  0.36027525  0.86426503  1
  O  O254  1  0.11839128  0.87198530  0.35877329  1
  O  O255  1  0.09052212  0.88361182  0.89757611  1
  O  O256  1  0.63101521  0.37706547  0.36445265  1
  O  O257  1  0.61210413  0.37434805  0.87420597  1
  O  O258  1  0.62999496  0.85588862  0.36774162  1
  O  O259  1  0.60882451  0.88656785  0.87600315  1
  O  O260  1  0.36852691  0.14909521  0.14191883  1
  O  O261  1  0.38990489  0.13988033  0.61388209  1
  O  O262  1  0.37139355  0.62472774  0.13016397  1
  O  O263  1  0.39656790  0.60875492  0.62881471  1
  O  O264  1  0.88157030  0.13176658  0.13978557  1
  O  O265  1  0.91038946  0.08608104  0.63083981  1
  O  O266  1  0.88091387  0.61975440  0.14211999  1
  O  O267  1  0.88521232  0.64063000  0.62895638  1
  O  O268  1  0.25776515  0.26657931  0.12461790  1
  O  O269  1  0.25884387  0.25367140  0.61371561  1
  O  O270  1  0.25188878  0.73540387  0.10661049  1
  O  O271  1  0.26602795  0.75737167  0.58773044  1
  O  O272  1  0.75499457  0.25792219  0.12657717  1
  O  O273  1  0.76923515  0.22998396  0.60293847  1
  O  O274  1  0.71096911  0.85601632  0.15657134  1
  O  O275  1  0.75794763  0.75697537  0.61340832  1
  O  O276  1  0.24962956  0.24602433  0.39013538  1
  O  O277  1  0.23916544  0.23587096  0.87578230  1
  O  O278  1  0.25866023  0.74018728  0.38033151  1
  O  O279  1  0.23830663  0.74746521  0.89285657  1
  O  O280  1  0.73682061  0.25695615  0.38341144  1
  O  O281  1  0.74012305  0.23768543  0.90256459  1
  O  O282  1  0.75172559  0.75378135  0.38626300  1
  O  O283  1  0.75533541  0.75572354  0.87248888  1
  O  O284  1  -0.00492313  0.12160633  0.01346067  1
  O  O285  1  0.00575958  0.10172680  0.49749655  1
  O  O286  1  -0.01946586  0.60777470  0.01840377  1
  O  O287  1  0.00261144  0.61398661  0.51197789  1
  O  O288  1  0.49340130  0.10401222  0.00318193  1
  O  O289  1  0.51886162  0.13608478  0.50992586  1
  O  O290  1  0.52809151  0.62299985  -0.00286364  1
  O  O291  1  0.49677737  0.60723820  0.50692332  1
  O  O292  1  0.48840146  0.38512537  0.50467398  1
  O  O293  1  0.51118394  0.39277638  0.98805415  1
  O  O294  1  0.51600073  0.88688463  0.48689681  1
  O  O295  1  0.50065198  0.89094592  0.99200292  1
  O  O296  1  1.01274782  0.39282504  0.49258177  1
  O  O297  1  0.99244766  0.37822388  1.00381629  1
  O  O298  1  1.01014470  0.87785018  0.47397500  1
  O  O299  1  0.97642229  0.88773789  0.99639704  1
  O  O300  1  0.48958113  0.50485001  0.38726813  1
  O  O301  1  0.49656411  0.48904695  0.86130679  1
  O  O302  1  0.48988052  0.99895270  0.36469953  1
  O  O303  1  0.49128608  0.99995442  0.86804205  1
  O  O304  1  0.99527614  0.49792317  0.39070109  1
  O  O305  1  1.00259177  0.50018496  0.89545747  1
  O  O306  1  0.99793503  0.98882660  0.37818950  1
  O  O307  1  0.97852224  1.00891184  0.88902941  1
  O  O308  1  -0.00796113  0.01555976  0.11799089  1
  O  O309  1  0.00751082  -0.03663455  0.59304502  1
  O  O310  1  0.00365528  0.49614066  0.11551907  1
  O  O311  1  0.00657597  0.51116179  0.61155694  1
  O  O312  1  0.49635272  -0.00575939  0.12928733  1
  O  O313  1  0.51897164  0.00995210  0.61089727  1
  O  O314  1  0.52053872  0.49799340  0.13059163  1
  O  O315  1  0.51041203  0.50173786  0.61267191  1
  O  O316  1  0.23489402  0.37596909  0.24976761  1
  O  O317  1  0.25097650  0.36703381  0.73630439  1
  O  O318  1  0.22841577  0.85564704  0.23193281  1
  O  O319  1  0.27845496  0.87106123  0.75422940  1
  O  O320  1  0.74830028  0.38453923  0.24623304  1
  O  O321  1  0.74897497  0.33656169  0.72892213  1
  O  O322  1  0.74925323  0.79218983  0.20616370  1
  O  O323  1  0.74727139  0.86614072  0.72839320  1
  O  O324  1  0.26033860  0.14244972  0.26606791  1
  O  O325  1  0.25277752  0.13093619  0.74997184  1
  O  O326  1  0.26310933  0.62646141  0.24426757  1
  O  O327  1  0.24363936  0.60712005  0.72644114  1
  O  O328  1  0.75891483  0.11911400  0.25548497  1
  O  O329  1  0.74598633  0.14193807  0.77056554  1
  O  O330  1  0.76517750  0.61307268  0.25831126  1
  O  O331  1  0.76348644  0.64148904  0.74808067  1
  O  O332  1  0.37642419  0.12890214  0.36606176  1
  O  O333  1  0.36574139  0.13630491  0.86040623  1
  O  O334  1  0.37348369  0.61053174  0.36238154  1
  O  O335  1  0.33733947  0.63128014  0.86356975  1
  O  O336  1  0.88474465  0.11077699  0.36000010  1
  O  O337  1  0.85548483  0.11885076  0.89087043  1
  O  O338  1  0.88241261  0.60798680  0.36901693  1
  O  O339  1  0.88839806  0.63424581  0.85617631  1
  O  O340  1  0.13357259  0.37390882  0.13105884  1
  O  O341  1  0.13725957  0.36008755  0.63721832  1
  O  O342  1  0.10984636  0.87576276  0.11360480  1
  O  O343  1  0.15162274  0.88572552  0.62837308  1
  O  O344  1  0.63498879  0.38867207  0.14252404  1
  O  O345  1  0.62203432  0.39092757  0.61875553  1
  O  O346  1  0.63571271  0.85135279  0.14686507  1
  O  O347  1  0.63267851  0.88978222  0.61850384  1
  O  O348  1  0.12073208  0.26457730  0.24532340  1
  O  O349  1  0.12386808  0.25847197  0.76208575  1
  O  O350  1  0.12905838  0.76889586  0.24077938  1
  O  O351  1  0.13212995  0.80067134  0.75934439  1
  O  O352  1  0.62419636  0.26963666  0.25941175  1
  O  O353  1  0.61448421  0.24725315  0.74256736  1
  O  O354  1  0.59902964  0.74758189  0.26067114  1
  O  O355  1  0.60092528  0.75981452  0.73427336  1
  O  O356  1  0.37968114  0.25196708  0.25286003  1
  O  O357  1  0.38694414  0.25080348  0.73503766  1
  O  O358  1  0.37384075  0.73841479  0.22663275  1
  O  O359  1  0.39958681  0.76105620  0.74430909  1
  O  O360  1  0.86646860  0.23542993  0.24250658  1
  O  O361  1  0.86346316  0.30500501  0.79122406  1
  O  O362  1  0.88015536  0.72756279  0.26239014  1
  O  O363  1  0.87825109  0.74659394  0.73031242  1
  O  O364  1  0.37683644  0.48888125  0.49042750  1
  O  O365  1  0.38669235  0.53759092  0.98211438  1
  O  O366  1  0.38801503  1.00572150  0.48806323  1
  O  O367  1  0.38584420  0.98913480  1.00741164  1
  O  O368  1  0.87470697  0.50340860  0.49235588  1
  O  O369  1  0.87839907  0.49041073  1.00683848  1
  O  O370  1  0.88234583  0.99809332  0.47818484  1
  O  O371  1  0.87122360  0.99261326  1.00517863  1
  O  O372  1  0.10682764  0.02196017  -0.00624626  1
  O  O373  1  0.12486111  -0.00463693  0.48536480  1
  O  O374  1  0.10848082  0.48892413  0.01524490  1
  O  O375  1  0.12792656  0.50340041  0.50271765  1
  O  O376  1  0.61338413  -0.00437492  0.01919338  1
  O  O377  1  0.63442894  0.01280629  0.49931033  1
  O  O378  1  0.64164657  0.51974305  0.02205293  1
  O  O379  1  0.61449483  0.49698934  0.48897674  1
  O  O380  1  0.35732931  0.37476226  0.12324906  1
  O  O381  1  0.36647866  0.36919852  0.61427900  1
  O  O382  1  0.37353342  0.84869549  0.09949153  1
  O  O383  1  0.41096265  0.88758143  0.60320046  1
  O  O384  1  0.86899138  0.36099674  0.14013411  1
  O  O385  1  0.83074874  0.33889427  0.73241865  1
  O  O386  1  0.87152390  0.87818438  0.11667363  1
  O  O387  1  0.86622562  0.86807891  0.62637954  1
  O  O388  1  0.13888445  0.11985267  0.36349828  1
  O  O389  1  0.13210554  0.13556376  0.88495806  1
  O  O390  1  0.12736015  0.61155881  0.37717119  1
  O  O391  1  0.14109581  0.63175210  0.84145009  1
  O  O392  1  0.62425988  0.13269882  0.38437849  1
  O  O393  1  0.63423063  0.11658363  0.87842437  1
  O  O394  1  0.63178311  0.64329788  0.36474428  1
  O  O395  1  0.63815854  0.61169819  0.88399554  1
