# generated using pymatgen
data_V35Zn35O128
_symmetry_space_group_name_H-M   'P 1'
_cell_length_a   16.81574913
_cell_length_b   16.84856935
_cell_length_c   16.85318985
_cell_angle_alpha   90.09952164
_cell_angle_beta   90.12500583
_cell_angle_gamma   90.00903148
_symmetry_Int_Tables_number   1
_chemical_formula_structural   V35Zn35O128
_chemical_formula_sum   'V70 Zn70 O256'
_cell_volume   4774.84928814
_cell_formula_units_Z   2
loop_
 _symmetry_equiv_pos_site_id
 _symmetry_equiv_pos_as_xyz
  1  'x, y, z'
loop_
 _atom_site_type_symbol
 _atom_site_label
 _atom_site_symmetry_multiplicity
 _atom_site_fract_x
 _atom_site_fract_y
 _atom_site_fract_z
 _atom_site_occupancy
  V  V0  1  0.35962395  0.11260082  0.26213775  1
  V  V1  1  0.11167453  0.00051814  0.12768021  1
  V  V2  1  0.61518665  0.86984802  0.23965569  1
  V  V3  1  0.37621672  0.38663144  0.49208723  1
  V  V4  1  0.75693199  0.12707998  0.36474246  1
  V  V5  1  0.50059125  0.00223394  0.00943105  1
  V  V6  1  0.61745189  0.36206333  0.75940665  1
  V  V7  1  0.25067609  0.60970432  0.88550874  1
  V  V8  1  0.64364575  0.00559856  0.12945410  1
  V  V9  1  0.86629552  0.74725577  0.61369205  1
  V  V10  1  0.51110485  0.24514841  0.24959909  1
  V  V11  1  0.65207982  0.88584394  0.74382936  1
  V  V12  1  0.75264752  0.62277555  0.88235401  1
  V  V13  1  0.49482962  0.63129520  0.62396481  1
  V  V14  1  0.12501083  0.88070630  0.74503606  1
  V  V15  1  0.61791274  0.48597773  0.62363958  1
  V  V16  1  0.75380884  0.25768629  -0.01525892  1
  V  V17  1  0.24858550  0.00741314  0.74054613  1
  V  V18  1  0.87634298  0.62231593  0.75255874  1
  V  V19  1  -0.01890831  0.74706652  0.25363537  1
  V  V20  1  0.00390851  0.26248244  0.75392526  1
  V  V21  1  0.50017970  0.87802870  0.85823446  1
  V  V22  1  -0.00720195  0.88902469  0.88131836  1
  V  V23  1  0.86628914  0.11490052  0.75247508  1
  V  V24  1  0.25162993  0.86115348  0.61650705  1
  V  V25  1  0.00064405  0.47952344  0.49218486  1
  V  V26  1  0.36698856  0.86932219  -0.00313496  1
  V  V27  1  -0.01510526  0.63072788  0.11692201  1
  V  V28  1  0.65833121  0.61718643  0.51206371  1
  V  V29  1  0.37438230  0.00458741  0.86800430  1
  V  V30  1  0.13122022  0.49509479  0.62993673  1
  V  V31  1  0.00236841  0.74936109  0.75286443  1
  V  V32  1  0.86806244  0.88328925  0.01874347  1
  V  V33  1  0.00975937  0.12404061  0.61583295  1
  V  V34  1  0.00638468  0.62747088  0.60897358  1
  V  V35  1  0.61800247  0.10010984  0.49960439  1
  V  V36  1  0.75510410  0.48908982  0.74386163  1
  V  V37  1  0.40146137  0.86567018  0.51082689  1
  V  V38  1  0.10954580  0.11680162  0.00214997  1
  V  V39  1  0.87708799  -0.01648556  0.37107082  1
  V  V40  1  0.37503978  0.23569552  0.13249099  1
  V  V41  1  0.38133109  0.38479984  0.00480562  1
  V  V42  1  -0.00621783  0.23980196  0.24973389  1
  V  V43  1  0.11972869  0.86942972  0.26201090  1
  V  V44  1  0.11749521  0.38193760  0.26152196  1
  V  V45  1  0.36593481  0.61274134  0.74809506  1
  V  V46  1  0.74261792  0.38738193  0.13147600  1
  V  V47  1  0.00412256  -0.00834214  0.49833359  1
  V  V48  1  0.24181113  0.38263841  0.13403455  1
  V  V49  1  0.24614273  0.24573861  0.00512673  1
  V  V50  1  0.24999516  0.12541745  0.87503074  1
  V  V51  1  0.24827169  0.88132706  0.13584243  1
  V  V52  1  0.75566625  0.61570241  0.34698178  1
  V  V53  1  0.87556302  0.24672514  0.12070270  1
  V  V54  1  0.23818388  0.63778572  0.37755014  1
  V  V55  1  0.38188990  -0.00319105  0.39744484  1
  V  V56  1  0.75924032  0.89059090  0.59471894  1
  V  V57  1  0.63487278  0.12737481  -0.01381684  1
  V  V58  1  0.12329725  0.22981249  0.37809460  1
  V  V59  1  0.87896466  0.48414075  0.36373826  1
  V  V60  1  0.12197881  0.51822608  0.12155301  1
  V  V61  1  0.61851765  0.74543237  0.38218839  1
  V  V62  1  0.13479403  0.74965034  0.89004367  1
  V  V63  1  0.25571184  0.23902961  0.49421902  1
  V  V64  1  0.62582785  0.74998409  0.86946673  1
  V  V65  1  0.86909247  0.26210776  0.61428926  1
  V  V66  1  0.25315851  0.37101930  0.63118242  1
  V  V67  1  0.36487890  0.51188787  0.35232953  1
  V  V68  1  0.62946898  0.25743129  0.39634201  1
  V  V69  1  0.38057140  0.75376110  0.15481799  1
  Zn  Zn70  1  0.11828714  0.75017043  0.39716309  1
  Zn  Zn71  1  0.57314231  0.60037846  0.01304495  1
  Zn  Zn72  1  0.75060720  0.75891555  0.02176258  1
  Zn  Zn73  1  0.12075073  0.25523328  0.87087301  1
  Zn  Zn74  1  0.49888244  0.38189676  0.88153370  1
  Zn  Zn75  1  0.50497845  0.38708799  0.37018566  1
  Zn  Zn76  1  0.18178884  0.18479481  0.19092679  1
  Zn  Zn77  1  0.18607120  0.19179646  0.68313464  1
  Zn  Zn78  1  0.20480637  0.69192326  0.19179374  1
  Zn  Zn79  1  0.18640733  0.68676314  0.68759482  1
  Zn  Zn80  1  0.69551713  0.18430084  0.17492940  1
  Zn  Zn81  1  0.68657368  0.17893851  0.66649423  1
  Zn  Zn82  1  0.64130864  0.67676682  0.19121976  1
  Zn  Zn83  1  0.68621707  0.68694140  0.69380417  1
  Zn  Zn84  1  0.30665714  0.31033088  0.31714962  1
  Zn  Zn85  1  0.31315758  0.32064478  0.82443894  1
  Zn  Zn86  1  0.30996245  0.82322812  0.33261910  1
  Zn  Zn87  1  0.30988854  0.80967425  0.80818945  1
  Zn  Zn88  1  0.80671903  0.31336811  0.30825604  1
  Zn  Zn89  1  0.78045668  0.27053314  0.77208834  1
  Zn  Zn90  1  0.79349579  0.81263134  0.31309072  1
  Zn  Zn91  1  0.81684378  0.80904955  0.81543921  1
  Zn  Zn92  1  0.19050318  0.44475569  0.44343027  1
  Zn  Zn93  1  0.19045093  0.44224335  0.95055320  1
  Zn  Zn94  1  0.19320894  0.95493465  0.43681392  1
  Zn  Zn95  1  0.18233561  0.93858154  0.93521658  1
  Zn  Zn96  1  0.69118779  0.43893060  0.43031800  1
  Zn  Zn97  1  0.69151615  0.43545343  0.93099876  1
  Zn  Zn98  1  0.69008991  0.93444450  0.41082923  1
  Zn  Zn99  1  0.69247077  0.93817464  0.93539338  1
  Zn  Zn100  1  0.30779430  0.05608184  0.06170930  1
  Zn  Zn101  1  0.32946285  0.06462861  0.57138747  1
  Zn  Zn102  1  0.36954410  0.59507375  0.04734364  1
  Zn  Zn103  1  0.31174878  0.56740949  0.55893723  1
  Zn  Zn104  1  0.81963644  0.06416593  0.05693931  1
  Zn  Zn105  1  0.81693144  0.07972190  0.54701387  1
  Zn  Zn106  1  0.77535107  0.59657754  0.11765903  1
  Zn  Zn107  1  0.81892316  0.43450185  0.55710910  1
  Zn  Zn108  1  0.41899130  0.41856938  0.20077569  1
  Zn  Zn109  1  0.43704967  0.43196756  0.68496553  1
  Zn  Zn110  1  0.44100459  0.93170347  0.19393543  1
  Zn  Zn111  1  0.43384567  0.79986773  0.68445864  1
  Zn  Zn112  1  0.93653770  0.43380901  0.17602383  1
  Zn  Zn113  1  0.94709780  0.44153776  0.69383122  1
  Zn  Zn114  1  0.93503443  0.93914634  0.19371225  1
  Zn  Zn115  1  0.93382571  0.93823488  0.68131316  1
  Zn  Zn116  1  0.05303949  0.05520328  0.30932018  1
  Zn  Zn117  1  0.05851573  0.07116805  0.80633896  1
  Zn  Zn118  1  0.06012075  0.56771988  0.30798269  1
  Zn  Zn119  1  0.07214015  0.56500491  0.81444583  1
  Zn  Zn120  1  0.55752074  0.07017874  0.31123207  1
  Zn  Zn121  1  0.56782368  0.05714201  0.80370846  1
  Zn  Zn122  1  0.54477430  0.58294470  0.34404477  1
  Zn  Zn123  1  0.56217696  0.56210347  0.80617106  1
  Zn  Zn124  1  0.44143672  0.18690697  0.43422867  1
  Zn  Zn125  1  0.43568203  0.18363715  0.94663916  1
  Zn  Zn126  1  0.43196422  0.67829859  0.44378258  1
  Zn  Zn127  1  0.43308517  0.69407691  0.91250508  1
  Zn  Zn128  1  0.93880844  0.19544923  0.43791411  1
  Zn  Zn129  1  0.92991772  0.18826344  0.93030450  1
  Zn  Zn130  1  0.93126545  0.68778052  0.42812341  1
  Zn  Zn131  1  0.93453950  0.69887735  0.94160307  1
  Zn  Zn132  1  0.06139588  0.30815403  0.06550166  1
  Zn  Zn133  1  0.06732444  0.30737370  0.56344107  1
  Zn  Zn134  1  0.05389269  0.81207088  0.06670570  1
  Zn  Zn135  1  0.06097185  0.81933860  0.56302334  1
  Zn  Zn136  1  0.56558345  0.30710687  0.06608569  1
  Zn  Zn137  1  0.54679379  0.30085169  0.56903071  1
  Zn  Zn138  1  0.56511269  0.79823956  0.05843578  1
  Zn  Zn139  1  0.58417414  0.80564751  0.56300494  1
  O  O140  1  0.12728747  0.11061384  0.11631208  1
  O  O141  1  0.11023233  0.12560753  0.62626901  1
  O  O142  1  0.13114266  0.61858201  0.13447131  1
  O  O143  1  0.11208911  0.61674451  0.62859034  1
  O  O144  1  0.62909855  0.11073675  0.10851263  1
  O  O145  1  0.63093547  0.10899270  0.60210927  1
  O  O146  1  0.60479324  0.68130776  0.08203528  1
  O  O147  1  0.62202610  0.61670041  0.62217582  1
  O  O148  1  0.36771155  0.38756438  0.37833952  1
  O  O149  1  0.36829364  0.38762161  0.90062426  1
  O  O150  1  0.38373089  0.88363919  0.40077945  1
  O  O151  1  0.37733984  0.88468260  0.88096694  1
  O  O152  1  0.87158774  0.38459017  0.37376741  1
  O  O153  1  0.90361765  0.46465769  0.95248652  1
  O  O154  1  0.86478861  0.88401911  0.37308867  1
  O  O155  1  0.89239386  0.87909858  0.86543610  1
  O  O156  1  0.27879963  -0.00807702  0.37393410  1
  O  O157  1  0.25460600  0.00802311  0.87179641  1
  O  O158  1  0.25957067  0.50697854  0.37475220  1
  O  O159  1  0.23227032  0.51037250  0.87103554  1
  O  O160  1  0.76953666  0.01669010  0.37526988  1
  O  O161  1  0.73694441  0.01816190  0.87144162  1
  O  O162  1  0.76756346  0.50659696  0.37446556  1
  O  O163  1  0.74057761  0.51453702  0.85936040  1
  O  O164  1  0.23900726  0.48326703  0.13086744  1
  O  O165  1  0.23787619  0.49247289  0.61806540  1
  O  O166  1  0.23856762  0.98796737  0.12136463  1
  O  O167  1  0.25547289  1.00325894  0.63943094  1
  O  O168  1  0.75389105  0.48749702  0.11078844  1
  O  O169  1  0.74121660  0.49262756  0.63895811  1
  O  O170  1  0.74259562  1.00136009  0.12548798  1
  O  O171  1  0.76471614  0.98861661  0.60489957  1
  O  O172  1  0.01475110  0.36347608  0.24265304  1
  O  O173  1  0.00600436  0.36297119  0.74916025  1
  O  O174  1  0.01238737  0.86137513  0.24382920  1
  O  O175  1  0.00700738  0.87021526  0.75182196  1
  O  O176  1  0.49042826  0.35218987  0.25401625  1
  O  O177  1  0.51226139  0.38419789  0.75954975  1
  O  O178  1  0.51880091  0.88708068  0.26472577  1
  O  O179  1  0.49294001  0.87490331  0.75738983  1
  O  O180  1  0.47941121  0.14168627  0.25271245  1
  O  O181  1  0.49867946  0.12787842  0.73304886  1
  O  O182  1  0.55587310  0.59826767  0.22642422  1
  O  O183  1  0.48885077  0.61976448  0.74024552  1
  O  O184  1  1.00610518  0.14083294  0.24425853  1
  O  O185  1  0.99053166  0.12878150  0.73440715  1
  O  O186  1  1.00043407  0.64055057  0.23986214  1
  O  O187  1  0.99567525  0.63347196  0.75181186  1
  O  O188  1  0.36399766  0.25008175  0.01424741  1
  O  O189  1  0.35996229  0.26007684  0.48165758  1
  O  O190  1  0.37582561  0.77083521  -0.00936564  1
  O  O191  1  0.38746565  0.76637731  0.49947168  1
  O  O192  1  0.86492608  0.24615267  0.00664175  1
  O  O193  1  0.88032442  0.25686711  0.51429384  1
  O  O194  1  0.86478148  0.77186433  -0.00885853  1
  O  O195  1  0.87986292  0.74356872  0.51524082  1
  O  O196  1  0.13264880  0.25091266  0.48377889  1
  O  O197  1  0.13374930  0.23200115  1.00869500  1
  O  O198  1  0.11986183  0.74605875  0.50852403  1
  O  O199  1  0.12377689  0.75913311  0.98802657  1
  O  O200  1  0.62278778  0.25160557  0.49697897  1
  O  O201  1  0.63387003  0.23490645  0.99960030  1
  O  O202  1  0.63017098  0.72239571  0.49510917  1
  O  O203  1  0.64055491  0.77775243  0.97039206  1
  O  O204  1  0.48113076  0.25128177  0.13272160  1
  O  O205  1  0.47270430  0.26583924  0.64349795  1
  O  O206  1  0.47600733  0.77710765  0.12562484  1
  O  O207  1  0.51357968  0.73600801  0.62914192  1
  O  O208  1  0.98741403  0.25397755  0.13184609  1
  O  O209  1  0.99847944  0.24349159  0.63146782  1
  O  O210  1  1.00107574  0.74105052  0.13849326  1
  O  O211  1  0.99676807  0.74225630  0.63472896  1
  O  O212  1  0.01187273  0.24875129  0.36264144  1
  O  O213  1  0.00030808  0.24492655  0.85901687  1
  O  O214  1  0.00474380  0.74375698  0.35884813  1
  O  O215  1  0.01123330  0.75711733  0.86617477  1
  O  O216  1  0.51612769  0.24979062  0.36379090  1
  O  O217  1  0.46666126  0.25561743  0.85547092  1
  O  O218  1  0.52457644  0.69802921  0.37198343  1
  O  O219  1  0.51660730  0.76310036  0.87484725  1
  O  O220  1  0.26281334  0.14075701  0.51431029  1
  O  O221  1  0.24439612  0.12952743  0.99349362  1
  O  O222  1  0.25790762  0.62582605  0.48134019  1
  O  O223  1  0.26856876  0.61733918  0.98366494  1
  O  O224  1  0.73187918  0.12572378  0.48070737  1
  O  O225  1  0.74178427  0.13317119  0.99727723  1
  O  O226  1  0.75405646  0.61787556  0.51759925  1
  O  O227  1  0.75315678  0.61716993  0.98074215  1
  O  O228  1  0.25531886  0.36529641  0.01358496  1
  O  O229  1  0.25813361  0.36692158  0.50501231  1
  O  O230  1  0.26319606  0.88441816  0.00122103  1
  O  O231  1  0.24670832  0.88510791  0.51804914  1
  O  O232  1  0.74612124  0.36156350  0.00034865  1
  O  O233  1  0.74596120  0.37351923  0.50160314  1
  O  O234  1  0.76049068  0.87836933  0.00364674  1
  O  O235  1  0.74795852  0.87287665  0.49745679  1
  O  O236  1  0.11893471  0.48587412  0.24158013  1
  O  O237  1  0.11584107  0.49885844  0.72965853  1
  O  O238  1  0.11620659  0.98717415  0.23644487  1
  O  O239  1  0.13876027  0.99216448  0.75884898  1
  O  O240  1  0.61042764  0.47439644  0.25246681  1
  O  O241  1  0.63482276  0.49148736  0.74038906  1
  O  O242  1  0.61626917  1.00388639  0.23028010  1
  O  O243  1  0.62182528  0.98193547  0.73787062  1
  O  O244  1  0.37615489  0.01329136  0.24431865  1
  O  O245  1  0.35693098  -0.00037101  0.76320045  1
  O  O246  1  0.36875774  0.50326915  0.25060711  1
  O  O247  1  0.37403689  0.51122165  0.74464701  1
  O  O248  1  0.89275754  0.00782341  0.27097299  1
  O  O249  1  0.86942970  0.01546262  0.73518098  1
  O  O250  1  0.89243374  0.49523218  0.26451421  1
  O  O251  1  0.86471596  0.50673628  0.74505613  1
  O  O252  1  0.13039234  0.37582900  0.36228673  1
  O  O253  1  0.10198305  0.36762679  0.91643442  1
  O  O254  1  0.13142587  0.87827261  0.36258276  1
  O  O255  1  0.11931919  0.86578891  0.86688633  1
  O  O256  1  0.62059695  0.36290948  0.37809262  1
  O  O257  1  0.62343823  0.36372361  0.86315533  1
  O  O258  1  0.60282787  0.83987440  0.40491929  1
  O  O259  1  0.61975143  0.87704618  0.85681646  1
  O  O260  1  0.36700643  0.13279292  0.12994470  1
  O  O261  1  0.40109263  0.13019253  0.64368521  1
  O  O262  1  0.36841438  0.65340026  0.14499328  1
  O  O263  1  0.38479629  0.62384783  0.63229665  1
  O  O264  1  0.86518723  0.14532998  0.12559525  1
  O  O265  1  0.88149039  0.14143101  0.62685706  1
  O  O266  1  0.88714284  0.61886538  0.12423511  1
  O  O267  1  0.89322834  0.63483950  0.63766527  1
  O  O268  1  0.25318230  0.25060185  0.11996187  1
  O  O269  1  0.24086607  0.26278277  0.60853300  1
  O  O270  1  0.26423703  0.77191337  0.12759955  1
  O  O271  1  0.24688624  0.76204384  0.62449394  1
  O  O272  1  0.75911294  0.26008584  0.11461989  1
  O  O273  1  0.76823153  0.25885459  0.63265486  1
  O  O274  1  0.73279697  0.70368923  0.12022947  1
  O  O275  1  0.76539887  0.74300920  0.62771094  1
  O  O276  1  0.23550207  0.24699818  0.38258184  1
  O  O277  1  0.24383128  0.24558336  0.88575435  1
  O  O278  1  0.24061303  0.74605037  0.37805766  1
  O  O279  1  0.23788205  0.74913738  0.87567943  1
  O  O280  1  0.73189326  0.24810441  0.36857698  1
  O  O281  1  0.75980633  0.25515872  0.88617221  1
  O  O282  1  0.73179888  0.72541802  0.36501403  1
  O  O283  1  0.74372531  0.73533860  0.86675289  1
  O  O284  1  0.01170195  0.12945651  -0.00479796  1
  O  O285  1  -0.00108004  0.12769862  0.51108856  1
  O  O286  1  0.00039893  0.64071721  0.01628680  1
  O  O287  1  -0.00227102  0.62776398  0.50978178  1
  O  O288  1  0.51059286  0.11066783  -0.00556111  1
  O  O289  1  0.51681122  0.12875510  0.49434684  1
  O  O290  1  0.46609622  0.62639299  -0.00442442  1
  O  O291  1  0.49691523  0.61826607  0.52226338  1
  O  O292  1  0.47874399  0.36511130  0.49428032  1
  O  O293  1  0.48350432  0.35627024  1.00068197  1
  O  O294  1  0.49919164  0.87559959  0.52893823  1
  O  O295  1  0.49177411  0.88932633  0.98628205  1
  O  O296  1  1.00511308  0.38042499  0.49590685  1
  O  O297  1  1.03860789  0.36783291  0.96745281  1
  O  O298  1  0.99110193  0.89231246  0.51393278  1
  O  O299  1  0.99038810  0.87142143  0.98675844  1
  O  O300  1  0.47584921  0.49924712  0.37103352  1
  O  O301  1  0.53342120  0.49657494  0.89999845  1
  O  O302  1  0.48002873  1.00671666  0.36732885  1
  O  O303  1  0.49098035  0.99615187  0.87458404  1
  O  O304  1  0.99309490  0.50694151  0.38623493  1
  O  O305  1  0.99883441  0.48547958  0.86171549  1
  O  O306  1  0.99151494  0.99897835  0.38573767  1
  O  O307  1  1.01220912  0.98653363  0.87094495  1
  O  O308  1  0.01297370  -0.00829427  0.11959905  1
  O  O309  1  -0.00947052  0.01494093  0.61246295  1
  O  O310  1  0.01180862  0.51665414  0.13049531  1
  O  O311  1  0.00460342  0.51058530  0.61344241  1
  O  O312  1  0.49818142  -0.00560166  0.10933714  1
  O  O313  1  0.46464838  0.09082591  0.67129985  1
  O  O314  1  0.58558511  0.51789032  0.19684526  1
  O  O315  1  0.51500068  0.50785992  0.63079992  1
  O  O316  1  0.23585980  0.36346634  0.23899100  1
  O  O317  1  0.26248886  0.36096060  0.73129035  1
  O  O318  1  0.23936601  0.88060593  0.24019674  1
  O  O319  1  0.24545743  0.88595931  0.74170480  1
  O  O320  1  0.74919000  0.37664644  0.23260245  1
  O  O321  1  0.74218597  0.38562401  0.76072768  1
  O  O322  1  0.70422426  0.88967865  0.29735675  1
  O  O323  1  0.75202005  0.88711171  0.75626052  1
  O  O324  1  0.25990996  0.12529229  0.24931499  1
  O  O325  1  0.24042132  0.11619563  0.75906959  1
  O  O326  1  0.25166748  0.62861935  0.27214536  1
  O  O327  1  0.25880253  0.62413334  0.75076229  1
  O  O328  1  0.74067211  0.12926194  0.26396073  1
  O  O329  1  0.76516124  0.14774522  0.74660492  1
  O  O330  1  0.73578328  0.60905682  0.24906889  1
  O  O331  1  0.75906151  0.61382603  0.75201539  1
  O  O332  1  0.37069422  0.11682053  0.36900723  1
  O  O333  1  0.36035181  0.11777247  0.88291512  1
  O  O334  1  0.36903553  0.61579219  0.37151309  1
  O  O335  1  0.35951159  0.62141522  0.86027976  1
  O  O336  1  0.85700176  0.14706967  0.37431162  1
  O  O337  1  0.88152296  0.12193615  0.85313179  1
  O  O338  1  0.85831847  0.62246439  0.36755022  1
  O  O339  1  0.86500865  0.63303623  0.86440754  1
  O  O340  1  0.13235279  0.37515872  0.13044835  1
  O  O341  1  0.13742440  0.38479186  0.62066112  1
  O  O342  1  0.13414402  0.88215985  0.12329242  1
  O  O343  1  0.13492341  0.87670331  0.63817024  1
  O  O344  1  0.64055429  0.37352348  0.11497934  1
  O  O345  1  0.61419567  0.38343637  0.63085303  1
  O  O346  1  0.62470357  0.88169449  0.13420135  1
  O  O347  1  0.65658656  0.86379464  0.63292859  1
  O  O348  1  0.11791590  0.25568041  0.25931783  1
  O  O349  1  0.11249291  0.24523365  0.75253531  1
  O  O350  1  0.12751304  0.76658345  0.24834914  1
  O  O351  1  0.11791694  0.75960658  0.75443287  1
  O  O352  1  0.60971125  0.23990862  0.23516279  1
  O  O353  1  0.63341228  0.26516277  0.73525924  1
  O  O354  1  0.61880041  0.76374348  0.26364035  1
  O  O355  1  0.63352181  0.76868439  0.75907236  1
  O  O356  1  0.36874001  0.24138793  0.24154806  1
  O  O357  1  0.41022749  0.25304952  0.79868625  1
  O  O358  1  0.37867828  0.77788991  0.25285167  1
  O  O359  1  0.37688398  0.73492290  0.75649560  1
  O  O360  1  0.88795541  0.25545535  0.24277659  1
  O  O361  1  0.89144202  0.24591146  0.73866839  1
  O  O362  1  0.88137114  0.76053536  0.25501636  1
  O  O363  1  0.88593109  0.74293018  0.74447741  1
  O  O364  1  0.37163036  0.48859276  0.49390722  1
  O  O365  1  0.38201126  0.47996349  1.03434419  1
  O  O366  1  0.38524869  0.99296750  0.50324180  1
  O  O367  1  0.38507022  0.99818187  0.99106375  1
  O  O368  1  0.89341095  0.49642040  0.49283439  1
  O  O369  1  0.96105038  0.50815664  0.93121995  1
  O  O370  1  0.88795119  1.01402582  0.48070823  1
  O  O371  1  0.87607809  0.98525179  0.99975246  1
  O  O372  1  0.12572472  0.00965245  0.00798066  1
  O  O373  1  0.10590055  0.00223054  0.49051428  1
  O  O374  1  0.12695885  0.50477748  0.02238907  1
  O  O375  1  0.11034508  0.49877920  0.51076035  1
  O  O376  1  0.61616903  0.00141429  0.00837592  1
  O  O377  1  0.62064412  0.00185485  0.47414317  1
  O  O378  1  0.59361047  0.49832106  -0.03616174  1
  O  O379  1  0.63343517  0.50579881  0.51689829  1
  O  O380  1  0.35804075  0.35825339  0.12397746  1
  O  O381  1  0.36143582  0.38295577  0.60985034  1
  O  O382  1  0.36311493  0.88254614  0.11443101  1
  O  O383  1  0.36334153  0.87200432  0.61906748  1
  O  O384  1  0.86499094  0.36238017  0.12150447  1
  O  O385  1  0.88437445  0.36921308  0.62928611  1
  O  O386  1  0.87831427  0.87581915  0.11892324  1
  O  O387  1  0.86331769  0.85938427  0.62811022  1
  O  O388  1  0.12317340  0.13126858  0.36949661  1
  O  O389  1  0.13278478  0.12354819  0.88838454  1
  O  O390  1  0.13279434  0.62571466  0.37524835  1
  O  O391  1  0.13761115  0.63938263  0.87294087  1
  O  O392  1  0.62901501  0.13835089  0.37892786  1
  O  O393  1  0.62412626  0.11610062  0.88568597  1
  O  O394  1  0.65045483  0.60482270  0.39736395  1
  O  O395  1  0.63118365  0.64103255  0.86888783  1
