# generated using pymatgen
data_V35Zn35O128
_symmetry_space_group_name_H-M   'P 1'
_cell_length_a   16.93475154
_cell_length_b   16.94066597
_cell_length_c   16.94648362
_cell_angle_alpha   89.61021526
_cell_angle_beta   89.78746789
_cell_angle_gamma   89.58787595
_symmetry_Int_Tables_number   1
_chemical_formula_structural   V35Zn35O128
_chemical_formula_sum   'V70 Zn70 O256'
_cell_volume   4861.43753933
_cell_formula_units_Z   2
loop_
 _symmetry_equiv_pos_site_id
 _symmetry_equiv_pos_as_xyz
  1  'x, y, z'
loop_
 _atom_site_type_symbol
 _atom_site_label
 _atom_site_symmetry_multiplicity
 _atom_site_fract_x
 _atom_site_fract_y
 _atom_site_fract_z
 _atom_site_occupancy
  V  V0  1  0.86409640  0.61892146  0.73626193  1
  V  V1  1  0.62997562  -0.01528090  0.12254730  1
  V  V2  1  0.87183196  0.49539376  0.87787447  1
  V  V3  1  0.61416685  0.88170749  0.74082815  1
  V  V4  1  0.61600750  0.50751455  0.63232106  1
  V  V5  1  0.25624555  0.37587314  0.12194723  1
  V  V6  1  0.13158141  0.62833836  0.00100049  1
  V  V7  1  0.76325735  0.38969186  0.63197864  1
  V  V8  1  0.86224810  0.61705955  0.24486252  1
  V  V9  1  0.23689812  0.37695413  0.64372203  1
  V  V10  1  0.12141908  0.75354863  0.87398123  1
  V  V11  1  0.75460410  0.75502148  0.01398059  1
  V  V12  1  0.74779032  0.38755745  0.12646170  1
  V  V13  1  0.36435040  0.76104890  0.12938774  1
  V  V14  1  -0.01748417  0.87080568  0.38019829  1
  V  V15  1  0.25868523  0.23171945  -0.00442020  1
  V  V16  1  0.02368095  0.49625057  0.49489935  1
  V  V17  1  0.50143548  0.25717020  0.25561567  1
  V  V18  1  0.38067325  0.37615740  0.00230860  1
  V  V19  1  0.36985806  0.37561009  0.49435543  1
  V  V20  1  0.62394988  0.76430449  0.87359292  1
  V  V21  1  0.76354454  0.25177820  0.01054833  1
  V  V22  1  0.12935396  -0.01134982  0.61879557  1
  V  V23  1  0.37124413  0.62003289  0.25589439  1
  V  V24  1  0.62537132  0.38691202  0.76300423  1
  V  V25  1  0.62369390  0.62418914  0.00316289  1
  V  V26  1  0.15033735  0.13477642  0.49840011  1
  V  V27  1  0.49443238  0.48969471  0.49229706  1
  V  V28  1  -0.00966468  0.74488620  0.24603277  1
  V  V29  1  0.74577218  0.00063614  0.72867578  1
  V  V30  1  -0.00530288  0.62946431  0.12063915  1
  V  V31  1  0.48045259  -0.00625156  0.00330406  1
  V  V32  1  0.90015437  0.12748946  0.22509879  1
  V  V33  1  0.37208314  0.24736285  0.62307494  1
  V  V34  1  0.75018847  0.12157649  0.87478672  1
  V  V35  1  0.63151957  0.86801135  0.26440460  1
  V  V36  1  0.03050498  0.61821996  0.61711762  1
  V  V37  1  0.25230340  0.00519899  0.77198736  1
  V  V38  1  0.87159181  0.87539221  0.01711133  1
  V  V39  1  0.61936274  0.12889969  0.00713041  1
  V  V40  1  0.30916605  0.79511322  -0.05381500  1
  V  V41  1  0.89302938  0.03003825  0.41065390  1
  V  V42  1  0.86293265  0.49908360  0.38401335  1
  V  V43  1  0.36201165  0.13221103  0.26355650  1
  V  V44  1  0.49734122  0.24829035  0.75438352  1
  V  V45  1  0.25017211  0.49968967  0.24848155  1
  V  V46  1  -0.01645038  0.86836166  0.86362578  1
  V  V47  1  0.00013573  0.74069865  0.74305634  1
  V  V48  1  0.28779809  -0.04475235  0.27291304  1
  V  V49  1  -0.00403377  0.48837669  -0.00237634  1
  V  V50  1  0.11516469  0.88035761  0.24016894  1
  V  V51  1  0.48933047  0.13568282  0.12592508  1
  V  V52  1  0.50014364  0.75423751  0.26602868  1
  V  V53  1  0.37725752  0.50315965  0.86479798  1
  V  V54  1  0.61562709  0.25788051  0.88282501  1
  V  V55  1  0.61212442  0.62792805  0.49492525  1
  V  V56  1  0.25485522  0.62127963  0.85746399  1
  V  V57  1  0.75242411  0.63144374  0.87579556  1
  V  V58  1  0.01787989  -0.00571032  0.00769786  1
  V  V59  1  0.76534235  0.74342650  0.50103403  1
  V  V60  1  0.62445175  0.39190515  0.25129632  1
  V  V61  1  0.12055400  0.74422345  0.37571087  1
  V  V62  1  -0.00464155  0.37265900  0.37358239  1
  V  V63  1  0.50068387  0.62748170  0.12451787  1
  V  V64  1  0.52359726  0.13195642  0.61044803  1
  V  V65  1  0.24235830  0.77802393  0.50078347  1
  V  V66  1  0.49993828  0.50703451  0.00039529  1
  V  V67  1  0.23961735  0.61358597  0.38250943  1
  V  V68  1  0.87972220  0.25629638  0.66962253  1
  V  V69  1  0.11366540  0.36892832  0.24519431  1
  Zn  Zn70  1  0.41353233  0.65770721  0.68516152  1
  Zn  Zn71  1  0.73843538  0.62133751  0.37138766  1
  Zn  Zn72  1  0.12449584  0.50283510  0.12135604  1
  Zn  Zn73  1  0.23143056  0.88196128  0.10578060  1
  Zn  Zn74  1  0.87160827  0.00029990  0.87352233  1
  Zn  Zn75  1  0.57154578  0.29879747  0.41591429  1
  Zn  Zn76  1  0.18889838  0.19868283  0.17982661  1
  Zn  Zn77  1  0.19669133  0.17141081  0.68405742  1
  Zn  Zn78  1  0.18263386  0.69048591  0.18878809  1
  Zn  Zn79  1  0.19444060  0.70266205  0.68265361  1
  Zn  Zn80  1  0.67771705  0.19659938  0.18546555  1
  Zn  Zn81  1  0.69490224  0.19925835  0.69091438  1
  Zn  Zn82  1  0.68171759  0.68970075  0.18938472  1
  Zn  Zn83  1  0.67770484  0.68930207  0.68844395  1
  Zn  Zn84  1  0.31441045  0.30736649  0.31112495  1
  Zn  Zn85  1  0.31455710  0.30929411  0.82038010  1
  Zn  Zn86  1  0.34137444  0.78443244  0.35369370  1
  Zn  Zn87  1  0.32389301  0.84750025  0.76246551  1
  Zn  Zn88  1  0.83667467  0.31945124  0.26689585  1
  Zn  Zn89  1  0.80165290  0.31734208  0.82542295  1
  Zn  Zn90  1  0.80379461  0.79965684  0.31170492  1
  Zn  Zn91  1  0.79953388  0.82874905  0.65872861  1
  Zn  Zn92  1  0.19182282  0.38999864  0.43304226  1
  Zn  Zn93  1  0.19159331  0.44562319  0.93668038  1
  Zn  Zn94  1  0.16348137  0.95175077  0.42961636  1
  Zn  Zn95  1  0.19152339  0.93937940  0.91188340  1
  Zn  Zn96  1  0.68661019  0.41644991  0.45487996  1
  Zn  Zn97  1  0.69082148  0.44002036  0.94367001  1
  Zn  Zn98  1  0.71568411  0.93488429  0.43005890  1
  Zn  Zn99  1  0.68365452  0.93843733  0.94808274  1
  Zn  Zn100  1  0.30590134  0.05286454  0.08970613  1
  Zn  Zn101  1  0.29812736  0.07068678  0.60040745  1
  Zn  Zn102  1  0.31792719  0.56524338  0.06586997  1
  Zn  Zn103  1  0.29742880  0.54634650  0.57289807  1
  Zn  Zn104  1  0.81548582  0.05956066  0.06485335  1
  Zn  Zn105  1  0.96924013  0.09867877  0.58744936  1
  Zn  Zn106  1  0.81247689  0.56387168  0.05929102  1
  Zn  Zn107  1  0.80181407  0.55448008  0.55825668  1
  Zn  Zn108  1  0.43890446  0.44174961  0.18730206  1
  Zn  Zn109  1  0.43897535  0.42752241  0.68691199  1
  Zn  Zn110  1  0.44387913  0.94181018  0.19565679  1
  Zn  Zn111  1  0.45295577  0.96912749  0.70263940  1
  Zn  Zn112  1  0.93094029  0.44334802  0.17994543  1
  Zn  Zn113  1  0.97584056  0.41383471  0.67027053  1
  Zn  Zn114  1  0.93426891  0.95017154  0.19506845  1
  Zn  Zn115  1  0.92339431  0.95662121  0.68331809  1
  Zn  Zn116  1  0.06221151  0.06324926  0.30951840  1
  Zn  Zn117  1  0.04532264  0.03759221  0.77906135  1
  Zn  Zn118  1  0.06111374  0.55594071  0.30731305  1
  Zn  Zn119  1  0.05096631  0.57640271  0.82357439  1
  Zn  Zn120  1  0.57201369  0.06311250  0.29698974  1
  Zn  Zn121  1  0.56960846  0.06927098  0.81164106  1
  Zn  Zn122  1  0.55456255  0.56047700  0.31507887  1
  Zn  Zn123  1  0.55403970  0.57693939  0.81550770  1
  Zn  Zn124  1  0.42795339  0.18160805  0.44223226  1
  Zn  Zn125  1  0.41972337  0.18400549  0.92820645  1
  Zn  Zn126  1  0.41188392  0.67478200  0.50065007  1
  Zn  Zn127  1  0.44059102  0.73138029  0.82393878  1
  Zn  Zn128  1  1.00144886  0.17409822  0.41487492  1
  Zn  Zn129  1  0.93464790  0.17366885  0.95189204  1
  Zn  Zn130  1  0.93891745  0.67642251  0.43696750  1
  Zn  Zn131  1  0.93306004  0.68813391  0.93944951  1
  Zn  Zn132  1  0.08715228  0.31656929  0.04261179  1
  Zn  Zn133  1  0.06233140  0.28013225  0.56705890  1
  Zn  Zn134  1  0.05463432  0.80955544  0.05796468  1
  Zn  Zn135  1  -0.00360977  0.83563373  0.58711784  1
  Zn  Zn136  1  0.56102246  0.31983445  0.06911303  1
  Zn  Zn137  1  0.56900864  0.31898402  0.57914349  1
  Zn  Zn138  1  0.55075540  0.80786036  0.05280428  1
  Zn  Zn139  1  0.61525298  0.83448898  0.53903532  1
  O  O140  1  0.09314703  0.16148263  0.11194831  1
  O  O141  1  0.13398375  0.11462739  0.61037096  1
  O  O142  1  0.11341105  0.62591351  0.11726965  1
  O  O143  1  0.12791606  0.61838962  0.62429179  1
  O  O144  1  0.61459806  0.11878804  0.12078716  1
  O  O145  1  0.62289529  0.14847405  0.62157007  1
  O  O146  1  0.61500435  0.63311993  0.11414281  1
  O  O147  1  0.62046931  0.61189370  0.62222251  1
  O  O148  1  0.37027482  0.37179879  0.39535730  1
  O  O149  1  0.36903843  0.39336464  0.89125872  1
  O  O150  1  0.35417516  0.89033065  0.31515163  1
  O  O151  1  0.37718518  0.83024159  0.88330118  1
  O  O152  1  0.88571254  0.39299154  0.35254982  1
  O  O153  1  0.86526918  0.39686226  0.87678775  1
  O  O154  1  0.88328576  0.86003612  0.36565076  1
  O  O155  1  0.88430633  0.86781102  0.88363807  1
  O  O156  1  0.23263414  -0.00229865  0.34469680  1
  O  O157  1  0.24660628  0.03744418  0.86637802  1
  O  O158  1  0.24091754  0.50716646  0.35843646  1
  O  O159  1  0.26043675  0.51355580  0.87357923  1
  O  O160  1  0.79603741  0.00207492  0.39858510  1
  O  O161  1  0.74130494  0.01910149  0.89017138  1
  O  O162  1  0.76053729  0.49552648  0.38833536  1
  O  O163  1  0.76237463  0.51624021  0.89221298  1
  O  O164  1  0.24799891  0.49492125  0.13113149  1
  O  O165  1  0.24067147  0.47859931  0.63966611  1
  O  O166  1  0.26802618  0.97455223  0.16131352  1
  O  O167  1  0.23069839  0.97425382  0.61408789  1
  O  O168  1  0.74763687  0.48600065  0.11179240  1
  O  O169  1  0.72873656  0.49828262  0.63219637  1
  O  O170  1  0.72812025  1.00197858  0.11334846  1
  O  O171  1  0.74881231  1.02059249  0.63530598  1
  O  O172  1  0.00934627  0.38465894  0.24541231  1
  O  O173  1  0.03209618  0.37993604  0.77129024  1
  O  O174  1  -0.00413817  0.85934429  0.25006309  1
  O  O175  1  -0.01142093  0.85548135  0.76046872  1
  O  O176  1  0.50598043  0.36501163  0.23956878  1
  O  O177  1  0.51567534  0.36110439  0.74834062  1
  O  O178  1  0.50974851  0.85949882  0.24657387  1
  O  O179  1  0.51624220  0.89332458  0.76593428  1
  O  O180  1  0.49850748  0.13609699  0.24169994  1
  O  O181  1  0.51594551  0.14552481  0.74144075  1
  O  O182  1  0.49340831  0.63244925  0.24562312  1
  O  O183  1  0.49721583  0.65257167  0.75665263  1
  O  O184  1  1.00004601  0.13668949  0.24611972  1
  O  O185  1  1.00131952  0.15466526  0.79032885  1
  O  O186  1  0.99243481  0.62610381  0.23875763  1
  O  O187  1  1.00087297  0.61702001  0.73050406  1
  O  O188  1  0.38070156  0.27371779  0.00747781  1
  O  O189  1  0.38436419  0.26525710  0.51471531  1
  O  O190  1  0.36291872  0.74450376  0.01862439  1
  O  O191  1  0.34466550  0.75941869  0.46879810  1
  O  O192  1  0.86255865  0.24909541  -0.00382017  1
  O  O193  1  0.79165982  0.21134869  0.48056061  1
  O  O194  1  0.86363884  0.75859894  0.00179047  1
  O  O195  1  0.86493851  0.73691459  0.50377578  1
  O  O196  1  0.15416218  0.23674577  0.50224391  1
  O  O197  1  0.16321555  0.26170789  0.97784745  1
  O  O198  1  0.13504066  0.74994223  0.47856717  1
  O  O199  1  0.11421826  0.73672129  0.98910522  1
  O  O200  1  0.64320314  0.31141232  0.49572096  1
  O  O201  1  0.61917960  0.24527795  0.99807088  1
  O  O202  1  0.60629460  0.72677362  0.50483167  1
  O  O203  1  0.63670020  0.74656090  0.99535605  1
  O  O204  1  0.50245433  0.23999872  0.13405502  1
  O  O205  1  0.49784470  0.24982119  0.63721114  1
  O  O206  1  0.48844088  0.73940176  0.12494839  1
  O  O207  1  0.47100677  0.78575200  0.59629046  1
  O  O208  1  1.04150012  0.21556411  0.09436785  1
  O  O209  1  0.96969863  0.30208997  0.63465391  1
  O  O210  1  0.99503850  0.73757541  0.13144648  1
  O  O211  1  1.01041399  0.72514781  0.62864464  1
  O  O212  1  -0.01146355  0.27553188  0.36600508  1
  O  O213  1  0.00808801  0.20099178  0.84917955  1
  O  O214  1  0.00255333  0.74529436  0.36518949  1
  O  O215  1  0.00306832  0.74641079  0.86593491  1
  O  O216  1  0.49420942  0.24534692  0.36102612  1
  O  O217  1  0.50453491  0.24534082  0.86671171  1
  O  O218  1  0.48641733  0.74892981  0.36189920  1
  O  O219  1  0.52618367  0.75306184  0.89326300  1
  O  O220  1  0.24906977  0.10670165  0.49987868  1
  O  O221  1  0.25642957  0.13706969  1.02842699  1
  O  O222  1  0.24512301  0.60777237  0.48081100  1
  O  O223  1  0.23437656  0.61651235  1.00091202  1
  O  O224  1  0.74582168  0.16099802  0.50342421  1
  O  O225  1  0.73808642  0.13746228  0.99890601  1
  O  O226  1  0.73167646  0.63120513  0.50304855  1
  O  O227  1  0.74358213  0.63575214  0.99928458  1
  O  O228  1  0.26373367  0.38464284  0.00650900  1
  O  O229  1  0.26720336  0.38411973  0.51968101  1
  O  O230  1  0.25496619  0.87168397  -0.00920852  1
  O  O231  1  0.23551468  0.87426202  0.47917171  1
  O  O232  1  0.74314550  0.36079331  0.01337496  1
  O  O233  1  0.77277097  0.39001655  0.53272830  1
  O  O234  1  0.75978167  0.86447508  -0.00053077  1
  O  O235  1  0.72540406  0.84803226  0.50308710  1
  O  O236  1  0.13375926  0.49215634  0.24092678  1
  O  O237  1  0.09324105  0.42029090  0.80166314  1
  O  O238  1  0.10077401  0.97902828  0.24330958  1
  O  O239  1  0.14719399  1.01373154  0.73614063  1
  O  O240  1  0.60981837  0.49109017  0.24167601  1
  O  O241  1  0.60850937  0.49405394  0.74865200  1
  O  O242  1  0.61533834  0.97809002  0.23311774  1
  O  O243  1  0.63554600  0.99110327  0.76130402  1
  O  O244  1  0.37981724  0.02373734  0.25390368  1
  O  O245  1  0.34920196  -0.04179686  0.73746526  1
  O  O246  1  0.36505681  0.50910319  0.24564059  1
  O  O247  1  0.38672460  0.49415839  0.76657260  1
  O  O248  1  0.87696277  0.02851674  0.25339133  1
  O  O249  1  0.84860804  -0.00024456  0.76014098  1
  O  O250  1  0.87705531  0.51391551  0.25900160  1
  O  O251  1  0.88336176  0.51860871  0.77263355  1
  O  O252  1  0.10471501  0.38706396  0.35466732  1
  O  O253  1  0.12588382  0.37984615  0.86425154  1
  O  O254  1  0.10312679  0.86394688  0.35936463  1
  O  O255  1  0.10235786  0.85527167  0.88416668  1
  O  O256  1  0.62708674  0.38380848  0.35479295  1
  O  O257  1  0.62466597  0.37183885  0.87470377  1
  O  O258  1  0.63140254  0.88071925  0.36245238  1
  O  O259  1  0.63633961  0.86614286  0.87527636  1
  O  O260  1  0.38896608  0.12683506  0.13464551  1
  O  O261  1  0.39181885  0.14486735  0.61518748  1
  O  O262  1  0.37881055  0.63566164  0.13633714  1
  O  O263  1  0.36137256  0.63394943  0.59475824  1
  O  O264  1  0.88623450  0.12288762  0.12284081  1
  O  O265  1  0.88594822  0.16120724  0.64343725  1
  O  O266  1  0.87885945  0.61715920  0.13723057  1
  O  O267  1  0.86920816  0.60640405  0.63734398  1
  O  O268  1  0.25287268  0.26902395  0.10966801  1
  O  O269  1  0.27006565  0.24950520  0.63478027  1
  O  O270  1  0.26100770  0.75991575  0.13746206  1
  O  O271  1  0.23885261  0.76506990  0.60066784  1
  O  O272  1  0.74763709  0.24817842  0.11296566  1
  O  O273  1  0.77107574  0.27499822  0.64708219  1
  O  O274  1  0.74617036  0.74663497  0.11198127  1
  O  O275  1  0.74334775  0.74281526  0.61196843  1
  O  O276  1  0.22971597  0.29581411  0.37976172  1
  O  O277  1  0.30363804  0.22440112  0.89818806  1
  O  O278  1  0.23468562  0.73162365  0.36995890  1
  O  O279  1  0.24146637  0.73469142  0.88695613  1
  O  O280  1  0.70871410  0.15791996  0.35005858  1
  O  O281  1  0.73583940  0.24467163  0.89195327  1
  O  O282  1  0.75064851  0.73765119  0.39462961  1
  O  O283  1  0.74081179  0.73808170  0.89010710  1
  O  O284  1  0.00175507  0.09162925  -0.01794685  1
  O  O285  1  0.01994858  0.17861522  0.52614509  1
  O  O286  1  0.00410260  0.62227225  0.00753054  1
  O  O287  1  0.00833403  0.61199995  0.50886089  1
  O  O288  1  0.50079488  0.12860125  0.01471112  1
  O  O289  1  0.51165790  0.14732317  0.51050063  1
  O  O290  1  0.50959937  0.62203210  0.00845587  1
  O  O291  1  0.50531967  0.60712511  0.50181483  1
  O  O292  1  0.49169418  0.38204632  0.50544969  1
  O  O293  1  0.48965034  0.39144494  1.01144413  1
  O  O294  1  0.50546180  0.86414405  0.47922267  1
  O  O295  1  0.49865664  0.89572635  0.99746162  1
  O  O296  1  1.00181257  0.38643603  0.48028408  1
  O  O297  1  1.00571093  0.38899878  1.00520556  1
  O  O298  1  0.99616287  0.85731225  0.47671201  1
  O  O299  1  0.98465535  0.87429405  0.99089279  1
  O  O300  1  0.49857773  0.49530300  0.39302308  1
  O  O301  1  0.48483620  0.51391769  0.88778550  1
  O  O302  1  0.50664164  1.03034511  0.38856475  1
  O  O303  1  0.48588442  1.03077727  0.89367120  1
  O  O304  1  0.99234296  0.50144194  0.38421377  1
  O  O305  1  0.98814586  0.50909934  0.88962705  1
  O  O306  1  0.98565776  0.97880402  0.36889488  1
  O  O307  1  0.99614181  0.97730423  0.86739722  1
  O  O308  1  0.00212620  -0.01341139  0.10607786  1
  O  O309  1  0.00959110  0.02671703  0.66792720  1
  O  O310  1  -0.00237403  0.51013667  0.11114251  1
  O  O311  1  0.00979101  0.50350609  0.60682522  1
  O  O312  1  0.50552285  0.01150539  0.11777579  1
  O  O313  1  0.50588556  0.03242482  0.62897135  1
  O  O314  1  0.49089962  0.51830854  0.11545489  1
  O  O315  1  0.51190407  0.49085592  0.62124366  1
  O  O316  1  0.24752680  0.38291120  0.23766625  1
  O  O317  1  0.24942336  0.35929436  0.74443429  1
  O  O318  1  0.21772632  0.86846892  0.25567979  1
  O  O319  1  0.23032269  0.89840285  0.80381637  1
  O  O320  1  0.73214121  0.37387529  0.23997072  1
  O  O321  1  0.72968310  0.38213496  0.76013696  1
  O  O322  1  0.72962302  0.85367760  0.24339869  1
  O  O323  1  0.73542100  0.89161678  0.73137073  1
  O  O324  1  0.26461801  0.13770511  0.23664877  1
  O  O325  1  0.27783614  0.09455160  0.71616789  1
  O  O326  1  0.25317073  0.61580152  0.24701817  1
  O  O327  1  0.24355034  0.62842506  0.75957969  1
  O  O328  1  0.68609387  0.12009754  0.28925870  1
  O  O329  1  0.73255031  0.11874525  0.77029374  1
  O  O330  1  0.75819825  0.62819943  0.25086893  1
  O  O331  1  0.75925290  0.63159719  0.75846533  1
  O  O332  1  0.36333218  0.13558437  0.36372427  1
  O  O333  1  0.42142147  0.08078522  0.87307705  1
  O  O334  1  0.35313131  0.63003908  0.36007473  1
  O  O335  1  0.35940230  0.61874414  0.87218066  1
  O  O336  1  0.90293210  0.12630665  0.38008002  1
  O  O337  1  0.85240900  0.12460377  0.88372147  1
  O  O338  1  0.87109541  0.61149229  0.36453401  1
  O  O339  1  0.86526954  0.62320148  0.87403253  1
  O  O340  1  0.13548692  0.38037093  0.12901732  1
  O  O341  1  0.14082448  0.34967689  0.62299515  1
  O  O342  1  0.12020515  0.85934229  0.13534116  1
  O  O343  1  0.09048286  0.89550339  0.62035578  1
  O  O344  1  0.63627869  0.37065515  0.13582537  1
  O  O345  1  0.63743014  0.38633640  0.64710510  1
  O  O346  1  0.61868332  0.88452010  0.11279346  1
  O  O347  1  0.60450020  0.87551376  0.64135368  1
  O  O348  1  0.12617473  0.27025719  0.24379467  1
  O  O349  1  0.16059915  0.21946773  0.79125440  1
  O  O350  1  0.10684927  0.75077973  0.25493657  1
  O  O351  1  0.11201407  0.73932127  0.76072413  1
  O  O352  1  0.60792268  0.25859639  0.25218489  1
  O  O353  1  0.62216532  0.26347649  0.76669467  1
  O  O354  1  0.60982466  0.75356510  0.25211641  1
  O  O355  1  0.63178506  0.76688842  0.76399319  1
  O  O356  1  0.38778095  0.24446824  0.24874149  1
  O  O357  1  0.39319414  0.25579002  0.74459955  1
  O  O358  1  0.38532035  0.74065154  0.24296538  1
  O  O359  1  0.36404830  0.74844574  0.74228135  1
  O  O360  1  0.84038096  0.20866991  0.25524810  1
  O  O361  1  0.87981168  0.25761512  0.77001416  1
  O  O362  1  0.88201765  0.72891456  0.25692270  1
  O  O363  1  0.89364548  0.72284585  0.74639747  1
  O  O364  1  0.38794556  0.48779264  0.51149276  1
  O  O365  1  0.38338218  0.50061553  0.99380720  1
  O  O366  1  0.45167019  0.90490936  0.51060640  1
  O  O367  1  0.38230023  1.00363119  1.01571386  1
  O  O368  1  0.88231075  0.50600962  0.48556544  1
  O  O369  1  0.88761704  0.50481841  0.99374754  1
  O  O370  1  0.91253260  1.03125372  0.50842348  1
  O  O371  1  0.87401241  0.98297029  0.99322959  1
  O  O372  1  0.11699986  -0.02263336  -0.00741018  1
  O  O373  1  0.11183273  0.01241594  0.51277300  1
  O  O374  1  0.11050434  0.50976088  -0.00268467  1
  O  O375  1  0.12038991  0.48566242  0.48448358  1
  O  O376  1  0.61006127  0.01222520  0.00694032  1
  O  O377  1  0.55761619  0.01019112  0.44707400  1
  O  O378  1  0.61421873  0.51360537  -0.00804122  1
  O  O379  1  0.61397091  0.50054631  0.51488312  1
  O  O380  1  0.36642227  0.38904929  0.11355031  1
  O  O381  1  0.36847224  0.36373723  0.62486733  1
  O  O382  1  0.38384314  0.85893460  0.13349921  1
  O  O383  1  0.42878976  0.84625636  0.60472668  1
  O  O384  1  0.85089654  0.36806890  0.15252453  1
  O  O385  1  0.85810124  0.40105074  0.66509220  1
  O  O386  1  0.87706666  0.87921899  0.11508767  1
  O  O387  1  0.89410659  0.87070393  0.62256928  1
  O  O388  1  0.10639732  0.11925332  0.39800009  1
  O  O389  1  0.14829430  0.17106575  0.84631677  1
  O  O390  1  0.13146054  0.62939680  0.36336339  1
  O  O391  1  0.13406227  0.62840267  0.88066275  1
  O  O392  1  0.63320873  0.02985125  0.43087583  1
  O  O393  1  0.62718328  0.13749061  0.89067280  1
  O  O394  1  0.62284187  0.61233457  0.39107615  1
  O  O395  1  0.63366418  0.63332075  0.88385273  1
