# generated using pymatgen
data_V35Zn35O128
_symmetry_space_group_name_H-M   'P 1'
_cell_length_a   16.86158444
_cell_length_b   16.85314827
_cell_length_c   16.86304319
_cell_angle_alpha   89.85232265
_cell_angle_beta   90.02414657
_cell_angle_gamma   90.11171509
_symmetry_Int_Tables_number   1
_chemical_formula_structural   V35Zn35O128
_chemical_formula_sum   'V70 Zn70 O256'
_cell_volume   4791.95873897
_cell_formula_units_Z   2
loop_
 _symmetry_equiv_pos_site_id
 _symmetry_equiv_pos_as_xyz
  1  'x, y, z'
loop_
 _atom_site_type_symbol
 _atom_site_label
 _atom_site_symmetry_multiplicity
 _atom_site_fract_x
 _atom_site_fract_y
 _atom_site_fract_z
 _atom_site_occupancy
  V  V0  1  0.00736513  0.49512422  0.50870154  1
  V  V1  1  0.75431696  -0.00803631  0.23866306  1
  V  V2  1  0.24934144  0.63728590  0.37221989  1
  V  V3  1  0.12706161  0.49795899  0.12458977  1
  V  V4  1  -0.00971200  0.12704393  0.63666859  1
  V  V5  1  0.37314469  0.12232921  0.73679367  1
  V  V6  1  -0.01492360  0.13148248  0.14122207  1
  V  V7  1  0.50128765  0.10315200  0.12296303  1
  V  V8  1  0.49278401  0.65899496  0.65074715  1
  V  V9  1  0.62126063  0.77087823  0.38043953  1
  V  V10  1  0.62152635  0.01330320  0.62762161  1
  V  V11  1  0.48750313  0.24308820  0.23066691  1
  V  V12  1  0.61066962  0.74706903  0.87449838  1
  V  V13  1  0.87052580  0.76584371  0.12421183  1
  V  V14  1  -0.00100750  0.37814505  0.89306679  1
  V  V15  1  0.49543937  -0.00152785  0.48768896  1
  V  V16  1  0.12085112  0.63689603  0.49694830  1
  V  V17  1  0.74888977  0.88139746  0.62749868  1
  V  V18  1  0.12180398  0.14791458  0.49870188  1
  V  V19  1  0.00235233  0.75038253  0.25697806  1
  V  V20  1  0.73467107  0.61282977  0.37627887  1
  V  V21  1  0.51235617  0.61323595  0.11616225  1
  V  V22  1  0.63939289  0.36751243  0.25981836  1
  V  V23  1  0.86352664  0.64100066  0.73840156  1
  V  V24  1  0.88799876  0.85334266  0.51029188  1
  V  V25  1  0.25048228  0.48836476  0.25935295  1
  V  V26  1  0.01204387  0.00250269  0.50660714  1
  V  V27  1  0.87265587  -0.00482167  0.37796111  1
  V  V28  1  0.61046525  0.87269178  0.75112569  1
  V  V29  1  0.25046876  0.37253584  0.12545827  1
  V  V30  1  -0.00197348  0.26333745  0.75026971  1
  V  V31  1  0.38222307  0.38634295  0.00611203  1
  V  V32  1  0.75200992  0.23036912  0.00398840  1
  V  V33  1  0.26477597  0.24236476  0.00978843  1
  V  V34  1  0.37782988  0.62030743  0.25214684  1
  V  V35  1  0.47264983  0.35359338  0.37176004  1
  V  V36  1  -0.01275867  0.50605746  0.00011140  1
  V  V37  1  0.36097268  0.50884310  0.86433376  1
  V  V38  1  0.12115797  0.89496347  0.73736916  1
  V  V39  1  0.25031565  0.12476184  0.38000417  1
  V  V40  1  0.11925683  0.12970650  0.00228924  1
  V  V41  1  -0.00581412  -0.00417275  -0.00631950  1
  V  V42  1  0.62803098  0.23110039  0.87767012  1
  V  V43  1  0.36364643  0.75869951  0.12268843  1
  V  V44  1  0.75213429  0.62208751  0.88447109  1
  V  V45  1  0.68356345  0.44032993  0.69597880  1
  V  V46  1  0.48010443  0.49126495  0.48464107  1
  V  V47  1  0.00656621  0.87544749  0.37126011  1
  V  V48  1  0.25848016  0.89295852  0.62043336  1
  V  V49  1  0.75581017  0.13305723  0.36530355  1
  V  V50  1  0.49592124  0.25253276  0.74086757  1
  V  V51  1  0.05024188  0.32415568  0.29826922  1
  V  V52  1  0.36254038  0.87805891  -0.02145982  1
  V  V53  1  0.13663975  0.87707156  0.24680172  1
  V  V54  1  0.26096002  0.11270526  0.87491295  1
  V  V55  1  0.77683100  0.37459231  0.11473931  1
  V  V56  1  0.14316390  0.63474675  -0.00097858  1
  V  V57  1  0.50503441  0.74902517  0.25057887  1
  V  V58  1  0.12092423  0.75067695  0.85450640  1
  V  V59  1  0.50364439  -0.00921799  -0.02064423  1
  V  V60  1  0.76625822  0.24770979  0.52483888  1
  V  V61  1  0.87122441  0.62183365  0.25183941  1
  V  V62  1  0.88417373  0.49883400  0.38310496  1
  V  V63  1  0.62950506  0.87575467  0.22954850  1
  V  V64  1  0.14015734  -0.00200757  0.12769927  1
  V  V65  1  0.62354189  0.13774864  0.49720019  1
  V  V66  1  0.27098349  0.75732791  0.50154979  1
  V  V67  1  0.73938732  0.74162550  0.50874377  1
  V  V68  1  0.50854858  0.38357987  0.87680677  1
  V  V69  1  0.14429905  0.49905609  0.63592285  1
  Zn  Zn70  1  0.88302464  0.87543718  -0.02474494  1
  Zn  Zn71  1  0.88241221  0.36097500  0.52627334  1
  Zn  Zn72  1  0.74247247  0.75762159  0.00526600  1
  Zn  Zn73  1  0.13465345  0.26161988  0.86876942  1
  Zn  Zn74  1  0.00051784  0.62934068  0.12310861  1
  Zn  Zn75  1  0.63731953  0.56084287  0.55085275  1
  Zn  Zn76  1  0.17846628  0.18912433  0.19268440  1
  Zn  Zn77  1  0.17858957  0.17759877  0.69059263  1
  Zn  Zn78  1  0.18308808  0.68624816  0.18741508  1
  Zn  Zn79  1  0.18611169  0.69387584  0.67231233  1
  Zn  Zn80  1  0.68152700  0.18552342  0.17923013  1
  Zn  Zn81  1  0.65896455  0.24096368  0.66598664  1
  Zn  Zn82  1  0.68981757  0.68481757  0.18927080  1
  Zn  Zn83  1  0.67807118  0.68009942  0.69527641  1
  Zn  Zn84  1  0.29999694  0.28100641  0.30411546  1
  Zn  Zn85  1  0.33283596  0.29417244  0.83934137  1
  Zn  Zn86  1  0.31747009  0.81064462  0.30950859  1
  Zn  Zn87  1  0.28691903  0.81996448  0.81613904  1
  Zn  Zn88  1  0.82901157  0.31844205  0.29919534  1
  Zn  Zn89  1  0.81275859  0.32156358  0.81139120  1
  Zn  Zn90  1  0.81111047  0.80924393  0.31842362  1
  Zn  Zn91  1  0.80175185  0.80361379  0.80876858  1
  Zn  Zn92  1  0.17765598  0.43056600  0.43157077  1
  Zn  Zn93  1  0.18516697  0.43847435  0.93955301  1
  Zn  Zn94  1  0.19418478  0.94229380  0.43450495  1
  Zn  Zn95  1  0.17918074  0.93130337  0.93299173  1
  Zn  Zn96  1  0.69125837  0.42155726  0.44051684  1
  Zn  Zn97  1  0.69914794  0.42712816  0.94255999  1
  Zn  Zn98  1  0.68996206  0.94208984  0.44539425  1
  Zn  Zn99  1  0.67619216  0.91177060  0.95780695  1
  Zn  Zn100  1  0.32631252  0.05658065  0.06717674  1
  Zn  Zn101  1  0.31259954  0.07627270  0.55430188  1
  Zn  Zn102  1  0.31987921  0.56412482  0.06855695  1
  Zn  Zn103  1  0.32237503  0.56232142  0.55956723  1
  Zn  Zn104  1  0.81350923  0.06507169  0.05762032  1
  Zn  Zn105  1  0.81478882  0.05848813  0.55627724  1
  Zn  Zn106  1  0.80183646  0.56867099  0.06311793  1
  Zn  Zn107  1  0.83017630  0.51946056  0.59531730  1
  Zn  Zn108  1  0.44003294  0.43358935  0.19352387  1
  Zn  Zn109  1  0.42929677  0.43753999  0.68794273  1
  Zn  Zn110  1  0.43865859  0.93366837  0.19452104  1
  Zn  Zn111  1  0.43600327  0.94364306  0.67897088  1
  Zn  Zn112  1  0.93326489  0.44337025  0.18369711  1
  Zn  Zn113  1  0.95195603  0.44893402  0.69214644  1
  Zn  Zn114  1  0.94460682  0.94839612  0.18521460  1
  Zn  Zn115  1  0.94033829  0.92598322  0.68752155  1
  Zn  Zn116  1  0.06874000  0.06434816  0.31593534  1
  Zn  Zn117  1  0.06815209  0.06737515  0.81531360  1
  Zn  Zn118  1  0.06490473  0.55695102  0.31260210  1
  Zn  Zn119  1  0.07223034  0.56199933  0.82129285  1
  Zn  Zn120  1  0.57819047  0.06543833  0.30484118  1
  Zn  Zn121  1  0.55671287  0.06464138  0.80454234  1
  Zn  Zn122  1  0.55708561  0.53934397  0.30364424  1
  Zn  Zn123  1  0.55536921  0.56617410  0.81319692  1
  Zn  Zn124  1  0.45871142  0.14880084  0.39389045  1
  Zn  Zn125  1  0.44736855  0.18064559  0.94064299  1
  Zn  Zn126  1  0.44426288  0.67521983  0.43941740  1
  Zn  Zn127  1  0.43137008  0.68826624  0.94099264  1
  Zn  Zn128  1  0.93556600  0.18190904  0.43336588  1
  Zn  Zn129  1  0.91081613  0.21265185  0.89466786  1
  Zn  Zn130  1  0.93408132  0.68663990  0.44247656  1
  Zn  Zn131  1  0.94183716  0.68792550  0.93240169  1
  Zn  Zn132  1  0.05885976  0.31109120  0.07086269  1
  Zn  Zn133  1  0.06565873  0.31918821  0.57796237  1
  Zn  Zn134  1  0.05864730  0.81291517  0.06570820  1
  Zn  Zn135  1  0.06633140  0.81428737  0.56229127  1
  Zn  Zn136  1  0.56309354  0.29733597  0.05962954  1
  Zn  Zn137  1  0.55908818  0.36603371  0.56621560  1
  Zn  Zn138  1  0.54786333  0.80943476  0.05740145  1
  Zn  Zn139  1  0.55120905  0.82368983  0.56217477  1
  O  O140  1  0.12784807  0.11386116  0.11873277  1
  O  O141  1  0.10613312  0.13036246  0.61030678  1
  O  O142  1  0.12222072  0.61450225  0.12027867  1
  O  O143  1  0.13573975  0.61795866  0.60067231  1
  O  O144  1  0.60420772  0.12035518  0.12884362  1
  O  O145  1  0.63682838  0.11817488  0.61505537  1
  O  O146  1  0.61272294  0.62594999  0.13397105  1
  O  O147  1  0.59619194  0.63493617  0.62557232  1
  O  O148  1  0.37379710  0.35575818  0.36322745  1
  O  O149  1  0.38029561  0.38314174  0.89026673  1
  O  O150  1  0.37777782  0.90646625  0.34903962  1
  O  O151  1  0.37039686  0.86363921  0.87895621  1
  O  O152  1  0.86540478  0.39969033  0.37717176  1
  O  O153  1  0.89884949  0.37389461  0.87506321  1
  O  O154  1  0.88466351  0.87382582  0.38883025  1
  O  O155  1  0.88652589  0.88119055  0.84840492  1
  O  O156  1  0.24575594  0.02399177  0.37234680  1
  O  O157  1  0.24630048  0.01472838  0.88083664  1
  O  O158  1  0.24606664  0.50125210  0.36134195  1
  O  O159  1  0.26131164  0.49359009  0.87729918  1
  O  O160  1  0.75896455  0.00247677  0.37362248  1
  O  O161  1  0.85769468  -0.04034550  0.83318984  1
  O  O162  1  0.76088240  0.51229643  0.39258427  1
  O  O163  1  0.73473322  0.52167444  0.89179721  1
  O  O164  1  0.24585505  0.49201221  0.13196442  1
  O  O165  1  0.24431719  0.50582774  0.61784782  1
  O  O166  1  0.23913517  1.00194447  0.12422326  1
  O  O167  1  0.24788809  0.99139487  0.60635917  1
  O  O168  1  0.76760536  0.47604799  0.11905245  1
  O  O169  1  0.71951651  0.50906027  0.62322345  1
  O  O170  1  0.76068172  0.99784804  0.14076895  1
  O  O171  1  0.73708975  0.98868533  0.61200837  1
  O  O172  1  0.02072114  0.40304971  0.24099452  1
  O  O173  1  0.00272929  0.36624596  0.75582183  1
  O  O174  1  0.00347051  0.87050124  0.25709943  1
  O  O175  1  0.02386708  0.86461988  0.72671702  1
  O  O176  1  0.50428038  0.36110521  0.25585537  1
  O  O177  1  0.48714247  0.36294479  0.77040360  1
  O  O178  1  0.51834929  0.86111915  0.24745846  1
  O  O179  1  0.51206438  0.88317597  0.74237216  1
  O  O180  1  0.50635291  0.13626519  0.24544577  1
  O  O181  1  0.48671898  0.13958471  0.74940171  1
  O  O182  1  0.49321784  0.62737116  0.25011320  1
  O  O183  1  0.49136896  0.63873110  0.75018006  1
  O  O184  1  1.00426803  0.11875652  0.24040854  1
  O  O185  1  0.99741003  0.11898709  0.73830566  1
  O  O186  1  0.99158994  0.63462674  0.25753369  1
  O  O187  1  0.97040666  0.60086935  0.76209189  1
  O  O188  1  0.36685603  0.25423309  -0.00116001  1
  O  O189  1  0.27360336  0.29570778  0.47142090  1
  O  O190  1  0.37931887  0.76446423  0.01554552  1
  O  O191  1  0.36979960  0.75283285  0.48243089  1
  O  O192  1  0.85351843  0.22237884  -0.01402571  1
  O  O193  1  0.87108702  0.24578102  0.50297477  1
  O  O194  1  0.88796498  0.75295592  0.02020676  1
  O  O195  1  0.84071779  0.74580884  0.48118978  1
  O  O196  1  0.10661612  0.24667262  0.50076000  1
  O  O197  1  0.13609164  0.23534715  1.00824916  1
  O  O198  1  0.13402729  0.73939885  0.49794256  1
  O  O199  1  0.12479631  0.73332513  1.01978281  1
  O  O200  1  0.64904393  0.23836037  0.51081796  1
  O  O201  1  0.63362456  0.24925305  0.98503767  1
  O  O202  1  0.62604402  0.76179137  0.48753136  1
  O  O203  1  0.62583356  0.77657235  0.97958470  1
  O  O204  1  0.49336646  0.23667132  0.12368907  1
  O  O205  1  0.50759841  0.26704293  0.64367465  1
  O  O206  1  0.49488909  0.73947332  0.13792704  1
  O  O207  1  0.48807658  0.75892903  0.62818325  1
  O  O208  1  1.00133159  0.23045379  0.12154194  1
  O  O209  1  0.99365805  0.24412068  0.64194811  1
  O  O210  1  0.98836736  0.74794918  0.14085922  1
  O  O211  1  0.95439073  0.78323890  0.55350105  1
  O  O212  1  -0.02366980  0.26894747  0.36717498  1
  O  O213  1  0.01161726  0.26399289  0.87696775  1
  O  O214  1  -0.00483045  0.76276610  0.36891645  1
  O  O215  1  0.02308668  0.75482335  0.89036499  1
  O  O216  1  0.50022427  0.24888546  0.35064086  1
  O  O217  1  0.51140012  0.25667507  0.87928574  1
  O  O218  1  0.51736372  0.73903533  0.36617879  1
  O  O219  1  0.51066191  0.74719563  0.87825647  1
  O  O220  1  0.22751720  0.13322772  0.49950878  1
  O  O221  1  0.25252982  0.13190391  0.99985539  1
  O  O222  1  0.25212778  0.63552507  0.48489508  1
  O  O223  1  0.24234748  0.62317740  1.00802084  1
  O  O224  1  0.75412344  0.13521319  0.48829666  1
  O  O225  1  0.73326049  0.13006410  1.01013626  1
  O  O226  1  0.72649625  0.63535965  0.48990173  1
  O  O227  1  0.75008080  0.63990398  0.99232519  1
  O  O228  1  0.26143907  0.36284693  0.00633561  1
  O  O229  1  0.25098145  0.36543283  0.49808577  1
  O  O230  1  0.26227084  0.88051622  -0.00384962  1
  O  O231  1  0.24610345  0.86372209  0.50160104  1
  O  O232  1  0.76323908  0.35854436  0.00829817  1
  O  O233  1  0.75973439  0.34972843  0.49958756  1
  O  O234  1  0.77183748  0.86814056  -0.01495618  1
  O  O235  1  0.75631059  0.86269262  0.50769797  1
  O  O236  1  0.14284303  0.50948994  0.23902605  1
  O  O237  1  0.13000214  0.52287659  0.73341264  1
  O  O238  1  0.12289104  0.99083945  0.23823993  1
  O  O239  1  0.12082987  0.99515306  0.74267867  1
  O  O240  1  0.62170024  0.46693004  0.24245033  1
  O  O241  1  0.61147697  0.49034804  0.74571535  1
  O  O242  1  0.63765945  0.98282217  0.25058050  1
  O  O243  1  0.62246762  0.99761130  0.73315279  1
  O  O244  1  0.38117876  -0.03638981  0.29645953  1
  O  O245  1  0.38365513  0.02228641  0.74410011  1
  O  O246  1  0.35898615  0.50928748  0.24234030  1
  O  O247  1  0.37370605  0.49774593  0.76368971  1
  O  O248  1  0.86239331  -0.01625712  0.26383587  1
  O  O249  1  0.88803077  -0.00683923  0.76919534  1
  O  O250  1  0.88301809  0.51556884  0.26499186  1
  O  O251  1  0.91537599  0.53441036  0.76629765  1
  O  O252  1  0.10553304  0.37058208  0.37009508  1
  O  O253  1  0.11193712  0.37490670  0.88132660  1
  O  O254  1  0.11645010  0.88777758  0.35927742  1
  O  O255  1  0.13018353  0.86841978  0.84640330  1
  O  O256  1  0.64409432  0.35444803  0.35912145  1
  O  O257  1  0.60979398  0.37811965  0.88402028  1
  O  O258  1  0.62685474  0.87076146  0.37103490  1
  O  O259  1  0.63130219  0.87568983  0.85325942  1
  O  O260  1  0.39469308  0.11284298  0.13596187  1
  O  O261  1  0.35844946  0.13873010  0.63915879  1
  O  O262  1  0.38311542  0.63645017  0.13605432  1
  O  O263  1  0.40993319  0.61551321  0.60879398  1
  O  O264  1  0.88564066  0.11809999  0.13142552  1
  O  O265  1  0.89167140  0.11633905  0.61912731  1
  O  O266  1  0.87517621  0.62666056  0.14391753  1
  O  O267  1  0.85871301  0.62222356  0.63873487  1
  O  O268  1  0.24727744  0.25651288  0.11632571  1
  O  O269  1  0.24115427  0.26508182  0.63250517  1
  O  O270  1  0.26551797  0.74445779  0.13420948  1
  O  O271  1  0.26148614  0.74768647  0.60323943  1
  O  O272  1  0.74590606  0.25374073  0.10933401  1
  O  O273  1  0.76589758  0.23784186  0.62492975  1
  O  O274  1  0.76702712  0.74540001  0.12782526  1
  O  O275  1  0.73346062  0.75695788  0.61186557  1
  O  O276  1  0.23312351  0.27031083  0.40427148  1
  O  O277  1  0.24693290  0.24254515  0.89406208  1
  O  O278  1  0.24978987  0.74256648  0.37746419  1
  O  O279  1  0.22135561  0.75302705  0.88224235  1
  O  O280  1  0.77067094  0.23157365  0.35575291  1
  O  O281  1  0.73392847  0.25679960  0.87808692  1
  O  O282  1  0.72879468  0.74009273  0.37809816  1
  O  O283  1  0.73439365  0.74154535  0.87576405  1
  O  O284  1  0.01684083  0.11971253  0.00788254  1
  O  O285  1  0.00466758  0.11577334  0.50002062  1
  O  O286  1  0.00814697  0.61384278  0.00132056  1
  O  O287  1  0.01770764  0.62384727  0.48900534  1
  O  O288  1  0.49152750  0.10112797  0.01020372  1
  O  O289  1  0.52287000  0.13802795  0.49762915  1
  O  O290  1  0.49821701  0.63014756  0.01796587  1
  O  O291  1  0.51040749  0.59140475  0.47913763  1
  O  O292  1  0.49050843  0.35294113  0.47350776  1
  O  O293  1  0.48615739  0.36697028  0.99438937  1
  O  O294  1  0.50628993  0.89804904  0.48625058  1
  O  O295  1  0.48147375  0.88406001  1.00184755  1
  O  O296  1  0.99792172  0.39146559  0.50751122  1
  O  O297  1  1.00152039  0.38668723  1.00066226  1
  O  O298  1  1.00814361  0.89310797  0.48702116  1
  O  O299  1  0.99886430  0.89034913  1.00460134  1
  O  O300  1  0.49780100  0.46663105  0.37411030  1
  O  O301  1  0.49102358  0.48640127  0.87575522  1
  O  O302  1  0.50172463  1.03362360  0.38681357  1
  O  O303  1  0.49765551  1.00118216  0.87984211  1
  O  O304  1  0.99130315  0.50545080  0.38546518  1
  O  O305  1  1.01035855  0.49141779  0.89288655  1
  O  O306  1  0.99110567  0.99472193  0.37824956  1
  O  O307  1  1.01116269  1.00938966  0.89522248  1
  O  O308  1  0.00961559  0.01334366  0.11489750  1
  O  O309  1  -0.00229629  0.00521779  0.61096943  1
  O  O310  1  0.00860444  0.50270106  0.11359661  1
  O  O311  1  0.01516244  0.51313763  0.61046309  1
  O  O312  1  0.50334233  -0.00078051  0.13181195  1
  O  O313  1  0.51737323  0.00202010  0.60989579  1
  O  O314  1  0.49163191  0.51443829  0.13191497  1
  O  O315  1  0.48363208  0.45764277  0.59205584  1
  O  O316  1  0.25544714  0.38305132  0.24263439  1
  O  O317  1  0.27873695  0.32253634  0.67478928  1
  O  O318  1  0.23473174  0.86989382  0.25446524  1
  O  O319  1  0.23979740  0.87543773  0.72950688  1
  O  O320  1  0.74491310  0.35782684  0.22860325  1
  O  O321  1  0.75356600  0.40209683  0.75920623  1
  O  O322  1  0.74017499  0.87900331  0.25453489  1
  O  O323  1  0.74153391  0.87124773  0.73020353  1
  O  O324  1  0.24575081  0.16959279  0.28372463  1
  O  O325  1  0.25794001  0.13407794  0.76679432  1
  O  O326  1  0.25512145  0.62125120  0.25951772  1
  O  O327  1  0.28761606  0.65314406  0.74210810  1
  O  O328  1  0.73917341  0.10580418  0.25959500  1
  O  O329  1  0.77134126  0.09679230  0.78778663  1
  O  O330  1  0.76225478  0.62901582  0.26452643  1
  O  O331  1  0.75576537  0.62641909  0.76218306  1
  O  O332  1  0.34708961  0.14753684  0.40356092  1
  O  O333  1  0.36373691  0.12835733  0.87534425  1
  O  O334  1  0.36308753  0.62772981  0.36293758  1
  O  O335  1  0.37686848  0.60723247  0.88508648  1
  O  O336  1  0.86553131  0.10787910  0.37745775  1
  O  O337  1  0.79850768  0.10070091  0.85527791  1
  O  O338  1  0.86494469  0.62109720  0.36943510  1
  O  O339  1  0.85688360  0.63656797  0.87218541  1
  O  O340  1  0.14004357  0.38516775  0.11313209  1
  O  O341  1  0.12585385  0.39821518  0.62942778  1
  O  O342  1  0.12049414  0.88738320  0.13508590  1
  O  O343  1  0.14093239  0.86532504  0.62861194  1
  O  O344  1  0.63046949  0.39295703  0.09400942  1
  O  O345  1  0.64252534  0.35822771  0.64388789  1
  O  O346  1  0.62909327  0.86444671  0.13168602  1
  O  O347  1  0.63083944  0.88619230  0.62867551  1
  O  O348  1  0.11223798  0.26612054  0.24408515  1
  O  O349  1  0.10245480  0.23407652  0.75870459  1
  O  O350  1  0.11369732  0.76448974  0.24143609  1
  O  O351  1  0.11938461  0.73152891  0.75353966  1
  O  O352  1  0.61072234  0.27048800  0.21898149  1
  O  O353  1  0.60739350  0.24670164  0.76664338  1
  O  O354  1  0.62518217  0.75980299  0.25911355  1
  O  O355  1  0.62215683  0.76466728  0.75673953  1
  O  O356  1  0.38779190  0.25229624  0.23535247  1
  O  O357  1  0.38671962  0.24227413  0.75771174  1
  O  O358  1  0.38676096  0.74232700  0.24731770  1
  O  O359  1  0.33482251  0.70963323  0.75479158  1
  O  O360  1  0.93956377  0.27233585  0.28826919  1
  O  O361  1  0.89599733  0.23900030  0.77998452  1
  O  O362  1  0.88068887  0.74261951  0.24849265  1
  O  O363  1  0.87614173  0.74126585  0.74461326  1
  O  O364  1  0.37944690  0.49853144  0.48027441  1
  O  O365  1  0.37306846  0.48830613  0.99641904  1
  O  O366  1  0.39877673  1.01814843  0.50820693  1
  O  O367  1  0.38084819  0.98435313  0.99701707  1
  O  O368  1  0.89346485  0.51555295  0.49229102  1
  O  O369  1  0.88913130  0.51053640  1.00396315  1
  O  O370  1  0.88577712  0.98425394  0.49326989  1
  O  O371  1  0.89043730  1.00402462  0.99830921  1
  O  O372  1  0.12236216  0.00520469  0.01173789  1
  O  O373  1  0.11286066  0.00638209  0.49468327  1
  O  O374  1  0.12519024  0.51256285  0.01094747  1
  O  O375  1  0.11807790  0.50752780  0.49779349  1
  O  O376  1  0.60412206  -0.01502200  -0.00279886  1
  O  O377  1  0.62107970  0.01499254  0.50506618  1
  O  O378  1  0.62530531  0.45319044  0.04392203  1
  O  O379  1  0.60561661  0.46588965  0.49874727  1
  O  O380  1  0.36612046  0.38066216  0.11427744  1
  O  O381  1  0.33716054  0.35606266  0.63617263  1
  O  O382  1  0.37332422  0.85938742  0.13892774  1
  O  O383  1  0.35893427  0.87985631  0.62553326  1
  O  O384  1  0.87503016  0.35960261  0.13442768  1
  O  O385  1  0.86919032  0.41506316  0.62471819  1
  O  O386  1  0.87836773  0.86525769  0.13404796  1
  O  O387  1  0.85655615  0.88434801  0.61988941  1
  O  O388  1  0.12640192  0.13037827  0.39072427  1
  O  O389  1  0.13805607  0.12593229  0.89328165  1
  O  O390  1  0.14154936  0.61999403  0.38152933  1
  O  O391  1  0.12540916  0.63448896  0.89207124  1
  O  O392  1  0.64613187  0.12447563  0.38740944  1
  O  O393  1  0.62482218  0.13158959  0.87261984  1
  O  O394  1  0.63622366  0.61015038  0.35778986  1
  O  O395  1  0.62857309  0.64111311  0.86849311  1
