# generated using pymatgen
data_V35Zn35O128
_symmetry_space_group_name_H-M   'P 1'
_cell_length_a   16.81914379
_cell_length_b   16.90941334
_cell_length_c   16.88541755
_cell_angle_alpha   89.84806861
_cell_angle_beta   90.31850542
_cell_angle_gamma   90.01064204
_symmetry_Int_Tables_number   1
_chemical_formula_structural   V35Zn35O128
_chemical_formula_sum   'V70 Zn70 O256'
_cell_volume   4802.15290977
_cell_formula_units_Z   2
loop_
 _symmetry_equiv_pos_site_id
 _symmetry_equiv_pos_as_xyz
  1  'x, y, z'
loop_
 _atom_site_type_symbol
 _atom_site_label
 _atom_site_symmetry_multiplicity
 _atom_site_fract_x
 _atom_site_fract_y
 _atom_site_fract_z
 _atom_site_occupancy
  V  V0  1  0.49695322  0.11481713  0.63071676  1
  V  V1  1  0.37786382  0.74778094  0.12396024  1
  V  V2  1  0.63598540  0.12061446  0.49485318  1
  V  V3  1  0.24063852  0.36255933  0.61426518  1
  V  V4  1  0.01235228  0.00003672  0.00526729  1
  V  V5  1  0.61661159  0.25325468  0.87434113  1
  V  V6  1  -0.00308828  0.12893554  0.13871645  1
  V  V7  1  0.87148654  0.00685993  0.37699750  1
  V  V8  1  0.62614805  0.26761278  0.38105627  1
  V  V9  1  0.38266222  0.87510029  -0.00149095  1
  V  V10  1  -0.00889921  0.74597422  0.73548120  1
  V  V11  1  -0.00005838  0.87951240  0.39505402  1
  V  V12  1  0.86637515  0.60638253  0.74586183  1
  V  V13  1  0.51276138  0.87500098  0.38074861  1
  V  V14  1  0.86833547  0.12323097  0.75245049  1
  V  V15  1  0.63535215  -0.00211113  0.63875893  1
  V  V16  1  0.11974075  0.86709823  0.75521185  1
  V  V17  1  0.11824074  0.37317598  0.76521239  1
  V  V18  1  0.11831305  0.00295293  0.62631876  1
  V  V19  1  0.38261139  0.00664020  0.37797723  1
  V  V20  1  0.13924799  0.76256970  0.39328269  1
  V  V21  1  0.73737137  0.87384456  0.12889426  1
  V  V22  1  0.00009323  0.86636348  0.88040947  1
  V  V23  1  0.74618432  0.13434634  0.88950986  1
  V  V24  1  0.63748944  0.63879577  0.49379612  1
  V  V25  1  0.50191486  0.01904309  0.00898809  1
  V  V26  1  0.00955240  0.60324888  0.61853759  1
  V  V27  1  0.37911799  0.00182079  0.87104113  1
  V  V28  1  0.51260239  0.75268284  0.25213700  1
  V  V29  1  0.75037028  0.01184952  0.25456092  1
  V  V30  1  0.75458171  0.61603463  0.89054980  1
  V  V31  1  0.74896378  0.86756138  0.64894294  1
  V  V32  1  0.62521355  0.02473880  0.12577897  1
  V  V33  1  0.24364513  0.13352431  0.87789199  1
  V  V34  1  0.50470298  0.63294547  0.62280007  1
  V  V35  1  0.12247642  0.87862114  0.24414960  1
  V  V36  1  0.37694802  0.50157214  0.87217697  1
  V  V37  1  0.37007720  0.63069470  0.25073438  1
  V  V38  1  0.00031034  0.51211220  -0.00861587  1
  V  V39  1  0.86409296  0.25211534  0.61336868  1
  V  V40  1  0.12291836  0.14522089  -0.00172732  1
  V  V41  1  0.87537507  0.39141977  0.49069042  1
  V  V42  1  0.23731661  -0.00118209  0.76458250  1
  V  V43  1  0.37925280  0.50451300  0.38245982  1
  V  V44  1  0.25123797  0.63100929  0.39986871  1
  V  V45  1  0.24857316  0.87446193  0.11805904  1
  V  V46  1  0.00034372  0.12127281  0.61664207  1
  V  V47  1  0.37920110  0.23885081  0.64962564  1
  V  V48  1  0.25627860  0.00581657  0.24603864  1
  V  V49  1  0.88007722  0.74453514  0.13266749  1
  V  V50  1  0.37948297  0.35966874  0.49498673  1
  V  V51  1  0.86562401  0.87414129  0.00606845  1
  V  V52  1  0.50865586  0.49149578  0.51013369  1
  V  V53  1  0.49511501  0.75388943  0.76674437  1
  V  V54  1  0.86583458  0.00050851  0.87527375  1
  V  V55  1  0.00244205  0.25049238  0.76304408  1
  V  V56  1  0.87487610  0.25816175  0.14611830  1
  V  V57  1  0.24149616  0.49983935  0.74215842  1
  V  V58  1  0.12847095  0.35048557  0.25500900  1
  V  V59  1  0.39599190  0.13555056  0.23363123  1
  V  V60  1  0.88367767  0.37444827  -0.02092863  1
  V  V61  1  0.61523781  0.37924125  0.23034187  1
  V  V62  1  0.85640739  0.86295345  0.50322503  1
  V  V63  1  0.63477817  0.37791327  0.73853032  1
  V  V64  1  0.13702046  0.52509332  0.13337724  1
  V  V65  1  0.49071375  0.37577890  0.86797062  1
  V  V66  1  0.59376090  0.60787464  0.00812521  1
  V  V67  1  0.15831077  0.64147900  -0.01701508  1
  V  V68  1  -0.00104259  0.33895301  0.37164605  1
  V  V69  1  0.37511910  0.61660436  0.73219246  1
  Zn  Zn70  1  0.65898782  0.50433334  0.63532632  1
  Zn  Zn71  1  0.63225264  0.74877687  -0.11779317  1
  Zn  Zn72  1  0.36731339  0.86541651  0.49676700  1
  Zn  Zn73  1  0.00133124  0.74557825  0.25317168  1
  Zn  Zn74  1  0.73935527  0.27767842  0.02164723  1
  Zn  Zn75  1  0.73505638  0.49622589  0.26913796  1
  Zn  Zn76  1  0.17953111  0.17968515  0.18374571  1
  Zn  Zn77  1  0.18785725  0.18728016  0.68959978  1
  Zn  Zn78  1  0.19524301  0.69510730  0.19813774  1
  Zn  Zn79  1  0.17751100  0.69763722  0.58453789  1
  Zn  Zn80  1  0.69232820  0.20233945  0.20251206  1
  Zn  Zn81  1  0.68272875  0.18817079  0.69083069  1
  Zn  Zn82  1  0.66145511  0.70549248  0.12908172  1
  Zn  Zn83  1  0.68130299  0.68907624  0.69429740  1
  Zn  Zn84  1  0.32472712  0.32033851  0.29954193  1
  Zn  Zn85  1  0.27499631  0.34224383  0.85710927  1
  Zn  Zn86  1  0.31707688  0.82029162  0.31528612  1
  Zn  Zn87  1  0.26543878  0.76074941  0.75409860  1
  Zn  Zn88  1  0.79845291  0.31546204  0.31954354  1
  Zn  Zn89  1  0.81322350  0.31401522  0.80525133  1
  Zn  Zn90  1  0.81485307  0.82865877  0.30221151  1
  Zn  Zn91  1  0.81329742  0.80078717  0.82022925  1
  Zn  Zn92  1  0.20420890  0.41811561  0.40802490  1
  Zn  Zn93  1  0.19554505  0.45529969  0.96560913  1
  Zn  Zn94  1  0.18748963  0.97238173  0.43471763  1
  Zn  Zn95  1  0.19587332  0.81469724  0.92637706  1
  Zn  Zn96  1  0.69765903  0.44860790  0.43835121  1
  Zn  Zn97  1  0.69068820  0.43972006  0.93284690  1
  Zn  Zn98  1  0.68325573  0.94796199  0.44559770  1
  Zn  Zn99  1  0.68138503  0.94208013  0.92985572  1
  Zn  Zn100  1  0.30776674  0.06339452  0.06087616  1
  Zn  Zn101  1  0.33012757  0.02814070  0.58579273  1
  Zn  Zn102  1  0.34154233  0.52419371  0.08299339  1
  Zn  Zn103  1  0.30983870  0.55096872  0.56296850  1
  Zn  Zn104  1  0.81653356  0.06527197  0.06577484  1
  Zn  Zn105  1  0.81368864  0.05546210  0.56384755  1
  Zn  Zn106  1  0.82100002  0.55273886  0.06829953  1
  Zn  Zn107  1  0.82307235  0.56823116  0.56007997  1
  Zn  Zn108  1  0.45603417  0.44676931  0.21259151  1
  Zn  Zn109  1  0.44105401  0.42529564  0.68771727  1
  Zn  Zn110  1  0.44379016  0.93606355  0.18851431  1
  Zn  Zn111  1  0.43479956  0.93131724  0.68711583  1
  Zn  Zn112  1  0.96159489  0.43437215  0.17823892  1
  Zn  Zn113  1  0.93169743  0.43354551  0.68185298  1
  Zn  Zn114  1  0.93681068  0.94439214  0.18795336  1
  Zn  Zn115  1  0.93207271  0.93496017  0.68793621  1
  Zn  Zn116  1  0.06666215  0.06081919  0.32055806  1
  Zn  Zn117  1  0.05437967  0.06419155  0.82085465  1
  Zn  Zn118  1  0.07984335  0.56819643  0.32102200  1
  Zn  Zn119  1  0.06817150  0.57020988  0.81371541  1
  Zn  Zn120  1  0.56149980  0.06541706  0.30821608  1
  Zn  Zn121  1  0.56235733  0.06521506  0.81156007  1
  Zn  Zn122  1  0.56244439  0.56603804  0.31382072  1
  Zn  Zn123  1  0.57138879  0.55984868  0.81707869  1
  Zn  Zn124  1  0.45467460  0.17356786  0.43353122  1
  Zn  Zn125  1  0.43769248  0.18423770  0.92591460  1
  Zn  Zn126  1  0.44677186  0.69479862  0.44137129  1
  Zn  Zn127  1  0.35916872  0.70417911  0.91072242  1
  Zn  Zn128  1  0.93474953  0.18063662  0.43764173  1
  Zn  Zn129  1  0.93276351  0.19058028  0.94498381  1
  Zn  Zn130  1  0.95128674  0.69568548  0.44549851  1
  Zn  Zn131  1  0.92705626  0.68492177  0.93770535  1
  Zn  Zn132  1  0.05742645  0.32057719  0.06882525  1
  Zn  Zn133  1  0.05551397  0.29954066  0.55598319  1
  Zn  Zn134  1  0.05966527  0.80354899  0.06241244  1
  Zn  Zn135  1  0.24620230  0.86630039  0.60062881  1
  Zn  Zn136  1  0.53585908  0.44137531  0.05576184  1
  Zn  Zn137  1  0.56438420  0.29870925  0.56249832  1
  Zn  Zn138  1  0.57662584  0.82496544  0.01566464  1
  Zn  Zn139  1  0.56613007  0.81887595  0.56312947  1
  O  O140  1  0.10991046  0.12835679  0.10825138  1
  O  O141  1  0.10907008  0.11761562  0.63738196  1
  O  O142  1  0.14174295  0.62903461  0.11786599  1
  O  O143  1  0.10960798  0.62402861  0.63357486  1
  O  O144  1  0.63372478  0.12187165  0.12477287  1
  O  O145  1  0.62098837  0.11582193  0.62442490  1
  O  O146  1  0.63177413  0.59925290  0.10744134  1
  O  O147  1  0.61532717  0.61755268  0.62085561  1
  O  O148  1  0.36593567  0.39309569  0.38511424  1
  O  O149  1  0.38458819  0.38305619  0.85426798  1
  O  O150  1  0.38606197  0.88836054  0.37631643  1
  O  O151  1  0.36939177  0.89482449  0.89559570  1
  O  O152  1  0.89057797  0.36684437  0.37767796  1
  O  O153  1  0.88231187  0.37163131  0.87933073  1
  O  O154  1  0.88277471  0.87434702  0.38462135  1
  O  O155  1  0.87568361  0.88090887  0.88935653  1
  O  O156  1  0.27236833  -0.00824672  0.35216943  1
  O  O157  1  0.25711307  0.00773878  0.86972508  1
  O  O158  1  0.26134896  0.52136729  0.39262166  1
  O  O159  1  0.26174151  0.48779228  0.84686151  1
  O  O160  1  0.75598779  -0.00877126  0.36144360  1
  O  O161  1  0.75638430  0.01426321  0.88188735  1
  O  O162  1  0.75846683  0.51762137  0.37515605  1
  O  O163  1  0.73941571  0.51962534  0.86359292  1
  O  O164  1  0.23302295  0.49245522  0.11071646  1
  O  O165  1  0.25585431  0.47306606  0.63236250  1
  O  O166  1  0.25586319  0.98327392  0.13360077  1
  O  O167  1  0.23045355  1.01422016  0.64987786  1
  O  O168  1  0.81143663  0.51003368  0.17949361  1
  O  O169  1  0.76340885  0.48469567  0.60652393  1
  O  O170  1  0.74133290  0.99762829  0.12891179  1
  O  O171  1  0.74222252  0.99173060  0.63184144  1
  O  O172  1  0.01450760  0.37753162  0.26672032  1
  O  O173  1  0.00913280  0.36241498  0.74097416  1
  O  O174  1  0.01655638  0.88022283  0.24578921  1
  O  O175  1  -0.00025170  0.86827481  0.75994334  1
  O  O176  1  0.51634183  0.37746981  0.27062271  1
  O  O177  1  0.51339268  0.37005976  0.75768193  1
  O  O178  1  0.49893050  0.86038358  0.25681982  1
  O  O179  1  0.48498912  0.85190991  0.74683718  1
  O  O180  1  0.49649015  0.12585536  0.23457428  1
  O  O181  1  0.50652036  0.12796792  0.73202196  1
  O  O182  1  0.48146512  0.64025460  0.26631693  1
  O  O183  1  0.49317667  0.61632645  0.73488027  1
  O  O184  1  1.01069519  0.11242368  0.23637843  1
  O  O185  1  0.99037138  0.13602980  0.75136112  1
  O  O186  1  0.98047547  0.62639856  0.29261763  1
  O  O187  1  0.99576929  0.63402770  0.74773172  1
  O  O188  1  0.37305919  0.25497660  0.00613588  1
  O  O189  1  0.38478483  0.26262431  0.47737715  1
  O  O190  1  0.38011252  0.76788478  0.00767760  1
  O  O191  1  0.37633725  0.75275972  0.50439134  1
  O  O192  1  0.87617611  0.26739322  0.00523614  1
  O  O193  1  0.87125053  0.23632799  0.51319514  1
  O  O194  1  0.87983178  0.76941946  0.01116367  1
  O  O195  1  0.87427809  0.76455683  0.49660841  1
  O  O196  1  0.13151182  0.21502784  0.51109971  1
  O  O197  1  0.11614621  0.24368355  0.99948796  1
  O  O198  1  0.12886241  0.75792711  0.49131741  1
  O  O199  1  0.13262451  0.74582066  0.99899813  1
  O  O200  1  0.62748863  0.23417402  0.49310419  1
  O  O201  1  0.63641689  0.25871184  0.97368321  1
  O  O202  1  0.62027425  0.73716879  0.50543191  1
  O  O203  1  0.62038000  0.72142405  1.01589755  1
  O  O204  1  0.41097511  0.28710861  0.06087114  1
  O  O205  1  0.48275138  0.23934108  0.62188244  1
  O  O206  1  0.48158986  0.75300791  0.14077503  1
  O  O207  1  0.50474675  0.73406840  0.63038796  1
  O  O208  1  0.99253102  0.23650613  0.12799663  1
  O  O209  1  0.99250911  0.23289041  0.63124676  1
  O  O210  1  0.98746218  0.75152801  0.13203789  1
  O  O211  1  0.99919562  0.74965867  0.63908392  1
  O  O212  1  0.00100396  0.23919843  0.36619195  1
  O  O213  1  -0.00479153  0.24681329  0.86125954  1
  O  O214  1  0.01347564  0.76842697  0.37517888  1
  O  O215  1  -0.00986028  0.76444916  0.87850206  1
  O  O216  1  0.52787998  0.23311537  0.37128540  1
  O  O217  1  0.50892258  0.25278971  0.87119797  1
  O  O218  1  0.50286929  0.76229125  0.36354372  1
  O  O219  1  0.47497214  0.74139528  0.86429163  1
  O  O220  1  0.23338796  0.19951911  0.42724050  1
  O  O221  1  0.23163759  0.12246282  0.99457445  1
  O  O222  1  0.24782197  0.63183949  0.50424725  1
  O  O223  1  0.25718403  0.63663015  0.98768500  1
  O  O224  1  0.73718654  0.12032518  0.50928248  1
  O  O225  1  0.75469284  0.13064497  0.99007796  1
  O  O226  1  0.73739505  0.62671069  0.50927021  1
  O  O227  1  0.76206467  0.61369424  0.99145489  1
  O  O228  1  0.25268531  0.36534592  -0.03471410  1
  O  O229  1  0.26336493  0.37351743  0.50655766  1
  O  O230  1  0.25779618  0.87700034  0.01362427  1
  O  O231  1  0.24924028  0.89629508  0.49130463  1
  O  O232  1  0.77331467  0.38662531  -0.00444771  1
  O  O233  1  0.77619651  0.37387481  0.48393981  1
  O  O234  1  0.76204145  0.88675151  0.00982889  1
  O  O235  1  0.75466081  0.86932903  0.49778362  1
  O  O236  1  0.12799636  0.51522155  0.23653530  1
  O  O237  1  0.13314817  0.48879509  0.75058816  1
  O  O238  1  0.14058569  0.98404582  0.25280688  1
  O  O239  1  0.12626526  0.99522789  0.76071320  1
  O  O240  1  0.61834533  0.49208948  0.25064296  1
  O  O241  1  0.61945879  0.48561197  0.74289916  1
  O  O242  1  0.63420423  1.00472265  0.23347309  1
  O  O243  1  0.62443776  1.00178591  0.73947655  1
  O  O244  1  0.37056839  0.00914921  0.24553547  1
  O  O245  1  0.36298430  -0.00622532  0.76685742  1
  O  O246  1  0.38096969  0.51697032  0.27353767  1
  O  O247  1  0.36808256  0.49941584  0.74396883  1
  O  O248  1  0.86030038  -0.00843125  0.25944461  1
  O  O249  1  0.88376789  0.00934212  0.76679683  1
  O  O250  1  0.88386467  0.51479137  0.21746387  1
  O  O251  1  0.88099944  0.50735359  0.75305364  1
  O  O252  1  0.10495641  0.36617830  0.37545894  1
  O  O253  1  0.12236308  0.37393485  0.86139350  1
  O  O254  1  0.11707501  0.87550746  0.37061381  1
  O  O255  1  0.11175236  0.87740534  0.86913002  1
  O  O256  1  0.62520264  0.36749221  0.39613041  1
  O  O257  1  0.61780267  0.36752039  0.86265317  1
  O  O258  1  0.61268827  0.88623043  0.37791594  1
  O  O259  1  0.61408879  0.85714220  0.90989165  1
  O  O260  1  0.36822441  0.12531008  0.13534074  1
  O  O261  1  0.38238287  0.12785848  0.62330216  1
  O  O262  1  0.36153794  0.62944916  0.14579889  1
  O  O263  1  0.38943686  0.61254166  0.62524096  1
  O  O264  1  0.88953914  0.13511426  0.12146174  1
  O  O265  1  0.88285515  0.12447547  0.63436084  1
  O  O266  1  0.86366984  0.64882510  0.12050551  1
  O  O267  1  0.89199326  0.62072048  0.64025195  1
  O  O268  1  0.25029173  0.25681121  0.10795118  1
  O  O269  1  0.26304932  0.25400239  0.63036834  1
  O  O270  1  0.26407493  0.76505393  0.13304873  1
  O  O271  1  0.24132994  0.76516432  0.64607756  1
  O  O272  1  0.76872140  0.24262094  0.12574231  1
  O  O273  1  0.76664775  0.24548039  0.63289621  1
  O  O274  1  0.75996286  0.77015938  0.12901232  1
  O  O275  1  0.73995391  0.76909967  0.63522120  1
  O  O276  1  0.16867592  0.23507601  0.44174517  1
  O  O277  1  0.25640357  0.23005357  0.86781610  1
  O  O278  1  0.24654965  0.75094717  0.38203416  1
  O  O279  1  0.26910785  0.75755152  0.86381928  1
  O  O280  1  0.72579250  0.23721747  0.36329439  1
  O  O281  1  0.75295962  0.23806128  0.87409896  1
  O  O282  1  0.74987945  0.72906313  0.35449446  1
  O  O283  1  0.74515507  0.72511078  0.86579869  1
  O  O284  1  0.00837511  0.11593477  -0.00342549  1
  O  O285  1  -0.00496393  0.11789110  0.51791776  1
  O  O286  1  -0.01036531  0.61412700  0.00243164  1
  O  O287  1  -0.00380565  0.62630641  0.52003988  1
  O  O288  1  0.49151827  0.11760152  0.00561085  1
  O  O289  1  0.51558300  0.12524442  0.51964179  1
  O  O290  1  0.49623895  0.61232400  0.00866365  1
  O  O291  1  0.50568200  0.61495996  0.51225796  1
  O  O292  1  0.48944532  0.38261659  0.50690507  1
  O  O293  1  0.49958870  0.37252423  0.96812258  1
  O  O294  1  0.49617959  0.86977174  0.48492032  1
  O  O295  1  0.48452920  0.89295590  1.01048594  1
  O  O296  1  0.99115377  0.35625694  0.48106278  1
  O  O297  1  0.99349005  0.38473739  0.99904266  1
  O  O298  1  0.99029946  0.88167897  0.49230765  1
  O  O299  1  0.99358091  0.88530552  1.00035386  1
  O  O300  1  0.48544574  0.51072572  0.39536444  1
  O  O301  1  0.48701270  0.48928262  0.86301990  1
  O  O302  1  0.49132213  0.98606778  0.35990040  1
  O  O303  1  0.48651036  1.01308534  0.88629958  1
  O  O304  1  1.05330960  0.51253211  0.42776295  1
  O  O305  1  1.01365981  0.50300004  0.89191825  1
  O  O306  1  0.98311220  0.98463266  0.36411156  1
  O  O307  1  0.98903689  0.99124770  0.88847232  1
  O  O308  1  -0.00951499  0.01348662  0.11103221  1
  O  O309  1  0.00546392  0.01266596  0.64270160  1
  O  O310  1  0.03300515  0.49386926  0.10772142  1
  O  O311  1  0.00498988  0.50262657  0.62615419  1
  O  O312  1  0.51402480  0.00241305  0.11942672  1
  O  O313  1  0.50631283  0.00829040  0.63131142  1
  O  O314  1  0.43833935  0.46947920  0.10866172  1
  O  O315  1  0.49754086  0.50174408  0.61367238  1
  O  O316  1  0.22780466  0.37846223  0.29201588  1
  O  O317  1  0.23122549  0.37385184  0.73987880  1
  O  O318  1  0.24503140  0.88023583  0.24110364  1
  O  O319  1  0.23003143  0.88911572  0.75990671  1
  O  O320  1  0.72621494  0.38054917  0.25530686  1
  O  O321  1  0.73675165  0.37742652  0.75246001  1
  O  O322  1  0.74413727  0.88850396  0.23399858  1
  O  O323  1  0.76199093  0.87654981  0.74775154  1
  O  O324  1  0.24631530  0.10673530  0.24022899  1
  O  O325  1  0.23541806  0.11293968  0.76829029  1
  O  O326  1  0.26572613  0.63507635  0.27427519  1
  O  O327  1  0.26235730  0.60320326  0.72839554  1
  O  O328  1  0.75088243  0.11028899  0.24721164  1
  O  O329  1  0.76514556  0.12952369  0.75890126  1
  O  O330  1  0.77872048  0.66288142  0.34028387  1
  O  O331  1  0.76446607  0.62087862  0.73789871  1
  O  O332  1  0.39058858  0.11136005  0.35339559  1
  O  O333  1  0.35728413  0.11112740  0.88872837  1
  O  O334  1  0.36703008  0.62278133  0.38338432  1
  O  O335  1  0.37688641  0.60670412  0.84815627  1
  O  O336  1  0.87769717  0.10501271  0.37544108  1
  O  O337  1  0.86665612  0.11985458  0.87372146  1
  O  O338  1  0.92744130  0.62088721  0.35319125  1
  O  O339  1  0.86379605  0.62538747  0.86129627  1
  O  O340  1  0.12481237  0.36825795  0.15265579  1
  O  O341  1  0.13937709  0.35960781  0.61170920  1
  O  O342  1  0.13712590  0.86579681  0.13448082  1
  O  O343  1  0.11650074  0.89408516  0.65034982  1
  O  O344  1  0.60529870  0.37893246  0.13003657  1
  O  O345  1  0.62068527  0.36558665  0.63661236  1
  O  O346  1  0.63755251  0.87811698  0.11016848  1
  O  O347  1  0.63626287  0.88680609  0.62637673  1
  O  O348  1  0.13378441  0.25065083  0.25793012  1
  O  O349  1  0.11231364  0.25851736  0.74760944  1
  O  O350  1  0.12619197  0.76484010  0.26344806  1
  O  O351  1  0.11028245  0.76608443  0.75524460  1
  O  O352  1  0.62211117  0.27040005  0.25773607  1
  O  O353  1  0.63361508  0.26034052  0.76362091  1
  O  O354  1  0.60944938  0.73631668  0.23239301  1
  O  O355  1  0.60024078  0.73564291  0.76333870  1
  O  O356  1  0.37049345  0.23381377  0.25375941  1
  O  O357  1  0.37801932  0.24526390  0.74479796  1
  O  O358  1  0.37774083  0.74330971  0.24777020  1
  O  O359  1  0.38257459  0.72091603  0.74024365  1
  O  O360  1  0.87099282  0.25460711  0.24526811  1
  O  O361  1  0.88685226  0.24619973  0.73905552  1
  O  O362  1  0.87980987  0.76154951  0.23794771  1
  O  O363  1  0.88829216  0.74481793  0.75182405  1
  O  O364  1  0.38384620  0.48974811  0.49743103  1
  O  O365  1  0.35869728  0.50528331  0.96870526  1
  O  O366  1  0.37132326  1.02109871  0.47630105  1
  O  O367  1  0.38367335  0.99665580  1.00106627  1
  O  O368  1  0.88747823  0.48947939  0.49468250  1
  O  O369  1  0.89263521  0.48807051  1.00725462  1
  O  O370  1  0.86382767  0.98636899  0.48276112  1
  O  O371  1  0.88031962  0.99300361  0.99333404  1
  O  O372  1  0.10978852  0.00105260  0.00261821  1
  O  O373  1  0.11872087  -0.00750876  0.52995541  1
  O  O374  1  0.12446954  0.53099626  0.00330411  1
  O  O375  1  0.11177876  0.49657343  0.47329331  1
  O  O376  1  0.61086426  0.00575894  0.00854985  1
  O  O377  1  0.62504550  0.00921678  0.52197758  1
  O  O378  1  0.61180122  0.50001664  -0.00946978  1
  O  O379  1  0.61320652  0.50090052  0.50618084  1
  O  O380  1  0.28832769  0.31467984  0.13354954  1
  O  O381  1  0.37137907  0.35382154  0.61294457  1
  O  O382  1  0.36795486  0.87065775  0.11932707  1
  O  O383  1  0.35728098  0.91582593  0.60642501  1
  O  O384  1  0.88929951  0.35888217  0.12693102  1
  O  O385  1  0.88660678  0.35848470  0.60514230  1
  O  O386  1  0.86839800  0.87896526  0.11622952  1
  O  O387  1  0.85859789  0.88496147  0.61327347  1
  O  O388  1  0.14085754  0.07012817  0.40021595  1
  O  O389  1  0.13006140  0.12385960  0.88834373  1
  O  O390  1  0.14370817  0.64693554  0.37724532  1
  O  O391  1  0.13416032  0.63271888  0.88477047  1
  O  O392  1  0.62467090  0.10417247  0.39452926  1
  O  O393  1  0.63847793  0.13589622  0.86796172  1
  O  O394  1  0.61957802  0.62193806  0.39514186  1
  O  O395  1  0.62863179  0.62627684  0.89320000  1
