# generated using pymatgen
data_V35Zn35O128
_symmetry_space_group_name_H-M   'P 1'
_cell_length_a   16.90599318
_cell_length_b   16.85079040
_cell_length_c   16.88786020
_cell_angle_alpha   90.16592269
_cell_angle_beta   90.20824884
_cell_angle_gamma   90.11114892
_symmetry_Int_Tables_number   1
_chemical_formula_structural   V35Zn35O128
_chemical_formula_sum   'V70 Zn70 O256'
_cell_volume   4810.94149216
_cell_formula_units_Z   2
loop_
 _symmetry_equiv_pos_site_id
 _symmetry_equiv_pos_as_xyz
  1  'x, y, z'
loop_
 _atom_site_type_symbol
 _atom_site_label
 _atom_site_symmetry_multiplicity
 _atom_site_fract_x
 _atom_site_fract_y
 _atom_site_fract_z
 _atom_site_occupancy
  V  V0  1  0.50203328  0.50556034  0.48861927  1
  V  V1  1  0.74617413  0.13064575  0.89208687  1
  V  V2  1  0.75007185  0.50529741  0.25356730  1
  V  V3  1  0.49449819  0.88100095  0.87278632  1
  V  V4  1  0.13238605  0.37738481  0.25379709  1
  V  V5  1  0.11241579  0.51982458  0.10219181  1
  V  V6  1  0.61590237  0.50809490  0.12254951  1
  V  V7  1  0.63597704  0.73788917  0.37804471  1
  V  V8  1  0.36445952  0.49481946  0.37283822  1
  V  V9  1  0.26330382  0.03249387  0.28276885  1
  V  V10  1  0.85174028  0.36584525  0.49894869  1
  V  V11  1  0.14083378  0.12641607  0.49678299  1
  V  V12  1  0.37117475  0.63353724  0.25145344  1
  V  V13  1  0.76211415  0.37716714  0.11718498  1
  V  V14  1  0.25506095  0.88411836  0.62456814  1
  V  V15  1  0.34966373  0.23917252  0.10277918  1
  V  V16  1  0.75220017  0.74712138  0.01385751  1
  V  V17  1  0.38215480  0.88419607  0.49240856  1
  V  V18  1  0.47741405  0.39617443  0.88188873  1
  V  V19  1  0.50283331  0.74864331  0.74957424  1
  V  V20  1  0.63004119  0.46680964  0.62200745  1
  V  V21  1  -0.00593106  0.36332745  0.37335447  1
  V  V22  1  -0.00745355  0.13519273  0.61820992  1
  V  V23  1  0.24961034  0.49698427  0.73316934  1
  V  V24  1  0.74947507  0.89739276  0.12568313  1
  V  V25  1  0.52517737  0.12722907  0.11668462  1
  V  V26  1  0.50127485  0.10944589  0.62504278  1
  V  V27  1  0.12863603  0.62339988  0.50054984  1
  V  V28  1  0.61330475  0.37171562  0.24848905  1
  V  V29  1  0.88663933  0.87658450  0.00254883  1
  V  V30  1  0.76301872  0.86738106  0.62317775  1
  V  V31  1  0.37441831  0.87897256  0.00567383  1
  V  V32  1  0.75411395  0.00869660  0.74912974  1
  V  V33  1  0.00531488  0.49395646  0.51025395  1
  V  V34  1  0.60886875  0.62808834  0.00660238  1
  V  V35  1  0.89683498  0.87479464  0.48847812  1
  V  V36  1  -0.00607089  0.63472746  0.63070064  1
  V  V37  1  0.11565924  0.37285129  0.74471569  1
  V  V38  1  0.37609835  0.74286724  0.62041441  1
  V  V39  1  0.11332674  0.76021385  0.37420243  1
  V  V40  1  0.50494394  0.88003949  0.37752549  1
  V  V41  1  0.14150210  0.24917076  0.38188887  1
  V  V42  1  0.63138261  0.89061741  0.24764406  1
  V  V43  1  0.24763362  0.74703220  -0.01624917  1
  V  V44  1  0.51627710  0.62345179  0.62188693  1
  V  V45  1  0.24022470  0.37437953  0.10826250  1
  V  V46  1  0.48491893  0.25892182  0.23148886  1
  V  V47  1  0.62964291  0.74732563  0.87934739  1
  V  V48  1  0.25479122  0.74175715  0.48758194  1
  V  V49  1  -0.00149079  0.75425877  0.24338504  1
  V  V50  1  0.21821753  0.86370663  0.13313842  1
  V  V51  1  0.74824274  0.49404782  0.75985307  1
  V  V52  1  0.62814316  0.87927861  0.74495487  1
  V  V53  1  0.13139766  0.87840878  0.76492275  1
  V  V54  1  0.26741440  0.35311811  0.61949181  1
  V  V55  1  0.86865936  0.51158550  0.38815075  1
  V  V56  1  0.62279937  0.26713498  0.87925916  1
  V  V57  1  0.89613561  0.48552417  0.87791423  1
  V  V58  1  0.49968847  0.31267379  0.43286708  1
  V  V59  1  0.86647669  0.01301148  0.37651790  1
  V  V60  1  0.88697012  0.00421787  0.87886093  1
  V  V61  1  0.23868651  0.61690507  0.87443879  1
  V  V62  1  0.00270159  0.12603915  0.13183979  1
  V  V63  1  0.85525483  0.25302787  0.62648065  1
  V  V64  1  0.88034300  0.62710780  0.23636136  1
  V  V65  1  0.13117102  0.23987732  0.87865675  1
  V  V66  1  0.50977661  0.00601198  -0.00115910  1
  V  V67  1  0.37951828  0.61722948  0.75636670  1
  V  V68  1  0.11432280  -0.00326468  0.61844729  1
  V  V69  1  0.48362430  0.24538911  0.75370175  1
  Zn  Zn70  1  0.50882228  0.74412760  0.24459905  1
  Zn  Zn71  1  0.24010645  0.51312932  0.25184577  1
  Zn  Zn72  1  0.01963370  0.75125620  0.74890120  1
  Zn  Zn73  1  0.38341523  0.73999815  0.11762477  1
  Zn  Zn74  1  0.75610857  0.73004024  0.49830107  1
  Zn  Zn75  1  -0.00828783  0.24629718  0.75243568  1
  Zn  Zn76  1  0.19710813  0.19444631  0.20531100  1
  Zn  Zn77  1  0.18260755  0.19398553  0.68168057  1
  Zn  Zn78  1  0.19064563  0.69057467  0.18861653  1
  Zn  Zn79  1  0.18827060  0.68954686  0.68472073  1
  Zn  Zn80  1  0.69684620  0.20442010  0.06216256  1
  Zn  Zn81  1  0.68032831  0.18521253  0.70387095  1
  Zn  Zn82  1  0.69045498  0.69369417  0.19321125  1
  Zn  Zn83  1  0.69669675  0.68894709  0.69828651  1
  Zn  Zn84  1  0.32547161  0.31803598  0.43934138  1
  Zn  Zn85  1  0.31102337  0.31792387  0.82233430  1
  Zn  Zn86  1  0.30941062  0.81793872  0.31030386  1
  Zn  Zn87  1  0.31191225  0.81162456  0.80751208  1
  Zn  Zn88  1  0.78058765  0.27117387  0.25161272  1
  Zn  Zn89  1  0.80807440  0.31642056  0.81130703  1
  Zn  Zn90  1  0.81606607  0.81657265  0.31210450  1
  Zn  Zn91  1  0.80726118  0.82325168  0.82317893  1
  Zn  Zn92  1  0.18615910  0.43446980  0.44612232  1
  Zn  Zn93  1  0.17846794  0.44007413  0.92618674  1
  Zn  Zn94  1  0.19262815  0.93888972  0.43680527  1
  Zn  Zn95  1  0.18712936  0.94932739  0.97101282  1
  Zn  Zn96  1  0.67598182  0.43673813  0.42960062  1
  Zn  Zn97  1  0.69011079  0.44236027  0.94174948  1
  Zn  Zn98  1  0.69579642  0.93166160  0.42969262  1
  Zn  Zn99  1  0.68895640  0.93937514  0.93521858  1
  Zn  Zn100  1  0.32342357  0.02808052  0.10522936  1
  Zn  Zn101  1  0.32044953  0.06956051  0.56605489  1
  Zn  Zn102  1  0.30343620  0.56017819  0.06647062  1
  Zn  Zn103  1  0.31899658  0.56068619  0.55786522  1
  Zn  Zn104  1  0.82174585  0.06004520  0.06174597  1
  Zn  Zn105  1  0.81856992  0.05284727  0.56192283  1
  Zn  Zn106  1  0.81104252  0.55903372  0.05909050  1
  Zn  Zn107  1  0.78929926  0.58125469  0.60291494  1
  Zn  Zn108  1  0.42052872  0.44961163  0.16820268  1
  Zn  Zn109  1  0.44717509  0.43091775  0.69109989  1
  Zn  Zn110  1  0.43878541  0.93840675  0.19059041  1
  Zn  Zn111  1  0.45667501  0.92636897  0.66452343  1
  Zn  Zn112  1  0.94218338  0.44474169  0.19519234  1
  Zn  Zn113  1  0.92285174  0.43864004  0.68737657  1
  Zn  Zn114  1  0.93491654  0.93661907  0.19431029  1
  Zn  Zn115  1  0.94107055  0.93361847  0.69515753  1
  Zn  Zn116  1  0.07492734  0.04940473  0.31690878  1
  Zn  Zn117  1  0.07005577  0.06274985  0.80095139  1
  Zn  Zn118  1  0.05893187  0.56314375  0.32246014  1
  Zn  Zn119  1  0.06440729  0.55496167  0.81005857  1
  Zn  Zn120  1  0.53697655  0.06806559  0.30985585  1
  Zn  Zn121  1  0.56534621  0.06611586  0.81386372  1
  Zn  Zn122  1  0.55873722  0.56732003  0.30320363  1
  Zn  Zn123  1  0.57379689  0.55875016  0.80877007  1
  Zn  Zn124  1  0.43663119  0.14382822  0.43500053  1
  Zn  Zn125  1  0.43465824  0.19369756  0.93758411  1
  Zn  Zn126  1  0.44434432  0.68414343  0.42798756  1
  Zn  Zn127  1  0.43709222  0.69053306  0.93485451  1
  Zn  Zn128  1  0.94014793  0.18483694  0.44179958  1
  Zn  Zn129  1  0.95204567  0.17956393  0.92550165  1
  Zn  Zn130  1  0.93663234  0.69051164  0.44983973  1
  Zn  Zn131  1  0.92357729  0.67626355  0.93138167  1
  Zn  Zn132  1  0.06513321  0.30659553  0.06343398  1
  Zn  Zn133  1  0.07145036  0.31430130  0.56589261  1
  Zn  Zn134  1  0.05288708  0.76748914  0.04731377  1
  Zn  Zn135  1  0.06725726  0.80772170  0.56350041  1
  Zn  Zn136  1  0.55790931  0.32214021  0.05552412  1
  Zn  Zn137  1  0.58470447  0.26309010  0.58767754  1
  Zn  Zn138  1  0.56249023  0.81777837  0.06745650  1
  Zn  Zn139  1  0.57015692  0.80479027  0.55893139  1
  O  O140  1  0.10741934  0.13077039  0.12412783  1
  O  O141  1  0.12462730  0.11505712  0.61635622  1
  O  O142  1  0.12996735  0.61814512  0.12121040  1
  O  O143  1  0.11821916  0.63309149  0.60876835  1
  O  O144  1  0.62298682  0.12702247  0.11111730  1
  O  O145  1  0.60454389  0.15677380  0.62539629  1
  O  O146  1  0.63060328  0.62210702  0.11690286  1
  O  O147  1  0.61460383  0.63811985  0.62540152  1
  O  O148  1  0.38977320  0.39397601  0.37408224  1
  O  O149  1  0.37653213  0.38961518  0.88171001  1
  O  O150  1  0.38892994  0.86911431  0.38411938  1
  O  O151  1  0.39016123  0.86897888  0.87562474  1
  O  O152  1  0.88779827  0.37465155  0.39057847  1
  O  O153  1  0.86613266  0.38684089  0.87877232  1
  O  O154  1  0.87889567  0.88282823  0.38466166  1
  O  O155  1  0.87030995  0.88990123  0.89246928  1
  O  O156  1  0.26971588  0.00040240  0.38003862  1
  O  O157  1  0.25683346  0.02810880  0.90344905  1
  O  O158  1  0.26183957  0.49159990  0.37908622  1
  O  O159  1  0.25100322  0.51224229  0.86389341  1
  O  O160  1  0.76549327  -0.00578632  0.36958998  1
  O  O161  1  0.75863281  0.01128489  0.87438264  1
  O  O162  1  0.76199981  0.49104146  0.36779998  1
  O  O163  1  0.72832621  0.50883310  0.85764792  1
  O  O164  1  0.22318621  0.48702151  0.12886845  1
  O  O165  1  0.24977659  0.50294044  0.63196766  1
  O  O166  1  0.23038313  0.96147030  0.09062504  1
  O  O167  1  0.24862693  0.98800244  0.61334151  1
  O  O168  1  0.74524717  0.49687416  0.13621325  1
  O  O169  1  0.73028915  0.47890688  0.61030763  1
  O  O170  1  0.74740497  0.99715332  0.12262387  1
  O  O171  1  0.75739342  0.99508415  0.64501086  1
  O  O172  1  0.00518564  0.37825590  0.27071376  1
  O  O173  1  0.01527131  0.37888115  0.72922891  1
  O  O174  1  -0.00909434  0.85453091  0.24787352  1
  O  O175  1  0.02425275  0.87505951  0.74797100  1
  O  O176  1  0.50269308  0.36981046  0.21660576  1
  O  O177  1  0.49353953  0.36119141  0.77116449  1
  O  O178  1  0.50687151  0.87840667  0.26389501  1
  O  O179  1  0.50711304  0.86983169  0.75402250  1
  O  O180  1  0.51107874  0.14511633  0.22115639  1
  O  O181  1  0.50341836  0.13598099  0.75098096  1
  O  O182  1  0.48052135  0.62704509  0.24913873  1
  O  O183  1  0.49758235  0.62946895  0.74145280  1
  O  O184  1  1.01127795  0.12507753  0.23603714  1
  O  O185  1  1.00567000  0.12379162  0.72232758  1
  O  O186  1  0.98301337  0.62573924  0.26197469  1
  O  O187  1  1.01933810  0.62438250  0.73201690  1
  O  O188  1  0.36831135  0.25777485  0.00618661  1
  O  O189  1  0.41732710  0.25490114  0.46876695  1
  O  O190  1  0.37253557  0.76006255  -0.00190628  1
  O  O191  1  0.37186488  0.74756375  0.50531882  1
  O  O192  1  0.90714991  0.27971651  0.00017456  1
  O  O193  1  0.87392910  0.26152716  0.50768050  1
  O  O194  1  0.85581936  0.76461852  -0.00730626  1
  O  O195  1  0.86794460  0.77042799  0.49538350  1
  O  O196  1  0.12644680  0.23906077  0.49483874  1
  O  O197  1  0.11575539  0.25715618  0.97912684  1
  O  O198  1  0.13547632  0.74514763  0.49164395  1
  O  O199  1  0.15079423  0.76177101  0.98235026  1
  O  O200  1  0.57888697  0.26751473  0.47251908  1
  O  O201  1  0.62728809  0.25458527  0.98719518  1
  O  O202  1  0.63437965  0.75046616  0.48493843  1
  O  O203  1  0.62940119  0.74459090  1.00020649  1
  O  O204  1  0.49393850  0.23676912  0.10965816  1
  O  O205  1  0.48418299  0.25519206  0.65211623  1
  O  O206  1  0.49400681  0.76228438  0.13354086  1
  O  O207  1  0.49346110  0.74476438  0.62809781  1
  O  O208  1  0.99842140  0.23165825  0.13472652  1
  O  O209  1  0.99594113  0.24250256  0.62302458  1
  O  O210  1  1.00274744  0.73647681  0.14660801  1
  O  O211  1  1.00054434  0.74036410  0.62733499  1
  O  O212  1  0.00935965  0.26206461  0.38823357  1
  O  O213  1  0.01179513  0.24755950  0.86289731  1
  O  O214  1  0.01027081  0.74836648  0.37718425  1
  O  O215  1  -0.06487139  0.73870358  0.82649697  1
  O  O216  1  0.49203385  0.26281919  0.33457691  1
  O  O217  1  0.51060835  0.25709203  0.87832189  1
  O  O218  1  0.51593674  0.75765422  0.37236420  1
  O  O219  1  0.50995875  0.75903895  0.86907486  1
  O  O220  1  0.24100278  0.12731822  0.50592295  1
  O  O221  1  0.29336808  0.09141554  0.93201637  1
  O  O222  1  0.24426987  0.63386594  0.50680392  1
  O  O223  1  0.25951150  0.63208601  0.98447009  1
  O  O224  1  0.70898181  0.09094659  0.50875569  1
  O  O225  1  0.76078027  0.13265369  0.99742860  1
  O  O226  1  0.76419383  0.61894261  0.50368987  1
  O  O227  1  0.74519819  0.64458466  1.00903123  1
  O  O228  1  0.23104849  0.37768980  0.01012664  1
  O  O229  1  0.25363883  0.37111236  0.51386200  1
  O  O230  1  0.26832919  0.86294516  -0.02110707  1
  O  O231  1  0.26817492  0.86407975  0.50332457  1
  O  O232  1  0.75229311  0.38373750  0.01737839  1
  O  O233  1  0.75434845  0.36781961  0.48399158  1
  O  O234  1  0.74486210  0.87314043  0.01538468  1
  O  O235  1  0.74084060  0.88219956  0.52335208  1
  O  O236  1  0.12222448  0.48600854  0.26283143  1
  O  O237  1  0.14199863  0.48815169  0.74775820  1
  O  O238  1  0.16421579  1.01185321  0.25919934  1
  O  O239  1  0.13097318  0.99133245  0.72724509  1
  O  O240  1  0.63203657  0.50294395  0.23932750  1
  O  O241  1  0.63190648  0.50051809  0.72687975  1
  O  O242  1  0.61634335  0.98861799  0.25935755  1
  O  O243  1  0.64367882  0.98964244  0.76442776  1
  O  O244  1  0.34104465  -0.00540789  0.21776322  1
  O  O245  1  0.30351724  0.07781173  0.74554997  1
  O  O246  1  0.36847859  0.50680143  0.25948251  1
  O  O247  1  0.36511825  0.50970561  0.73950009  1
  O  O248  1  0.88547925  0.00342072  0.27008695  1
  O  O249  1  0.86227826  -0.01218230  0.76658282  1
  O  O250  1  0.87086606  0.51050329  0.26749189  1
  O  O251  1  0.86386394  0.49607647  0.76612096  1
  O  O252  1  0.11719558  0.36671373  0.37528291  1
  O  O253  1  0.12907221  0.36928199  0.85021366  1
  O  O254  1  0.12729957  0.85984568  0.38240405  1
  O  O255  1  0.14593167  0.89740446  0.86041424  1
  O  O256  1  0.60361689  0.38398034  0.35187894  1
  O  O257  1  0.62927545  0.36758197  0.87625239  1
  O  O258  1  0.62073353  0.86766027  0.36726050  1
  O  O259  1  0.61579805  0.86943191  0.86770759  1
  O  O260  1  0.35010378  0.13773248  0.10645820  1
  O  O261  1  0.39545675  0.11499937  0.63441263  1
  O  O262  1  0.36188093  0.62700992  0.14301453  1
  O  O263  1  0.38388115  0.63190234  0.63092010  1
  O  O264  1  0.89689149  0.12121039  0.13653511  1
  O  O265  1  0.88346858  0.13836223  0.60896296  1
  O  O266  1  0.87826299  0.61717114  0.13789478  1
  O  O267  1  0.89626255  0.61997367  0.62573602  1
  O  O268  1  0.24258432  0.25732910  0.12000920  1
  O  O269  1  0.26649296  0.25262187  0.63157640  1
  O  O270  1  0.25401266  0.75864964  0.10442333  1
  O  O271  1  0.26230363  0.75739829  0.61482776  1
  O  O272  1  0.75083674  0.27066424  0.13686776  1
  O  O273  1  0.75770484  0.23897738  0.62840889  1
  O  O274  1  0.74715547  0.76374013  0.11677697  1
  O  O275  1  0.75324393  0.76478748  0.62909909  1
  O  O276  1  0.23962319  0.26011150  0.38609564  1
  O  O277  1  0.23258758  0.25298997  0.86772301  1
  O  O278  1  0.24305902  0.75373152  0.38459357  1
  O  O279  1  0.26257318  0.73271425  0.87586706  1
  O  O280  1  0.72642035  0.21144841  0.34247806  1
  O  O281  1  0.74319801  0.23664145  0.86892083  1
  O  O282  1  0.73938888  0.75822878  0.37476971  1
  O  O283  1  0.73359837  0.76525947  0.89329940  1
  O  O284  1  -0.00736370  0.13059280  0.02732136  1
  O  O285  1  0.01658107  0.12703662  0.51390579  1
  O  O286  1  0.01717409  0.67988051  -0.01431478  1
  O  O287  1  0.00491650  0.61389290  0.50983277  1
  O  O288  1  0.49673092  0.11286752  0.00137677  1
  O  O289  1  0.49936763  0.11471691  0.52263174  1
  O  O290  1  0.51021050  0.63220118  0.00473730  1
  O  O291  1  0.49732398  0.61563028  0.51041771  1
  O  O292  1  0.49237300  0.39618621  0.49566772  1
  O  O293  1  0.50308401  0.38452351  0.98103068  1
  O  O294  1  0.48978659  0.86338324  0.49512498  1
  O  O295  1  0.49281984  0.88233021  0.99285451  1
  O  O296  1  1.00719377  0.38538884  0.49561723  1
  O  O297  1  0.95346214  0.33579065  1.01899716  1
  O  O298  1  0.99543800  0.87275266  0.50185974  1
  O  O299  1  0.98270856  0.85980197  1.01015956  1
  O  O300  1  0.50256067  0.51011165  0.38683777  1
  O  O301  1  0.50112579  0.49415772  0.86428539  1
  O  O302  1  0.51806957  0.97724143  0.39204197  1
  O  O303  1  0.50381459  0.99371644  0.88578484  1
  O  O304  1  0.98533132  0.49235911  0.38847284  1
  O  O305  1  0.99626977  0.48840667  0.86863316  1
  O  O306  1  0.98378659  1.00871602  0.36329677  1
  O  O307  1  0.98486472  1.01080604  0.86219879  1
  O  O308  1  0.00431651  0.02026648  0.13197174  1
  O  O309  1  0.01133939  0.00458594  0.62187945  1
  O  O310  1  0.01786024  0.49565924  0.13052504  1
  O  O311  1  -0.00523860  0.50104936  0.61188021  1
  O  O312  1  0.49414361  0.01801268  0.11553729  1
  O  O313  1  0.52252751  0.01028055  0.64529414  1
  O  O314  1  0.51937696  0.50795134  0.13181842  1
  O  O315  1  0.51133790  0.50600303  0.62004060  1
  O  O316  1  0.23250829  0.37917364  0.24709975  1
  O  O317  1  0.25470938  0.38709508  0.73883474  1
  O  O318  1  0.23848567  0.86138266  0.23265812  1
  O  O319  1  0.24737995  0.87393541  0.73442140  1
  O  O320  1  0.73008206  0.38556030  0.24309815  1
  O  O321  1  0.74918799  0.39228341  0.74570383  1
  O  O322  1  0.74288104  0.87864228  0.23801909  1
  O  O323  1  0.74555771  0.88086947  0.74290042  1
  O  O324  1  0.26466306  0.13412273  0.27137644  1
  O  O325  1  0.25194911  0.12572835  0.76583792  1
  O  O326  1  0.25912024  0.62757377  0.25637751  1
  O  O327  1  0.25701085  0.61698761  0.75363770  1
  O  O328  1  0.68467763  0.14855701  0.31924097  1
  O  O329  1  0.75130567  0.11199981  0.76059188  1
  O  O330  1  0.76342240  0.61566935  0.24774401  1
  O  O331  1  0.75749747  0.59701849  0.71553175  1
  O  O332  1  0.42935576  0.08776306  0.34286101  1
  O  O333  1  0.35814875  0.11068206  0.89103035  1
  O  O334  1  0.37712013  0.61166013  0.36550500  1
  O  O335  1  0.37733324  0.62684516  0.85897169  1
  O  O336  1  0.86503720  0.11246745  0.40218232  1
  O  O337  1  0.86531122  0.11370263  0.88439356  1
  O  O338  1  0.87485608  0.61148649  0.38606489  1
  O  O339  1  0.86233691  0.59407914  0.88748429  1
  O  O340  1  0.12320676  0.36687021  0.14205359  1
  O  O341  1  0.14872116  0.36482835  0.63668035  1
  O  O342  1  0.12162645  0.84581866  0.11679648  1
  O  O343  1  0.13618017  0.88691594  0.61545429  1
  O  O344  1  0.63137782  0.39520109  0.12378670  1
  O  O345  1  0.61594863  0.36863969  0.62236963  1
  O  O346  1  0.63287906  0.88007034  0.13930352  1
  O  O347  1  0.62936814  0.86822419  0.64079995  1
  O  O348  1  0.12736338  0.26134581  0.27194430  1
  O  O349  1  0.12010224  0.25982280  0.75079605  1
  O  O350  1  0.11199059  0.73854686  0.26681792  1
  O  O351  1  0.13553117  0.76953965  0.75047195  1
  O  O352  1  0.61355230  0.27298035  0.23184934  1
  O  O353  1  0.61446848  0.24638253  0.77442287  1
  O  O354  1  0.62706727  0.76405218  0.25950394  1
  O  O355  1  0.62421372  0.75577001  0.76121347  1
  O  O356  1  0.38605199  0.25343086  0.21412231  1
  O  O357  1  0.38595072  0.24040770  0.78034425  1
  O  O358  1  0.37511379  0.74058954  0.25633332  1
  O  O359  1  0.38213572  0.74226822  0.73805046  1
  O  O360  1  0.88308309  0.24288994  0.27751283  1
  O  O361  1  0.87612125  0.26160859  0.72926583  1
  O  O362  1  0.88235073  0.73456822  0.25910056  1
  O  O363  1  0.87026310  0.74019985  0.77434794  1
  O  O364  1  0.38717992  0.50715870  0.48553587  1
  O  O365  1  0.38430606  0.48281761  1.06078250  1
  O  O366  1  0.37877626  0.98198610  0.50508293  1
  O  O367  1  0.38498743  0.98388014  1.00506396  1
  O  O368  1  0.88167096  0.48336701  0.49431745  1
  O  O369  1  0.87463012  0.50721315  0.98275859  1
  O  O370  1  0.87399853  0.98326438  0.49242524  1
  O  O371  1  0.88131894  0.99037232  0.99232046  1
  O  O372  1  0.09605034  0.00726580  -0.01176416  1
  O  O373  1  0.13025288  0.01226641  0.50671479  1
  O  O374  1  0.11763677  0.50121438  0.00302383  1
  O  O375  1  0.11104068  0.50639781  0.49525176  1
  O  O376  1  0.60805218  -0.00917438  0.00316191  1
  O  O377  1  0.65666994  0.03827179  0.49748073  1
  O  O378  1  0.63211065  0.52010775  0.01025459  1
  O  O379  1  0.61099576  0.49330249  0.50883361  1
  O  O380  1  0.34281570  0.36574303  0.12610349  1
  O  O381  1  0.36438671  0.37953575  0.62793448  1
  O  O382  1  0.37249528  0.87114464  0.10951242  1
  O  O383  1  0.37550044  0.86464523  0.61539793  1
  O  O384  1  0.85987293  0.38899327  0.14018710  1
  O  O385  1  0.86919164  0.36604264  0.60916439  1
  O  O386  1  0.86105212  0.88791086  0.11482270  1
  O  O387  1  0.86729374  0.88166405  0.61800950  1
  O  O388  1  0.12253552  0.13714160  0.38736551  1
  O  O389  1  0.12643576  0.13683654  0.86369573  1
  O  O390  1  0.11974827  0.63435288  0.39285473  1
  O  O391  1  0.14038694  0.62449664  0.86722944  1
  O  O392  1  0.62509530  0.13106851  0.36762612  1
  O  O393  1  0.64384302  0.12244185  0.88410011  1
  O  O394  1  0.62767696  0.63863517  0.36298156  1
  O  O395  1  0.61889834  0.63730936  0.89018022  1
