# generated using pymatgen
data_V35Zn35O128
_symmetry_space_group_name_H-M   'P 1'
_cell_length_a   16.91833893
_cell_length_b   16.92186090
_cell_length_c   16.90174961
_cell_angle_alpha   89.99662378
_cell_angle_beta   89.96207779
_cell_angle_gamma   89.96066422
_symmetry_Int_Tables_number   1
_chemical_formula_structural   V35Zn35O128
_chemical_formula_sum   'V70 Zn70 O256'
_cell_volume   4838.79593583
_cell_formula_units_Z   2
loop_
 _symmetry_equiv_pos_site_id
 _symmetry_equiv_pos_as_xyz
  1  'x, y, z'
loop_
 _atom_site_type_symbol
 _atom_site_label
 _atom_site_symmetry_multiplicity
 _atom_site_fract_x
 _atom_site_fract_y
 _atom_site_fract_z
 _atom_site_occupancy
  V  V0  1  0.50456087  0.86230364  0.85279315  1
  V  V1  1  0.37144243  0.61621569  0.75497893  1
  V  V2  1  0.12544481  0.38400825  0.75179034  1
  V  V3  1  0.85392710  0.74038420  0.11363738  1
  V  V4  1  0.62213404  0.12697184  0.00130550  1
  V  V5  1  0.38562678  0.87515430  0.00349862  1
  V  V6  1  0.74035183  0.88852962  0.11214502  1
  V  V7  1  0.75273081  0.37763091  0.63876629  1
  V  V8  1  0.63701069  0.62914202  0.50061599  1
  V  V9  1  0.88257072  0.64667336  0.74001307  1
  V  V10  1  0.13595204  0.11617503  0.50017697  1
  V  V11  1  0.50264172  0.62083081  0.64331043  1
  V  V12  1  0.00334480  0.64448856  0.61206888  1
  V  V13  1  0.00125054  0.12462811  0.62601276  1
  V  V14  1  0.86544176  0.63365234  0.26221792  1
  V  V15  1  0.11472651  0.85605981  0.74996348  1
  V  V16  1  0.73737620  0.24529612  0.49163184  1
  V  V17  1  0.37189213  -0.00682636  0.85963628  1
  V  V18  1  0.25692041  0.24937869  0.00736555  1
  V  V19  1  0.11413848  0.62856133  0.00446033  1
  V  V20  1  0.24752359  0.24696096  0.50383304  1
  V  V21  1  0.61538225  0.24882727  0.86184979  1
  V  V22  1  0.24669143  0.48558809  0.24457763  1
  V  V23  1  0.12677472  -0.00409137  0.13264292  1
  V  V24  1  0.25047659  0.11554329  0.86664127  1
  V  V25  1  0.00396232  0.38967163  0.88403850  1
  V  V26  1  0.13816129  0.76414027  0.35550669  1
  V  V27  1  0.63139205  0.49139064  0.64916172  1
  V  V28  1  0.74865554  0.65042190  0.87082309  1
  V  V29  1  0.86739809  0.49420134  0.37693039  1
  V  V30  1  0.38397542  0.23905373  0.64658593  1
  V  V31  1  0.87287347  0.00262548  0.86892538  1
  V  V32  1  0.72791482  0.01731593  0.25855845  1
  V  V33  1  0.37859069  0.50476554  0.37938498  1
  V  V34  1  0.46559422  0.63024793  0.15470916  1
  V  V35  1  0.86207857  0.50148022  0.86231513  1
  V  V36  1  0.51182937  0.36772441  0.37377305  1
  V  V37  1  0.00320392  0.63736264  0.14500907  1
  V  V38  1  0.36856160  0.49637194  0.89016467  1
  V  V39  1  0.86053112  0.25121121  0.11568007  1
  V  V40  1  0.85858084  0.38538005  0.00303287  1
  V  V41  1  0.00876826  0.48482260  0.50330382  1
  V  V42  1  0.58440903  0.62013696  0.01915752  1
  V  V43  1  0.86270453  0.12473399  0.25160887  1
  V  V44  1  0.11521648  0.49259336  0.12851221  1
  V  V45  1  0.24488155  0.38010760  0.63577925  1
  V  V46  1  -0.04555522  0.95172528  0.40673553  1
  V  V47  1  0.37860709  0.74409046  0.63050521  1
  V  V48  1  0.23983751  0.62590421  0.87409256  1
  V  V49  1  0.62779658  0.84670127  0.25472740  1
  V  V50  1  -0.00168813  0.00836793  0.00501886  1
  V  V51  1  0.37776604  0.37109946  0.50609138  1
  V  V52  1  0.75866591  0.13720086  0.86749630  1
  V  V53  1  -0.00192267  0.86322864  0.88008215  1
  V  V54  1  0.88068030  0.25109619  0.61868594  1
  V  V55  1  0.50429152  0.37994792  0.87080921  1
  V  V56  1  0.13096241  0.00237850  0.63854893  1
  V  V57  1  0.76214272  0.89227979  0.61667144  1
  V  V58  1  0.23959218  0.61496089  0.38259557  1
  V  V59  1  0.50733698  0.49563285  0.51050044  1
  V  V60  1  0.50704166  0.86384544  0.41417467  1
  V  V61  1  0.12203954  0.24128047  0.88606311  1
  V  V62  1  0.24747009  0.75736241  0.00411247  1
  V  V63  1  0.24030459  0.73585320  0.51406171  1
  V  V64  1  0.74235246  0.49306056  0.23377806  1
  V  V65  1  0.38062417  -0.00662363  0.38611430  1
  V  V66  1  -0.00223345  0.24746862  0.75012522  1
  V  V67  1  0.25553919  0.87876898  0.62873472  1
  V  V68  1  0.26674362  0.12537949  0.36372567  1
  V  V69  1  0.51392472  0.02741193  0.51376892  1
  Zn  Zn70  1  0.37095899  0.37268050  0.00870568  1
  Zn  Zn71  1  0.01296195  0.14192707  0.11730354  1
  Zn  Zn72  1  0.24466357  0.87611259  0.14988732  1
  Zn  Zn73  1  0.00051996  0.26430181  0.25562411  1
  Zn  Zn74  1  0.12880246  0.51041271  0.62377973  1
  Zn  Zn75  1  0.87375086  0.37195107  0.49312489  1
  Zn  Zn76  1  0.19080860  0.17020545  0.17726138  1
  Zn  Zn77  1  0.18622494  0.19712569  0.68993820  1
  Zn  Zn78  1  0.26296119  0.69623986  0.20454653  1
  Zn  Zn79  1  0.18218957  0.68311168  0.69488045  1
  Zn  Zn80  1  0.69064204  0.19941177  0.17229745  1
  Zn  Zn81  1  0.70113448  0.19074321  0.69318521  1
  Zn  Zn82  1  0.67819189  0.66261208  0.18667406  1
  Zn  Zn83  1  0.67211420  0.66967854  0.71947864  1
  Zn  Zn84  1  0.18422400  0.29529137  0.30896704  1
  Zn  Zn85  1  0.30757145  0.31190472  0.81834701  1
  Zn  Zn86  1  0.35033191  0.78922610  0.36034910  1
  Zn  Zn87  1  0.30742307  0.80847486  0.81109379  1
  Zn  Zn88  1  0.81178269  0.31264306  0.30711927  1
  Zn  Zn89  1  0.81988648  0.31304681  0.81353786  1
  Zn  Zn90  1  0.85508101  0.85303361  0.27151575  1
  Zn  Zn91  1  0.81988205  0.82190379  0.80537846  1
  Zn  Zn92  1  0.18972236  0.42931009  0.44538967  1
  Zn  Zn93  1  0.18946283  0.43907250  0.94895371  1
  Zn  Zn94  1  0.19586330  0.93769123  0.44131705  1
  Zn  Zn95  1  0.17432957  0.93826373  0.93458465  1
  Zn  Zn96  1  0.69216008  0.43363631  0.44770774  1
  Zn  Zn97  1  0.68032216  0.44749196  0.93747959  1
  Zn  Zn98  1  0.67625404  0.94525392  0.42937999  1
  Zn  Zn99  1  0.68592944  0.93901385  0.93843740  1
  Zn  Zn100  1  0.29087428  0.05258893  0.04328079  1
  Zn  Zn101  1  0.32471470  0.06128984  0.56998169  1
  Zn  Zn102  1  0.31407417  0.57096933  0.06787172  1
  Zn  Zn103  1  0.31580244  0.55911885  0.56649885  1
  Zn  Zn104  1  0.80877873  0.06051187  0.04836575  1
  Zn  Zn105  1  0.82700582  0.06930568  0.53699883  1
  Zn  Zn106  1  0.81345478  0.56532525  0.05374056  1
  Zn  Zn107  1  0.82015786  0.56172143  0.56516137  1
  Zn  Zn108  1  0.45419952  0.45106385  0.20195665  1
  Zn  Zn109  1  0.43275725  0.43484453  0.69484584  1
  Zn  Zn110  1  0.43758037  0.82055668  0.18411808  1
  Zn  Zn111  1  0.43638387  0.94215677  0.68483292  1
  Zn  Zn112  1  0.93142969  0.44180921  0.18739380  1
  Zn  Zn113  1  0.94275086  0.43410987  0.68724782  1
  Zn  Zn114  1  0.97733201  0.98982931  0.22915675  1
  Zn  Zn115  1  0.94542827  0.94905051  0.69463270  1
  Zn  Zn116  1  0.07295271  0.11756358  0.30348807  1
  Zn  Zn117  1  0.05901659  0.05870289  0.81480669  1
  Zn  Zn118  1  0.05865845  0.44311130  0.31717448  1
  Zn  Zn119  1  0.05809692  0.57003142  0.80687466  1
  Zn  Zn120  1  0.51530229  -0.00360829  0.24869772  1
  Zn  Zn121  1  0.58204912  0.02924741  0.85713560  1
  Zn  Zn122  1  0.56614434  0.56637745  0.31743107  1
  Zn  Zn123  1  0.56822060  0.55937735  0.83884275  1
  Zn  Zn124  1  0.43967634  0.19020057  0.44683422  1
  Zn  Zn125  1  0.43348399  0.18014778  0.92532684  1
  Zn  Zn126  1  0.44520166  0.68221283  0.45612690  1
  Zn  Zn127  1  0.43198600  0.69630775  0.93207927  1
  Zn  Zn128  1  0.95316566  0.12729804  0.42129585  1
  Zn  Zn129  1  0.93362571  0.19249770  0.94197730  1
  Zn  Zn130  1  1.00862980  0.63342029  0.39343582  1
  Zn  Zn131  1  0.93221999  0.68443109  0.93693567  1
  Zn  Zn132  1  0.05321080  0.31315275  0.06616909  1
  Zn  Zn133  1  0.05156457  0.29357775  0.43896630  1
  Zn  Zn134  1  0.05974882  0.81506608  0.06742921  1
  Zn  Zn135  1  0.06187274  0.82681991  0.54260232  1
  Zn  Zn136  1  0.53808673  0.27291161  0.02366402  1
  Zn  Zn137  1  0.56431913  0.30689489  0.57314312  1
  Zn  Zn138  1  0.56580467  0.79490277  0.05887022  1
  Zn  Zn139  1  0.58253688  0.79800709  0.60109299  1
  O  O140  1  0.12216221  0.10488879  0.11328073  1
  O  O141  1  0.12829847  0.11955278  0.62340537  1
  O  O142  1  0.11077210  0.62454893  0.11837534  1
  O  O143  1  0.10795064  0.62325153  0.63310661  1
  O  O144  1  0.63559892  0.13354766  0.10048579  1
  O  O145  1  0.61775544  0.11769166  0.64786654  1
  O  O146  1  0.59670512  0.61301847  0.12285972  1
  O  O147  1  0.61993725  0.60580037  0.63218065  1
  O  O148  1  0.38171514  0.38841868  0.39987588  1
  O  O149  1  0.36964801  0.39146057  0.87399004  1
  O  O150  1  0.38784030  0.88821042  0.40311910  1
  O  O151  1  0.38082473  0.87555695  0.87382037  1
  O  O152  1  0.88027300  0.39177773  0.37121663  1
  O  O153  1  0.88553398  0.38394412  0.87967985  1
  O  O154  1  0.86176189  0.90068179  0.37942406  1
  O  O155  1  0.89108114  0.88903917  0.86446275  1
  O  O156  1  0.27169334  0.00951816  0.38759581  1
  O  O157  1  0.24447771  0.01131326  0.87532158  1
  O  O158  1  0.26082894  0.50429083  0.39125334  1
  O  O159  1  0.25812335  0.51171918  0.88346514  1
  O  O160  1  0.73384812  0.01140757  0.35793675  1
  O  O161  1  0.76891892  -0.00437196  0.87618307  1
  O  O162  1  0.76578722  0.49958958  0.37934433  1
  O  O163  1  0.76207975  0.49748905  0.86336580  1
  O  O164  1  0.24848323  0.50176815  0.14229051  1
  O  O165  1  0.24668027  0.48449776  0.62011430  1
  O  O166  1  0.23319574  0.99380097  0.12332342  1
  O  O167  1  0.25160273  0.98311708  0.62463751  1
  O  O168  1  0.75241634  0.51070139  0.13363589  1
  O  O169  1  0.74242904  0.48829652  0.62829141  1
  O  O170  1  0.74470682  0.99012209  0.12104554  1
  O  O171  1  0.77210150  0.99807572  0.61580626  1
  O  O172  1  -0.00187852  0.37786696  0.24957522  1
  O  O173  1  0.00669925  0.36687093  0.76215285  1
  O  O174  1  -0.03972986  0.90032434  0.29656757  1
  O  O175  1  0.00960547  0.87724156  0.75424783  1
  O  O176  1  0.49831754  0.38159631  0.27385906  1
  O  O177  1  0.49167759  0.37588256  0.77048147  1
  O  O178  1  0.52399006  0.87690719  0.23881259  1
  O  O179  1  0.49482737  0.87137158  0.75314619  1
  O  O180  1  0.49416683  0.07728851  0.15804750  1
  O  O181  1  0.57250091  0.09563758  0.70825051  1
  O  O182  1  0.48819395  0.62376224  0.25315821  1
  O  O183  1  0.49148084  0.61431322  0.74855289  1
  O  O184  1  0.97010031  0.11281580  0.22603288  1
  O  O185  1  1.01478247  0.13660367  0.73785188  1
  O  O186  1  0.98982116  0.62876038  0.24414988  1
  O  O187  1  0.99054815  0.62572500  0.73568664  1
  O  O188  1  0.35934674  0.24851946  -0.01395592  1
  O  O189  1  0.36645682  0.25673556  0.51502778  1
  O  O190  1  0.35800023  0.76510661  -0.00931261  1
  O  O191  1  0.36116104  0.73941897  0.52203246  1
  O  O192  1  0.87712675  0.27107523  0.00562528  1
  O  O193  1  0.87601357  0.25222078  0.51538927  1
  O  O194  1  0.87520073  0.74427284  0.01630390  1
  O  O195  1  0.83305911  0.74432315  0.44358172  1
  O  O196  1  0.14096513  0.23722268  0.50405661  1
  O  O197  1  0.12595176  0.25688409  0.98859285  1
  O  O198  1  0.14142341  0.75151180  0.49469418  1
  O  O199  1  0.13089992  0.73509796  1.00227505  1
  O  O200  1  0.63812831  0.25376474  0.50843871  1
  O  O201  1  0.63869647  0.24283316  0.97299275  1
  O  O202  1  0.62509145  0.72712168  0.52068247  1
  O  O203  1  0.61761447  0.71288739  0.99496990  1
  O  O204  1  0.58706459  0.31000912  0.13191961  1
  O  O205  1  0.48213922  0.25922917  0.63133152  1
  O  O206  1  0.49345494  0.73601780  0.13072770  1
  O  O207  1  0.48773842  0.73232084  0.62820986  1
  O  O208  1  0.98316193  0.25298324  0.12927080  1
  O  O209  1  0.99752670  0.24115639  0.63498137  1
  O  O210  1  0.99025320  0.73942240  0.12503235  1
  O  O211  1  1.00568916  0.74318086  0.60172871  1
  O  O212  1  0.00733470  0.21619212  0.36816633  1
  O  O213  1  0.00814549  0.25662832  0.87162720  1
  O  O214  1  0.03958969  0.74071741  0.36797909  1
  O  O215  1  -0.00896590  0.76424045  0.87800788  1
  O  O216  1  0.49262842  0.27018651  0.38758728  1
  O  O217  1  0.50924926  0.25536087  0.86500809  1
  O  O218  1  0.47030930  0.76703368  0.38323562  1
  O  O219  1  0.50095767  0.76257153  0.86920747  1
  O  O220  1  0.24754552  0.13211284  0.51239349  1
  O  O221  1  0.24623812  0.13864250  0.97904522  1
  O  O222  1  0.24796175  0.62883502  0.50397564  1
  O  O223  1  0.24490966  0.63653295  0.99422058  1
  O  O224  1  0.75388729  0.14558170  0.50560965  1
  O  O225  1  0.73572593  0.11685161  0.97694379  1
  O  O226  1  0.73604938  0.61251434  0.51089016  1
  O  O227  1  0.75815565  0.62083470  0.96798850  1
  O  O228  1  0.25211644  0.35809111  0.00012022  1
  O  O229  1  0.25760417  0.36501436  0.51353175  1
  O  O230  1  0.24079663  0.85843378  -0.01560670  1
  O  O231  1  0.24630148  0.85865530  0.52324354  1
  O  O232  1  0.75932038  0.38488590  -0.00755744  1
  O  O233  1  0.75690695  0.36622522  0.51666633  1
  O  O234  1  0.73921754  0.87317671  0.01347994  1
  O  O235  1  0.75914299  0.89667964  0.51126844  1
  O  O236  1  0.13680347  0.50025260  0.24061418  1
  O  O237  1  0.11586920  0.48703872  0.74640516  1
  O  O238  1  0.10357993  1.00958484  0.23177542  1
  O  O239  1  0.12657992  0.99567048  0.74125044  1
  O  O240  1  0.64410191  0.51135570  0.25589449  1
  O  O241  1  0.62305216  0.49617796  0.74696711  1
  O  O242  1  0.62699376  1.01663862  0.24205143  1
  O  O243  1  0.59071082  1.02483090  0.73886881  1
  O  O244  1  0.40948232  0.00605119  0.28882008  1
  O  O245  1  0.35920561  -0.01288799  0.76060319  1
  O  O246  1  0.36340182  0.49153550  0.27636465  1
  O  O247  1  0.36943859  0.51097680  0.76065540  1
  O  O248  1  0.84647016  0.01862377  0.23739661  1
  O  O249  1  0.89118661  0.01452637  0.76959841  1
  O  O250  1  0.86730035  0.51052425  0.25943096  1
  O  O251  1  0.88343580  0.49807037  0.76219102  1
  O  O252  1  0.12354956  0.36581578  0.37869959  1
  O  O253  1  0.11579433  0.37465043  0.87360632  1
  O  O254  1  0.15062360  0.86364027  0.37014958  1
  O  O255  1  0.11229145  0.87674362  0.85767369  1
  O  O256  1  0.61042116  0.38318625  0.38776259  1
  O  O257  1  0.60985756  0.37112298  0.88129971  1
  O  O258  1  0.61050276  0.86706337  0.36780055  1
  O  O259  1  0.60133594  0.90042029  0.86892229  1
  O  O260  1  0.37539569  0.10996769  0.10907016  1
  O  O261  1  0.37221455  0.13970114  0.63548576  1
  O  O262  1  0.35952419  0.64247192  0.14717826  1
  O  O263  1  0.38266083  0.62241414  0.63700166  1
  O  O264  1  0.85916885  0.14663878  0.11185279  1
  O  O265  1  0.89736652  0.12992600  0.61672150  1
  O  O266  1  0.88774310  0.62676846  0.13209775  1
  O  O267  1  0.88785822  0.62616881  0.63233469  1
  O  O268  1  0.25028296  0.23578277  0.10646093  1
  O  O269  1  0.25852042  0.26129832  0.62361308  1
  O  O270  1  0.24569517  0.75934726  0.10702512  1
  O  O271  1  0.25111722  0.74562914  0.62317259  1
  O  O272  1  0.76258895  0.27290350  0.12606356  1
  O  O273  1  0.76142222  0.25894143  0.62337768  1
  O  O274  1  0.75699728  0.71421271  0.11605914  1
  O  O275  1  0.76834835  0.79028038  0.60640686  1
  O  O276  1  0.25425709  0.23275896  0.38867230  1
  O  O277  1  0.23250936  0.24687290  0.87961625  1
  O  O278  1  0.25546651  0.73123570  0.39474000  1
  O  O279  1  0.24859719  0.73180643  0.88164071  1
  O  O280  1  0.75439983  0.26454313  0.39304262  1
  O  O281  1  0.75343765  0.24067845  0.87031263  1
  O  O282  1  0.77047394  0.75017104  0.40754903  1
  O  O283  1  0.76297548  0.74974467  0.87061384  1
  O  O284  1  -0.00557696  0.11408208  0.00229102  1
  O  O285  1  0.02794724  0.13269044  0.51719903  1
  O  O286  1  0.01267781  0.62601012  -0.00025795  1
  O  O287  1  -0.00123814  0.61136484  0.51252535  1
  O  O288  1  0.51559512  0.15722774  0.00113224  1
  O  O289  1  0.51385493  0.12771091  0.50375344  1
  O  O290  1  0.48186803  0.62717196  0.00838893  1
  O  O291  1  0.50614030  0.61085249  0.52342902  1
  O  O292  1  0.49563755  0.38281833  0.50639920  1
  O  O293  1  0.48209031  0.36077799  0.97997299  1
  O  O294  1  0.52320210  0.85558195  0.51115681  1
  O  O295  1  0.48761188  0.86630619  0.99450784  1
  O  O296  1  0.99517920  0.38176053  0.49563513  1
  O  O297  1  0.99674817  0.37713760  0.98459752  1
  O  O298  1  1.00894252  0.89562592  0.47097426  1
  O  O299  1  1.00508987  0.87958304  0.98385968  1
  O  O300  1  0.49012811  0.49605639  0.39006872  1
  O  O301  1  0.48194228  0.49070974  0.87720594  1
  O  O302  1  0.50145164  0.97652756  0.40588473  1
  O  O303  1  0.47333788  0.99283188  0.86985870  1
  O  O304  1  0.99704265  0.51132711  0.39006745  1
  O  O305  1  0.99736693  0.49080884  0.87283277  1
  O  O306  1  1.01103463  1.03028982  0.36404222  1
  O  O307  1  0.99540749  0.99669787  0.88629611  1
  O  O308  1  -0.00054892  -0.00819846  0.11018980  1
  O  O309  1  0.01334598  0.01766361  0.63038402  1
  O  O310  1  0.01139323  0.51530260  0.13228440  1
  O  O311  1  0.00001211  0.49687846  0.61085632  1
  O  O312  1  0.43411715  0.05635941  0.11321025  1
  O  O313  1  0.49172399  0.00072087  0.61041918  1
  O  O314  1  0.46421593  0.52852182  0.12599418  1
  O  O315  1  0.51122344  0.49787001  0.62918794  1
  O  O316  1  0.24544941  0.38701130  0.26105972  1
  O  O317  1  0.24181513  0.37348988  0.74285472  1
  O  O318  1  0.29405211  0.85736600  0.25331765  1
  O  O319  1  0.23103811  0.86121056  0.73714567  1
  O  O320  1  0.75590586  0.39386033  0.24810494  1
  O  O321  1  0.75680447  0.37136561  0.73800772  1
  O  O322  1  0.72795965  0.89282379  0.24905039  1
  O  O323  1  0.76155091  0.88735847  0.72159127  1
  O  O324  1  0.25801307  0.12521762  0.26555250  1
  O  O325  1  0.24090048  0.13382079  0.76843628  1
  O  O326  1  0.25569512  0.60378280  0.27810427  1
  O  O327  1  0.24969482  0.62296816  0.76762086  1
  O  O328  1  0.74817593  0.12442329  0.23745756  1
  O  O329  1  0.74879731  0.11827148  0.76817129  1
  O  O330  1  0.76274797  0.61466663  0.25488126  1
  O  O331  1  0.77599100  0.62982789  0.75411203  1
  O  O332  1  0.36928550  0.12316373  0.38288098  1
  O  O333  1  0.36137297  0.10696405  0.87352980  1
  O  O334  1  0.37178861  0.60762500  0.39576513  1
  O  O335  1  0.36488872  0.61548997  0.87373820  1
  O  O336  1  0.86147440  0.13495436  0.34931670  1
  O  O337  1  0.86535057  0.12002468  0.88273781  1
  O  O338  1  0.88635897  0.61730763  0.36277003  1
  O  O339  1  0.87497817  0.61621486  0.86123203  1
  O  O340  1  0.11695038  0.39444455  0.11631227  1
  O  O341  1  0.14016749  0.37147276  0.63550606  1
  O  O342  1  0.12506336  0.88648187  0.12663465  1
  O  O343  1  0.12675041  0.88225394  0.63285913  1
  O  O344  1  0.59798676  0.38353305  0.13784838  1
  O  O345  1  0.63765365  0.38342644  0.62898693  1
  O  O346  1  0.63988475  0.85157265  0.13510686  1
  O  O347  1  0.65902151  0.89934900  0.61994566  1
  O  O348  1  0.11835034  0.21934833  0.25219547  1
  O  O349  1  0.11745734  0.26377711  0.76363608  1
  O  O350  1  0.16526561  0.74207312  0.26087843  1
  O  O351  1  0.11285967  0.75725049  0.74834884  1
  O  O352  1  0.61030365  0.22996639  0.26591547  1
  O  O353  1  0.63661345  0.25692730  0.76353706  1
  O  O354  1  0.63831562  0.74904752  0.25772016  1
  O  O355  1  0.63738867  0.77253894  0.69793520  1
  O  O356  1  0.41310879  0.28427870  0.15364017  1
  O  O357  1  0.37002097  0.25345251  0.74590736  1
  O  O358  1  0.34265837  0.78288246  0.24383912  1
  O  O359  1  0.36340403  0.72994391  0.74190504  1
  O  O360  1  0.87066629  0.24276557  0.23345581  1
  O  O361  1  0.89061275  0.25390311  0.74141666  1
  O  O362  1  0.86533677  0.73597672  0.24474356  1
  O  O363  1  0.88481959  0.74571126  0.74558759  1
  O  O364  1  0.38815887  0.49204891  0.50581462  1
  O  O365  1  0.36509157  0.49596630  0.99378467  1
  O  O366  1  0.39621775  1.01773988  0.49332073  1
  O  O367  1  0.35593981  0.97613834  0.98040964  1
  O  O368  1  0.88401454  0.49908474  0.48931681  1
  O  O369  1  0.87529874  0.49244249  0.98159701  1
  O  O370  1  0.90326788  1.02398034  0.46930158  1
  O  O371  1  0.88822493  0.99788397  0.98843912  1
  O  O372  1  0.10654658  -0.00407665  0.00533659  1
  O  O373  1  0.13994075  0.01069967  0.51786842  1
  O  O374  1  0.13951835  0.51726180  0.02107737  1
  O  O375  1  0.11241025  0.49235407  0.50349696  1
  O  O376  1  0.61086495  0.02518822  -0.02497397  1
  O  O377  1  0.61339197  0.00159965  0.50204234  1
  O  O378  1  0.61481043  0.53806024  -0.04032307  1
  O  O379  1  0.61690691  0.50228302  0.51619407  1
  O  O380  1  0.39363051  0.35477407  0.13561355  1
  O  O381  1  0.36365610  0.37311820  0.62365054  1
  O  O382  1  0.37089666  0.87945931  0.10493152  1
  O  O383  1  0.35921272  0.85996034  0.63976780  1
  O  O384  1  0.87782125  0.38068915  0.10574637  1
  O  O385  1  0.86734922  0.36953169  0.62543975  1
  O  O386  1  0.83773838  0.84744733  0.14322271  1
  O  O387  1  0.86911603  0.89493271  0.62128997  1
  O  O388  1  0.15195301  0.11142486  0.39650215  1
  O  O389  1  0.12530975  0.13824716  0.87437800  1
  O  O390  1  0.14154424  0.62290935  0.38552712  1
  O  O391  1  0.13309669  0.61169586  0.88816548  1
  O  O392  1  0.60089103  0.17976847  0.31906711  1
  O  O393  1  0.63101043  0.13841567  0.86950281  1
  O  O394  1  0.61524081  0.62165075  0.40180024  1
  O  O395  1  0.64919056  0.64083629  0.83532811  1
