# generated using pymatgen
data_V35Zn35O128
_symmetry_space_group_name_H-M   'P 1'
_cell_length_a   16.91773397
_cell_length_b   16.90126956
_cell_length_c   16.88544380
_cell_angle_alpha   90.03233718
_cell_angle_beta   89.79844869
_cell_angle_gamma   90.06655180
_symmetry_Int_Tables_number   1
_chemical_formula_structural   V35Zn35O128
_chemical_formula_sum   'V70 Zn70 O256'
_cell_volume   4828.04101994
_cell_formula_units_Z   2
loop_
 _symmetry_equiv_pos_site_id
 _symmetry_equiv_pos_as_xyz
  1  'x, y, z'
loop_
 _atom_site_type_symbol
 _atom_site_label
 _atom_site_symmetry_multiplicity
 _atom_site_fract_x
 _atom_site_fract_y
 _atom_site_fract_z
 _atom_site_occupancy
  V  V0  1  0.24598119  0.37937839  0.63396028  1
  V  V1  1  0.74551424  0.26059427  0.01392231  1
  V  V2  1  0.11253442  0.37515667  0.75405322  1
  V  V3  1  0.10727232  0.50611178  0.61612855  1
  V  V4  1  0.25377565  0.74454932  0.50762356  1
  V  V5  1  0.37890830  -0.01452042  0.85687338  1
  V  V6  1  0.12141762  0.37616063  0.25125877  1
  V  V7  1  0.61840154  0.01214444  0.12684192  1
  V  V8  1  0.26995642  0.24430169  0.00379756  1
  V  V9  1  0.49403850  0.01134736  0.49027652  1
  V  V10  1  0.88337462  0.01247639  0.87458145  1
  V  V11  1  0.75499844  -0.00187207  0.24093270  1
  V  V12  1  0.12423412  0.12372514  0.49467016  1
  V  V13  1  0.72867454  0.49931598  0.76485546  1
  V  V14  1  0.87748897  0.00293378  0.36314192  1
  V  V15  1  0.88421066  0.51193555  0.34352053  1
  V  V16  1  0.49836309  0.88472146  0.37394656  1
  V  V17  1  0.00281366  0.00236257  0.50696726  1
  V  V18  1  0.13590764  0.87902200  0.25134708  1
  V  V19  1  0.62839054  0.13671906  0.49040890  1
  V  V20  1  0.37430612  0.87795797  0.49999996  1
  V  V21  1  0.36855256  0.63064207  0.72806320  1
  V  V22  1  0.37384490  0.73981734  0.11123312  1
  V  V23  1  0.48763017  -0.00682345  -0.00118399  1
  V  V24  1  0.00327423  0.23740096  0.24113958  1
  V  V25  1  0.87587987  0.21895960  0.12338370  1
  V  V26  1  0.36608450  0.24470287  0.62999780  1
  V  V27  1  0.26801726  0.12666725  0.86134479  1
  V  V28  1  0.13277647  0.75455220  0.87309722  1
  V  V29  1  0.62013013  0.27156965  0.36804410  1
  V  V30  1  -0.00415158  0.37488177  0.37579392  1
  V  V31  1  0.86848125  0.87895984  0.50869881  1
  V  V32  1  0.37744774  0.37584447  0.49072358  1
  V  V33  1  -0.01163769  0.86685238  0.89708268  1
  V  V34  1  0.00621849  0.62682245  0.11928879  1
  V  V35  1  0.00361057  0.87687421  0.37512242  1
  V  V36  1  0.75447934  0.75369318  0.49801132  1
  V  V37  1  0.14157909  0.62969164  -0.00822270  1
  V  V38  1  0.12210880  0.23945416  0.88150949  1
  V  V39  1  0.48251916  0.49556946  0.00461047  1
  V  V40  1  0.26926079  0.61452532  0.36878750  1
  V  V41  1  0.12523422  0.49525970  0.11634661  1
  V  V42  1  0.12375430  0.00000400  0.09987698  1
  V  V43  1  0.26126065  0.37291463  0.12140921  1
  V  V44  1  0.24462817  0.88491364  0.63151763  1
  V  V45  1  0.62764289  0.87801871  0.24466336  1
  V  V46  1  -0.00474115  0.13114484  0.63994112  1
  V  V47  1  0.00135872  0.74337805  0.24845500  1
  V  V48  1  0.87292940  0.25183246  0.59413224  1
  V  V49  1  0.88329712  0.61233428  0.76126324  1
  V  V50  1  0.62862084  0.73880115  0.36370957  1
  V  V51  1  0.25772126  0.86934132  0.09923278  1
  V  V52  1  0.73228968  0.74190516  -0.01114939  1
  V  V53  1  0.35295798  0.49900252  0.86144936  1
  V  V54  1  0.49792141  0.13437623  0.63039860  1
  V  V55  1  0.26239796  0.11813151  0.36922887  1
  V  V56  1  -0.00479522  0.38232341  0.88990335  1
  V  V57  1  0.85611288  0.74987520  0.12308149  1
  V  V58  1  0.24197376  0.25181609  0.48917469  1
  V  V59  1  0.62926371  0.25691086  0.86911683  1
  V  V60  1  0.63084723  0.62992841  0.52447868  1
  V  V61  1  0.12786795  0.73705128  0.38199926  1
  V  V62  1  0.75547624  0.13278520  0.37034582  1
  V  V63  1  0.48635585  0.75000081  0.24675368  1
  V  V64  1  0.62601852  0.12337233  -0.01050290  1
  V  V65  1  0.63782227  0.00047876  0.62652790  1
  V  V66  1  0.74916324  0.38100947  0.62485974  1
  V  V67  1  0.49888028  0.23985822  0.23187122  1
  V  V68  1  -0.00396091  0.75796450  0.73866984  1
  V  V69  1  0.48354631  0.52174815  0.51326842  1
  Zn  Zn70  1  0.61947957  0.47613403  0.12740824  1
  Zn  Zn71  1  0.48751824  0.25483355  0.75871372  1
  Zn  Zn72  1  0.49498328  0.37679077  0.86404345  1
  Zn  Zn73  1  0.65594086  0.83522387  0.81186592  1
  Zn  Zn74  1  0.13858020  0.00548353  0.66984320  1
  Zn  Zn75  1  0.25372378  0.00448791  0.24581152  1
  Zn  Zn76  1  0.18687557  0.18427167  0.18058047  1
  Zn  Zn77  1  0.17961783  0.18959715  0.69078237  1
  Zn  Zn78  1  0.19522663  0.68678227  0.18932281  1
  Zn  Zn79  1  0.18018662  0.68337707  0.69111440  1
  Zn  Zn80  1  0.68944218  0.18754936  0.19422036  1
  Zn  Zn81  1  0.66936790  0.22327878  0.66160517  1
  Zn  Zn82  1  0.61316225  0.61943790  0.04075370  1
  Zn  Zn83  1  0.73459949  0.69969419  0.69729272  1
  Zn  Zn84  1  0.31131560  0.31220650  0.30551367  1
  Zn  Zn85  1  0.30846535  0.31682246  0.81545824  1
  Zn  Zn86  1  0.31127786  0.81277749  0.32095821  1
  Zn  Zn87  1  0.32385982  0.80104534  0.80525873  1
  Zn  Zn88  1  0.82733256  0.30797297  0.30866286  1
  Zn  Zn89  1  0.79213565  0.35837653  0.84495085  1
  Zn  Zn90  1  0.81304510  0.81278574  0.30799219  1
  Zn  Zn91  1  0.81990669  0.80949753  0.81375670  1
  Zn  Zn92  1  0.18164882  0.44019702  0.43826491  1
  Zn  Zn93  1  0.18540367  0.43021747  0.94410659  1
  Zn  Zn94  1  0.18999452  0.94028657  0.43909934  1
  Zn  Zn95  1  0.17030723  0.95774500  0.88428371  1
  Zn  Zn96  1  0.70225823  0.45146926  0.43507826  1
  Zn  Zn97  1  0.67274495  0.43657774  0.94761966  1
  Zn  Zn98  1  0.68439297  0.94743524  0.43396052  1
  Zn  Zn99  1  0.71577471  0.92764177  0.96041070  1
  Zn  Zn100  1  0.30033399  0.05679418  0.05810078  1
  Zn  Zn101  1  0.31153184  0.06270137  0.56009027  1
  Zn  Zn102  1  0.31416004  0.55861286  0.06528411  1
  Zn  Zn103  1  0.29947528  0.56046128  0.56471453  1
  Zn  Zn104  1  0.80436469  0.05884042  0.04937656  1
  Zn  Zn105  1  0.81526985  0.06845115  0.55621495  1
  Zn  Zn106  1  0.80531914  0.55937221  -0.05513926  1
  Zn  Zn107  1  0.79505875  0.57289764  0.58535517  1
  Zn  Zn108  1  0.44043557  0.42602984  0.20188526  1
  Zn  Zn109  1  0.45638527  0.47104727  0.70251284  1
  Zn  Zn110  1  0.43854480  0.93133357  0.17810642  1
  Zn  Zn111  1  0.44002122  0.94233315  0.67241202  1
  Zn  Zn112  1  0.84930605  0.52865070  0.13574161  1
  Zn  Zn113  1  0.93221424  0.42769797  0.69271669  1
  Zn  Zn114  1  0.94278577  0.92895455  0.17936713  1
  Zn  Zn115  1  0.92805259  0.94101502  0.69884922  1
  Zn  Zn116  1  0.07037984  0.06146246  0.31076465  1
  Zn  Zn117  1  0.05315712  0.06634865  0.82460763  1
  Zn  Zn118  1  0.06767456  0.55565015  0.30898991  1
  Zn  Zn119  1  0.06256354  0.55914960  0.81104973  1
  Zn  Zn120  1  0.56268131  0.06997653  0.30802806  1
  Zn  Zn121  1  0.59129311  0.01618165  0.83368309  1
  Zn  Zn122  1  0.55102746  0.55761841  0.25575894  1
  Zn  Zn123  1  0.53859970  0.55912956  0.81101171  1
  Zn  Zn124  1  0.44092418  0.20234813  0.43033730  1
  Zn  Zn125  1  0.44678719  0.17925792  0.93948782  1
  Zn  Zn126  1  0.44324244  0.69198522  0.43986692  1
  Zn  Zn127  1  0.42866114  0.66916379  0.93473765  1
  Zn  Zn128  1  0.94596909  0.18716183  0.42810714  1
  Zn  Zn129  1  0.90654272  0.22450297  0.90808409  1
  Zn  Zn130  1  0.93290026  0.68961266  0.43637236  1
  Zn  Zn131  1  0.93326275  0.68804829  0.94215187  1
  Zn  Zn132  1  0.06285765  0.30367849  0.05957830  1
  Zn  Zn133  1  0.06004672  0.31216585  0.56421106  1
  Zn  Zn134  1  0.07461007  0.81305051  0.06040791  1
  Zn  Zn135  1  0.06751093  0.81846474  0.56613232  1
  Zn  Zn136  1  0.53873930  0.30765767  0.05437287  1
  Zn  Zn137  1  0.53962747  0.35699680  0.61692945  1
  Zn  Zn138  1  0.56511722  0.81342272  0.06224683  1
  Zn  Zn139  1  0.57529691  0.82203975  0.55205338  1
  O  O140  1  0.13794274  0.09880253  0.12130849  1
  O  O141  1  0.11027226  0.11992019  0.62285391  1
  O  O142  1  0.12923776  0.62095606  0.11553974  1
  O  O143  1  0.12102324  0.60496363  0.63221499  1
  O  O144  1  0.62369164  0.11400801  0.12883367  1
  O  O145  1  0.60967337  0.13713491  0.60916507  1
  O  O146  1  0.59686592  0.58615063  0.15389141  1
  O  O147  1  0.64392827  0.64355298  0.62159340  1
  O  O148  1  0.35517206  0.37431910  0.39283328  1
  O  O149  1  0.37545387  0.38889136  0.86643166  1
  O  O150  1  0.38765506  0.87494403  0.38517179  1
  O  O151  1  0.36934073  0.88698048  0.86755684  1
  O  O152  1  0.89189509  0.38450804  0.36180893  1
  O  O153  1  0.89854621  0.33781176  0.87212546  1
  O  O154  1  0.89000481  0.88287165  0.37594275  1
  O  O155  1  0.88574951  0.87391192  0.88071871  1
  O  O156  1  0.25371197  0.01343559  0.37505193  1
  O  O157  1  0.27129202  0.01616919  0.88027799  1
  O  O158  1  0.24680104  0.51753193  0.38691575  1
  O  O159  1  0.25350949  0.49400668  0.87967496  1
  O  O160  1  0.76112190  0.00647544  0.36439399  1
  O  O161  1  0.81179606  -0.00499121  0.95401373  1
  O  O162  1  0.79206464  0.49863356  0.38409581  1
  O  O163  1  0.75629463  0.47167341  0.87333413  1
  O  O164  1  0.23833114  0.48499984  0.11984891  1
  O  O165  1  0.23445801  0.48034276  0.61799918  1
  O  O166  1  0.24125712  0.98055915  0.12349447  1
  O  O167  1  0.24979053  0.99213872  0.62416942  1
  O  O168  1  0.72995795  0.53048783  0.16684376  1
  O  O169  1  0.74253425  0.49007103  0.64686666  1
  O  O170  1  0.74133404  1.00415785  0.13456122  1
  O  O171  1  0.73624472  1.02314287  0.62225679  1
  O  O172  1  0.01518493  0.36340592  0.25361773  1
  O  O173  1  0.01102384  0.36455453  0.75707655  1
  O  O174  1  0.01389793  0.86394874  0.25923441  1
  O  O175  1  -0.00701407  0.86173107  0.75642358  1
  O  O176  1  0.54215775  0.36002058  0.21234109  1
  O  O177  1  0.50138594  0.36738959  0.73271815  1
  O  O178  1  0.50504563  0.87840277  0.25811124  1
  O  O179  1  0.50738718  0.84428826  0.70432496  1
  O  O180  1  0.49264858  0.14264247  0.26259749  1
  O  O181  1  0.50129600  0.13698868  0.72868496  1
  O  O182  1  0.49054909  0.65379725  0.26244936  1
  O  O183  1  0.47633137  0.58645528  0.72412387  1
  O  O184  1  1.01090615  0.13814064  0.25132436  1
  O  O185  1  0.99629458  0.12455368  0.73861201  1
  O  O186  1  1.02318993  0.64034553  0.24230698  1
  O  O187  1  0.98794548  0.62652236  0.75207143  1
  O  O188  1  0.36996209  0.24881582  -0.00331867  1
  O  O189  1  0.35542142  0.25501242  0.50435717  1
  O  O190  1  0.38464622  0.74371078  0.01197181  1
  O  O191  1  0.36120014  0.76116946  0.49514594  1
  O  O192  1  0.85726566  0.25046995  0.01489292  1
  O  O193  1  0.87744881  0.25370785  0.49494873  1
  O  O194  1  0.85069558  0.73463887  0.01572884  1
  O  O195  1  0.86648862  0.76744349  0.48846851  1
  O  O196  1  0.13560465  0.23685875  0.51028686  1
  O  O197  1  0.14127061  0.25691857  0.98594710  1
  O  O198  1  0.13399829  0.75981496  0.48700203  1
  O  O199  1  0.12937798  0.73909262  0.98848084  1
  O  O200  1  0.62935092  0.23975300  0.47678674  1
  O  O201  1  0.62247293  0.23696877  0.99440623  1
  O  O202  1  0.63028970  0.74490914  0.48363164  1
  O  O203  1  0.62506574  0.73261702  1.01459595  1
  O  O204  1  0.50094953  0.23311914  0.13057075  1
  O  O205  1  0.48100049  0.24475138  0.61608451  1
  O  O206  1  0.48571376  0.76135065  0.13774086  1
  O  O207  1  0.51252891  0.78720299  0.65304472  1
  O  O208  1  0.98392556  0.24940643  0.12548725  1
  O  O209  1  0.98785553  0.23957133  0.62163482  1
  O  O210  1  1.01621452  0.74751339  0.14155148  1
  O  O211  1  1.00629967  0.75463612  0.63792693  1
  O  O212  1  -0.00883440  0.25887890  0.35046711  1
  O  O213  1  0.02055764  0.24793520  0.88370748  1
  O  O214  1  0.01245175  0.75566703  0.37302601  1
  O  O215  1  0.00219818  0.75880481  0.87651354  1
  O  O216  1  0.51743477  0.26678781  0.37077872  1
  O  O217  1  0.51589410  0.24623215  0.87298206  1
  O  O218  1  0.50907759  0.76536774  0.37146371  1
  O  O219  1  0.50731912  0.75095532  0.88020667  1
  O  O220  1  0.24362412  0.13225077  0.49365021  1
  O  O221  1  0.25756898  0.13860467  0.99097357  1
  O  O222  1  0.25101718  0.64152382  0.49355593  1
  O  O223  1  0.23954848  0.62329153  0.99864271  1
  O  O224  1  0.74341465  0.12026069  0.47953523  1
  O  O225  1  0.73048704  0.14038441  1.01048669  1
  O  O226  1  0.74981721  0.64713281  0.50065633  1
  O  O227  1  0.73020722  0.63165240  0.99886964  1
  O  O228  1  0.25137249  0.36285856  0.01289221  1
  O  O229  1  0.24100494  0.35978131  0.50746020  1
  O  O230  1  0.25128215  0.86859810  0.00354647  1
  O  O231  1  0.25681196  0.86973330  0.50190015  1
  O  O232  1  0.72190544  0.35687683  0.02578442  1
  O  O233  1  0.75624579  0.39839223  0.52655160  1
  O  O234  1  0.73305048  0.83946588  0.02709811  1
  O  O235  1  0.76608633  0.87837847  0.48289892  1
  O  O236  1  0.12566484  0.48483088  0.23474241  1
  O  O237  1  0.12222272  0.48002731  0.74395537  1
  O  O238  1  0.12902490  0.98698572  0.24689755  1
  O  O239  1  0.12755738  0.99558200  0.78077311  1
  O  O240  1  0.65648631  0.49530224  0.27300837  1
  O  O241  1  0.62958789  0.50086632  0.77287673  1
  O  O242  1  0.63144015  0.99847478  0.24184293  1
  O  O243  1  0.61036555  1.01041818  0.72353480  1
  O  O244  1  0.37044869  0.02789854  0.21237537  1
  O  O245  1  0.39056434  -0.00275411  0.75789906  1
  O  O246  1  0.47047564  0.48721348  0.28759995  1
  O  O247  1  0.35600049  0.49923973  0.75469197  1
  O  O248  1  0.87211992  -0.01059370  0.25553596  1
  O  O249  1  0.86094825  -0.00554234  0.77684683  1
  O  O250  1  0.87969474  0.51024261  0.24343329  1
  O  O251  1  0.87611661  0.50977839  0.75028693  1
  O  O252  1  0.12282276  0.37876477  0.35618196  1
  O  O253  1  0.11620010  0.37095991  0.86875544  1
  O  O254  1  0.11661541  0.87411498  0.37223395  1
  O  O255  1  0.10849598  0.85927385  0.88064521  1
  O  O256  1  0.64963986  0.36618437  0.37702162  1
  O  O257  1  0.62152734  0.35820379  0.87346707  1
  O  O258  1  0.61450387  0.87836304  0.36753370  1
  O  O259  1  0.64771975  0.92555907  0.87177355  1
  O  O260  1  0.36839434  0.08625037  0.15759285  1
  O  O261  1  0.38304156  0.13716776  0.61398595  1
  O  O262  1  0.36340246  0.64119073  0.12939894  1
  O  O263  1  0.37185168  0.62305055  0.62284087  1
  O  O264  1  0.87825480  0.11977303  0.11582703  1
  O  O265  1  0.88751963  0.13761121  0.61393597  1
  O  O266  1  0.90311588  0.64135641  0.13375290  1
  O  O267  1  0.83861145  0.64302156  0.66591522  1
  O  O268  1  0.24993020  0.25517027  0.11136025  1
  O  O269  1  0.25381192  0.24894039  0.61718647  1
  O  O270  1  0.26173124  0.76071466  0.12850344  1
  O  O271  1  0.23527242  0.76037756  0.60883799  1
  O  O272  1  0.76492257  0.23888973  0.12528129  1
  O  O273  1  0.77230187  0.24411477  0.61795177  1
  O  O274  1  0.76598078  0.73392485  0.15403073  1
  O  O275  1  0.73847157  0.77175526  0.59209272  1
  O  O276  1  0.24567906  0.24352835  0.38618504  1
  O  O277  1  0.25125122  0.24204405  0.88446667  1
  O  O278  1  0.24058452  0.74371216  0.38439262  1
  O  O279  1  0.23063347  0.75873520  0.86168990  1
  O  O280  1  0.75132780  0.23622073  0.35911434  1
  O  O281  1  0.74077040  0.26102627  0.90104116  1
  O  O282  1  0.73448319  0.75809285  0.37518667  1
  O  O283  1  0.73866019  0.75739345  0.88951391  1
  O  O284  1  0.01754262  0.14320091  0.00515939  1
  O  O285  1  0.00760039  0.11878641  0.50068839  1
  O  O286  1  0.01294374  0.63800869  0.01612939  1
  O  O287  1  -0.04730429  0.61347880  0.53374077  1
  O  O288  1  0.51699406  0.10904826  0.00111870  1
  O  O289  1  0.50719264  0.12548474  0.49192177  1
  O  O290  1  0.50461825  0.60279801  -0.01036529  1
  O  O291  1  0.51679068  0.62888086  0.50947425  1
  O  O292  1  0.47212636  0.35303846  0.50403397  1
  O  O293  1  0.50115981  0.38735588  0.98694931  1
  O  O294  1  0.49548271  0.88770529  0.49326212  1
  O  O295  1  0.50903104  0.89519533  1.00275129  1
  O  O296  1  1.01179703  0.35928730  0.47363058  1
  O  O297  1  1.00478060  0.37409796  0.98924823  1
  O  O298  1  0.99237324  0.88253329  0.49449116  1
  O  O299  1  0.99475546  0.86406258  0.99675053  1
  O  O300  1  0.52131711  0.48390496  0.43426606  1
  O  O301  1  0.48284142  0.49282793  0.88051113  1
  O  O302  1  0.50669894  0.99660204  0.38037388  1
  O  O303  1  0.48579253  1.00465249  0.88716715  1
  O  O304  1  0.99768374  0.48390189  0.36549109  1
  O  O305  1  0.99601316  0.48068180  0.87129479  1
  O  O306  1  0.99634124  0.99545829  0.38061218  1
  O  O307  1  0.98850337  0.98418738  0.88349775  1
  O  O308  1  0.02545725  -0.02124488  0.12329151  1
  O  O309  1  -0.01062589  0.01397535  0.61848312  1
  O  O310  1  0.01796887  0.52225383  0.12898131  1
  O  O311  1  0.00988313  0.48287485  0.63021331  1
  O  O312  1  0.51285167  0.00073373  0.11699732  1
  O  O313  1  0.50231122  0.02166479  0.60926165  1
  O  O314  1  0.47503778  0.48930088  0.10603340  1
  O  O315  1  0.51892845  0.47280948  0.59812382  1
  O  O316  1  0.23225710  0.35637003  0.23166221  1
  O  O317  1  0.24147010  0.37032971  0.73616250  1
  O  O318  1  0.24290394  0.88101943  0.26032222  1
  O  O319  1  0.26154174  0.86503608  0.72723602  1
  O  O320  1  0.77035309  0.37449355  0.21957237  1
  O  O321  1  0.75536907  0.38823109  0.74235212  1
  O  O322  1  0.73923621  0.88766959  0.25825706  1
  O  O323  1  0.73636752  0.80611803  0.73916182  1
  O  O324  1  0.24171295  0.12828201  0.26688156  1
  O  O325  1  0.25090234  0.13142642  0.76278252  1
  O  O326  1  0.24997076  0.62916246  0.27004346  1
  O  O327  1  0.26506922  0.62843191  0.73911542  1
  O  O328  1  0.75003500  0.11077539  0.26136570  1
  O  O329  1  0.78313200  0.14288257  0.75743280  1
  O  O330  1  0.71842027  0.53733603  0.24689608  1
  O  O331  1  0.74887173  0.60058110  0.77347926  1
  O  O332  1  0.36038327  0.13558909  0.37939356  1
  O  O333  1  0.37094658  0.12649387  0.86827923  1
  O  O334  1  0.36862635  0.62651137  0.38347718  1
  O  O335  1  0.37459785  0.60792256  0.85659037  1
  O  O336  1  0.86666034  0.11469466  0.37819502  1
  O  O337  1  0.89570348  0.11286434  0.88523804  1
  O  O338  1  0.90522579  0.60903079  0.36728861  1
  O  O339  1  0.87246162  0.62087348  0.87083266  1
  O  O340  1  0.12339094  0.38678101  0.12266551  1
  O  O341  1  0.13047233  0.36701035  0.63742997  1
  O  O342  1  0.14339895  0.87207849  0.13263230  1
  O  O343  1  0.13895534  0.88837164  0.62265392  1
  O  O344  1  0.59627276  0.36472904  0.14799961  1
  O  O345  1  0.65190926  0.33803976  0.62935616  1
  O  O346  1  0.61856626  0.88803649  0.14014079  1
  O  O347  1  0.63227693  0.90158436  0.60770938  1
  O  O348  1  0.10984140  0.25996659  0.22574588  1
  O  O349  1  0.13559438  0.26282648  0.76895982  1
  O  O350  1  0.12539488  0.75947856  0.26700502  1
  O  O351  1  0.10590121  0.73654727  0.76600876  1
  O  O352  1  0.61883756  0.24380263  0.26254467  1
  O  O353  1  0.64058540  0.23363005  0.77173764  1
  O  O354  1  0.61021400  0.76509766  0.25855630  1
  O  O355  1  0.60114927  0.73434901  0.78353152  1
  O  O356  1  0.40811632  0.28344123  0.25479838  1
  O  O357  1  0.36770249  0.25232832  0.73183062  1
  O  O358  1  0.38447295  0.76486028  0.24919353  1
  O  O359  1  0.38937614  0.72900910  0.75060381  1
  O  O360  1  0.88587049  0.24422018  0.22986699  1
  O  O361  1  0.82742960  0.20006514  0.76802640  1
  O  O362  1  0.89866847  0.75040689  0.25514422  1
  O  O363  1  0.89486887  0.73795424  0.76246448  1
  O  O364  1  0.37897353  0.48754306  0.51066162  1
  O  O365  1  0.37613422  0.50632058  0.98433645  1
  O  O366  1  0.38705299  0.99706599  0.49898210  1
  O  O367  1  0.38654397  1.00207684  1.00078203  1
  O  O368  1  0.90619412  0.55332845  0.53019787  1
  O  O369  1  0.84399857  0.49982100  1.03075607  1
  O  O370  1  0.88369881  0.99323039  0.48755509  1
  O  O371  1  0.98699197  1.07836606  1.01727923  1
  O  O372  1  0.13424644  -0.01065013  -0.00000669  1
  O  O373  1  0.11189099  0.00581539  0.50111076  1
  O  O374  1  0.12554556  0.51146415  0.00995374  1
  O  O375  1  0.11854535  0.49263920  0.51581716  1
  O  O376  1  0.63275514  0.00994322  0.01640355  1
  O  O377  1  0.61566726  0.01698656  0.50292063  1
  O  O378  1  0.60972872  0.49998882  0.01329905  1
  O  O379  1  0.65012276  0.53394993  0.50224383  1
  O  O380  1  0.35801352  0.38092285  0.13605371  1
  O  O381  1  0.35319739  0.36173052  0.61273475  1
  O  O382  1  0.36225554  0.86839819  0.12229277  1
  O  O383  1  0.36461457  0.88151595  0.60732011  1
  O  O384  1  0.81500176  0.38792304  0.16101359  1
  O  O385  1  0.86773335  0.35449613  0.63171762  1
  O  O386  1  0.87691216  0.84977824  0.13469733  1
  O  O387  1  0.87473633  0.88742575  0.60724016  1
  O  O388  1  0.13355402  0.12134077  0.38982691  1
  O  O389  1  0.13704490  0.13632844  0.87546928  1
  O  O390  1  0.12417515  0.63653945  0.37840871  1
  O  O391  1  0.11801198  0.63076694  0.88726977  1
  O  O392  1  0.64077163  0.12564468  0.37558208  1
  O  O393  1  0.63016385  0.11930380  0.88772676  1
  O  O394  1  0.62012418  0.64174035  0.36319967  1
  O  O395  1  0.54339166  0.70257026  0.82817083  1
