# generated using pymatgen
data_V35Zn35O128
_symmetry_space_group_name_H-M   'P 1'
_cell_length_a   16.82625394
_cell_length_b   16.83989902
_cell_length_c   16.85955972
_cell_angle_alpha   89.79768231
_cell_angle_beta   90.01614912
_cell_angle_gamma   90.06507181
_symmetry_Int_Tables_number   1
_chemical_formula_structural   V35Zn35O128
_chemical_formula_sum   'V70 Zn70 O256'
_cell_volume   4777.16395365
_cell_formula_units_Z   2
loop_
 _symmetry_equiv_pos_site_id
 _symmetry_equiv_pos_as_xyz
  1  'x, y, z'
loop_
 _atom_site_type_symbol
 _atom_site_label
 _atom_site_symmetry_multiplicity
 _atom_site_fract_x
 _atom_site_fract_y
 _atom_site_fract_z
 _atom_site_occupancy
  V  V0  1  0.87966296  0.62274410  0.22163461  1
  V  V1  1  0.39520925  0.73860051  0.13419875  1
  V  V2  1  0.50287390  0.37502898  0.87363461  1
  V  V3  1  0.24431914  0.11324264  0.87321652  1
  V  V4  1  0.12493406  0.25036334  0.87597871  1
  V  V5  1  0.73846669  -0.00070187  0.75245767  1
  V  V6  1  0.37661748  0.49600253  0.36740169  1
  V  V7  1  0.36565851  0.86304589  0.50234266  1
  V  V8  1  0.00255921  0.75028808  0.25456452  1
  V  V9  1  -0.01171910  0.87982206  0.39293992  1
  V  V10  1  0.86524030  0.12649915  0.75029661  1
  V  V11  1  0.37527971  0.00675571  0.36824151  1
  V  V12  1  0.47616939  0.25647140  0.25732131  1
  V  V13  1  0.25504843  0.88258311  0.12071176  1
  V  V14  1  0.63563323  0.50331806  0.11344162  1
  V  V15  1  0.88343441  0.50825948  0.37630237  1
  V  V16  1  -0.00747867  0.36915130  0.36923896  1
  V  V17  1  0.74645830  0.86165162  0.62150290  1
  V  V18  1  -0.00115865  0.24866352  0.74633806  1
  V  V19  1  0.24572893  0.12662023  0.39010013  1
  V  V20  1  0.88482178  0.22996660  0.12426864  1
  V  V21  1  0.74234949  0.24853509  0.00292470  1
  V  V22  1  0.75594575  0.24635814  0.49963284  1
  V  V23  1  0.37174934  0.11992257  0.74151295  1
  V  V24  1  -0.00260760  0.11481815  0.61819421  1
  V  V25  1  0.75309690  0.49613033  0.24966705  1
  V  V26  1  0.11562738  0.50442350  0.09688754  1
  V  V27  1  0.72760246  0.63594297  0.86904808  1
  V  V28  1  -0.00889743  0.37691597  0.87850304  1
  V  V29  1  0.74669144  -0.00324115  0.28137483  1
  V  V30  1  0.87293027  0.12319784  0.27163326  1
  V  V31  1  0.62687442  0.36511930  0.25627294  1
  V  V32  1  0.61826501  0.11713788  0.00012677  1
  V  V33  1  0.24885098  0.86114242  0.63150047  1
  V  V34  1  0.50418895  0.51795074  -0.00083790  1
  V  V35  1  0.26365031  0.74506626  0.00366299  1
  V  V36  1  0.49518073  0.25172461  0.73945317  1
  V  V37  1  0.12034340  0.75332417  0.88496265  1
  V  V38  1  0.12501908  0.24566240  0.38583598  1
  V  V39  1  0.63684415  0.50815435  0.60975034  1
  V  V40  1  0.37994552  0.37062496  0.00445645  1
  V  V41  1  0.87566904  0.36963322  0.51564811  1
  V  V42  1  0.50348584  0.86011729  0.36864061  1
  V  V43  1  0.38110586  0.00042145  0.89224038  1
  V  V44  1  0.49492315  0.01111178  0.50928301  1
  V  V45  1  0.86470673  0.78802387  0.12425124  1
  V  V46  1  0.87360523  0.37818862  0.00666679  1
  V  V47  1  0.75681400  0.50086255  0.75904017  1
  V  V48  1  0.11371536  0.88620543  0.75075075  1
  V  V49  1  -0.00566497  0.88452249  0.89085339  1
  V  V50  1  0.24756715  0.50884309  0.24437439  1
  V  V51  1  0.48623635  0.49591626  0.49399035  1
  V  V52  1  0.48155934  0.13411387  0.12937345  1
  V  V53  1  0.62777768  0.37773432  0.73768567  1
  V  V54  1  0.49247415  0.86878450  0.88282197  1
  V  V55  1  0.60697236  0.85542206  0.75402531  1
  V  V56  1  0.25654282  0.63468305  0.86059064  1
  V  V57  1  0.13139635  0.00515802  0.61235095  1
  V  V58  1  0.25765309  0.36920895  0.12208432  1
  V  V59  1  0.23513988  0.00618530  0.24983235  1
  V  V60  1  0.11013527  0.11131281  0.01473859  1
  V  V61  1  0.12065639  0.36608740  0.24013018  1
  V  V62  1  0.24279422  0.64354157  0.36816189  1
  V  V63  1  0.86899744  -0.00197043  0.88318927  1
  V  V64  1  0.62655074  0.13299569  0.49240511  1
  V  V65  1  0.35634285  0.26863152  0.61800212  1
  V  V66  1  0.62236494  -0.00027248  0.14076446  1
  V  V67  1  0.37417086  0.51025446  0.86224549  1
  V  V68  1  0.12246042  0.62756696  0.51443259  1
  V  V69  1  0.49301089  0.63764727  0.61933352  1
  Zn  Zn70  1  0.25353222  0.24461455  0.00289352  1
  Zn  Zn71  1  0.63305588  0.24552255  0.86636328  1
  Zn  Zn72  1  0.13446844  0.85979304  0.26489707  1
  Zn  Zn73  1  0.61292166  0.00718236  0.63231670  1
  Zn  Zn74  1  0.74916314  0.76473260  -0.02610131  1
  Zn  Zn75  1  0.99811701  0.63360884  0.64829146  1
  Zn  Zn76  1  0.19088225  0.18539330  0.19053854  1
  Zn  Zn77  1  0.18454649  0.18749419  0.68674404  1
  Zn  Zn78  1  0.18119411  0.68569347  0.17004763  1
  Zn  Zn79  1  0.14261112  0.68282119  0.70433517  1
  Zn  Zn80  1  0.69413203  0.18042436  0.18415444  1
  Zn  Zn81  1  0.68201103  0.19096139  0.67323991  1
  Zn  Zn82  1  0.68222598  0.68843654  0.12461942  1
  Zn  Zn83  1  0.67595426  0.67982833  0.69251457  1
  Zn  Zn84  1  0.30352579  0.31849914  0.31873980  1
  Zn  Zn85  1  0.30772913  0.31646459  0.80285778  1
  Zn  Zn86  1  0.33408813  0.82044992  0.29816994  1
  Zn  Zn87  1  0.31550098  0.81620723  0.80307031  1
  Zn  Zn88  1  0.80261853  0.30285457  0.30539190  1
  Zn  Zn89  1  0.80944494  0.30841115  0.81767126  1
  Zn  Zn90  1  0.80748404  0.80871684  0.30780143  1
  Zn  Zn91  1  0.81935000  0.81589075  0.78548015  1
  Zn  Zn92  1  0.16902971  0.45507107  0.42334143  1
  Zn  Zn93  1  0.19618478  0.43284914  0.91476493  1
  Zn  Zn94  1  0.17915787  0.92645418  0.43756886  1
  Zn  Zn95  1  0.18604242  0.93685061  0.94375687  1
  Zn  Zn96  1  0.69958564  0.43012882  0.43196188  1
  Zn  Zn97  1  0.69112481  0.43367519  0.93514638  1
  Zn  Zn98  1  0.67823996  0.92850041  0.44212264  1
  Zn  Zn99  1  0.67781424  0.93819486  0.93397989  1
  Zn  Zn100  1  0.30636936  0.06505959  0.06343725  1
  Zn  Zn101  1  0.31134603  0.06330686  0.56251052  1
  Zn  Zn102  1  0.31543484  0.56101047  0.06051541  1
  Zn  Zn103  1  0.31157743  0.58430437  0.54869810  1
  Zn  Zn104  1  0.80085743  0.05788634  0.06696821  1
  Zn  Zn105  1  0.80122232  0.06468888  0.57165733  1
  Zn  Zn106  1  0.81369077  0.56440404  0.04575494  1
  Zn  Zn107  1  0.83945363  0.54225471  0.57986165  1
  Zn  Zn108  1  0.45250800  0.45256144  0.19420413  1
  Zn  Zn109  1  0.44194134  0.44416943  0.67819962  1
  Zn  Zn110  1  0.46226402  0.91625518  0.16299511  1
  Zn  Zn111  1  0.42716819  0.93251682  0.68895739  1
  Zn  Zn112  1  0.93921790  0.43267747  0.17840554  1
  Zn  Zn113  1  0.94622384  0.44840632  0.69952066  1
  Zn  Zn114  1  0.93385123  0.94762239  0.21252282  1
  Zn  Zn115  1  0.92796580  0.93690200  0.67772799  1
  Zn  Zn116  1  0.05260773  0.05684185  0.32111747  1
  Zn  Zn117  1  0.05712287  0.06144974  0.81004135  1
  Zn  Zn118  1  0.06302424  0.56199805  0.30229912  1
  Zn  Zn119  1  0.02723423  0.59044519  0.85227759  1
  Zn  Zn120  1  0.55430794  0.07301757  0.31089322  1
  Zn  Zn121  1  0.55259986  0.06911645  0.81729007  1
  Zn  Zn122  1  0.56515264  0.57243733  0.29823027  1
  Zn  Zn123  1  0.55861428  0.56801476  0.80425977  1
  Zn  Zn124  1  0.43347866  0.19447261  0.44012784  1
  Zn  Zn125  1  0.44111310  0.18720962  0.93409558  1
  Zn  Zn126  1  0.43653083  0.67520965  0.43347295  1
  Zn  Zn127  1  0.43742533  0.69506331  0.93868498  1
  Zn  Zn128  1  0.94096432  0.19107435  0.43680541  1
  Zn  Zn129  1  0.93308446  0.18296085  0.93754827  1
  Zn  Zn130  1  0.95238348  0.68650875  0.44551984  1
  Zn  Zn131  1  0.93886787  0.70616164  0.97192795  1
  Zn  Zn132  1  0.06100339  0.30476933  0.05888253  1
  Zn  Zn133  1  0.05278469  0.31077126  0.56070117  1
  Zn  Zn134  1  0.04177318  0.87033723  0.09883140  1
  Zn  Zn135  1  0.06545536  0.79657938  0.56137959  1
  Zn  Zn136  1  0.56270433  0.31823130  0.07555361  1
  Zn  Zn137  1  0.55931534  0.31280058  0.55520942  1
  Zn  Zn138  1  0.58444659  0.81895122  0.05422553  1
  Zn  Zn139  1  0.57296989  0.82570572  0.55357163  1
  O  O140  1  0.12881562  0.13346123  0.11188763  1
  O  O141  1  0.11221002  0.11367214  0.63326215  1
  O  O142  1  0.12989633  0.60404331  0.10987271  1
  O  O143  1  0.15763105  0.61566978  0.60906484  1
  O  O144  1  0.61622720  0.11810497  0.11812125  1
  O  O145  1  0.62512833  0.11867073  0.60560039  1
  O  O146  1  0.61625736  0.60089510  0.14317335  1
  O  O147  1  0.62544149  0.61038983  0.61639026  1
  O  O148  1  0.35817894  0.39658032  0.38127606  1
  O  O149  1  0.38601905  0.39071237  0.88387155  1
  O  O150  1  0.36962441  0.89139592  0.39048233  1
  O  O151  1  0.37779518  0.89483051  0.86913566  1
  O  O152  1  0.88855776  0.37149740  0.36179093  1
  O  O153  1  0.88423815  0.36447644  0.88606885  1
  O  O154  1  0.88720040  0.85466403  0.37575783  1
  O  O155  1  0.88594047  0.88223631  0.86506474  1
  O  O156  1  0.24930667  0.01044418  0.37251149  1
  O  O157  1  0.25813868  0.00913721  0.87709386  1
  O  O158  1  0.24938173  0.50638997  0.35580339  1
  O  O159  1  0.26606089  0.52571660  0.88470723  1
  O  O160  1  0.74108897  0.00149891  0.38174034  1
  O  O161  1  0.75604968  -0.00825375  0.86313341  1
  O  O162  1  0.77092899  0.49351329  0.35837722  1
  O  O163  1  0.73492361  0.51423400  0.86416048  1
  O  O164  1  0.24483780  0.48952771  0.12799880  1
  O  O165  1  0.24798127  0.47028500  0.57959112  1
  O  O166  1  0.25794828  0.99338395  0.14032066  1
  O  O167  1  0.23476827  1.00252373  0.62424377  1
  O  O168  1  0.74233095  0.50527043  0.12458347  1
  O  O169  1  0.74353624  0.50540088  0.64013049  1
  O  O170  1  0.72243152  0.99330260  0.12094749  1
  O  O171  1  0.74261330  0.98678474  0.64049342  1
  O  O172  1  0.01397033  0.37468414  0.25292175  1
  O  O173  1  -0.01343656  0.35477730  0.75816505  1
  O  O174  1  -0.00162902  0.85994278  0.26591576  1
  O  O175  1  0.01159362  0.87837511  0.75252781  1
  O  O176  1  0.51370087  0.36393831  0.24546848  1
  O  O177  1  0.50972528  0.37387976  0.75390245  1
  O  O178  1  0.47512438  0.87877494  0.27274774  1
  O  O179  1  0.50447403  0.88463861  0.75556755  1
  O  O180  1  0.49523302  0.14495143  0.24239516  1
  O  O181  1  0.48169330  0.13962388  0.75659748  1
  O  O182  1  0.47894758  0.56117967  0.23224994  1
  O  O183  1  0.50884907  0.62410513  0.72038130  1
  O  O184  1  0.97398845  0.11284062  0.25747779  1
  O  O185  1  0.98729060  0.13019005  0.74470056  1
  O  O186  1  0.98671878  0.62976445  0.24565325  1
  O  O187  1  1.05668737  0.60758360  0.74680044  1
  O  O188  1  0.37555342  0.26786545  -0.00948981  1
  O  O189  1  0.37630341  0.24934842  0.52021696  1
  O  O190  1  0.36661712  0.76010551  0.00543417  1
  O  O191  1  0.37361019  0.76557296  0.49366485  1
  O  O192  1  0.86540305  0.24636672  0.00687247  1
  O  O193  1  0.87013026  0.25936169  0.50157807  1
  O  O194  1  0.86178268  0.77148180  0.01739269  1
  O  O195  1  0.84802360  0.71018315  0.51551101  1
  O  O196  1  0.12386744  0.25754876  0.48461263  1
  O  O197  1  0.12459193  0.23517164  0.98667161  1
  O  O198  1  0.12633523  0.73009270  0.48891931  1
  O  O199  1  0.15297700  0.77527552  0.98187276  1
  O  O200  1  0.62935247  0.24004274  0.50069596  1
  O  O201  1  0.63512211  0.25565871  1.00637614  1
  O  O202  1  0.68929580  0.85129842  0.52560605  1
  O  O203  1  0.64579157  0.72839350  1.02358666  1
  O  O204  1  0.50253806  0.24486821  0.14056190  1
  O  O205  1  0.48938336  0.25995475  0.63600324  1
  O  O206  1  0.49213292  0.76311647  0.11571849  1
  O  O207  1  0.51973648  0.73408826  0.59595521  1
  O  O208  1  0.98500890  0.24520197  0.12211286  1
  O  O209  1  1.00565465  0.23648704  0.63997698  1
  O  O210  1  0.97641974  0.77372505  0.13647703  1
  O  O211  1  1.04338359  0.73817053  0.65581140  1
  O  O212  1  0.01279383  0.25808152  0.36974499  1
  O  O213  1  0.00534583  0.24591678  0.86496500  1
  O  O214  1  -0.00212344  0.74206751  0.35825676  1
  O  O215  1  0.01407034  0.76703682  0.88789544  1
  O  O216  1  0.49109429  0.24751768  0.35805121  1
  O  O217  1  0.49723104  0.26295531  0.86100237  1
  O  O218  1  0.49200684  0.76003677  0.38084217  1
  O  O219  1  0.47986513  0.76949920  0.86428296  1
  O  O220  1  0.24052784  0.12265471  0.48890784  1
  O  O221  1  0.24350255  0.12757080  0.98646221  1
  O  O222  1  0.23867610  0.62685983  0.47482374  1
  O  O223  1  0.25541484  0.64271419  0.99543449  1
  O  O224  1  0.74295205  0.13282019  0.49919361  1
  O  O225  1  0.72862116  0.13373414  1.00437485  1
  O  O226  1  0.80081423  0.65209307  0.53121732  1
  O  O227  1  0.76679722  0.62945486  0.96680675  1
  O  O228  1  0.26766983  0.37754087  0.00288883  1
  O  O229  1  0.23719137  0.41814405  0.52708426  1
  O  O230  1  0.25662200  0.88071413  0.01684965  1
  O  O231  1  0.25782039  0.88094518  0.51101030  1
  O  O232  1  0.76222764  0.36248928  -0.00606556  1
  O  O233  1  0.76858778  0.36922691  0.50277847  1
  O  O234  1  0.69722062  0.85924013  0.01055469  1
  O  O235  1  0.82427538  0.90001477  0.53277269  1
  O  O236  1  0.13398047  0.48745604  0.24008744  1
  O  O237  1  0.15665337  0.47232547  0.70306542  1
  O  O238  1  0.13402245  1.00018724  0.25691205  1
  O  O239  1  0.12507301  0.99065553  0.74638841  1
  O  O240  1  0.64571283  0.49573906  0.24984516  1
  O  O241  1  0.62701964  0.48910545  0.73970293  1
  O  O242  1  0.63278663  1.01315196  0.24720384  1
  O  O243  1  0.63568798  1.02151502  0.75475805  1
  O  O244  1  0.36402952  0.00321161  0.26965172  1
  O  O245  1  0.37685580  0.01820496  0.75336854  1
  O  O246  1  0.35452394  0.48750705  0.25496415  1
  O  O247  1  0.38256558  0.49813094  0.76414865  1
  O  O248  1  0.85715702  0.00990113  0.26644171  1
  O  O249  1  0.85814941  0.00759554  0.75653848  1
  O  O250  1  0.87764859  0.50443883  0.24924665  1
  O  O251  1  0.85341539  0.48261177  0.76472422  1
  O  O252  1  0.11943255  0.36740043  0.36315819  1
  O  O253  1  0.10719533  0.35257899  0.88480714  1
  O  O254  1  0.10548088  0.87084188  0.37472141  1
  O  O255  1  0.11088156  0.88728611  0.86942572  1
  O  O256  1  0.63045892  0.38182592  0.35579546  1
  O  O257  1  0.61449528  0.37443837  0.86583558  1
  O  O258  1  0.60278073  0.87626099  0.37243158  1
  O  O259  1  0.60456974  0.88316921  0.86094607  1
  O  O260  1  0.38173830  0.13365278  0.11735180  1
  O  O261  1  0.36418584  0.13464690  0.63962747  1
  O  O262  1  0.38102106  0.63917780  0.11062484  1
  O  O263  1  0.39048472  0.62806629  0.61269472  1
  O  O264  1  0.87479290  0.12713425  0.12039312  1
  O  O265  1  0.88510334  0.11431515  0.63943642  1
  O  O266  1  0.88098378  0.62169624  0.12156817  1
  O  O267  1  0.93366833  0.54330370  0.64072347  1
  O  O268  1  0.24980555  0.26495802  0.12194421  1
  O  O269  1  0.25577353  0.25402406  0.63055338  1
  O  O270  1  0.25754129  0.75536775  0.11412307  1
  O  O271  1  0.23802921  0.76464742  0.62933648  1
  O  O272  1  0.76152833  0.24540602  0.10929660  1
  O  O273  1  0.74763713  0.25344008  0.60402025  1
  O  O274  1  0.76792920  0.75450407  0.14805006  1
  O  O275  1  0.73583464  0.76400012  0.64325089  1
  O  O276  1  0.23832462  0.23790856  0.37150016  1
  O  O277  1  0.23443093  0.24008291  0.87469300  1
  O  O278  1  0.26100452  0.74070972  0.35258390  1
  O  O279  1  0.26382563  0.74638414  0.88405634  1
  O  O280  1  0.74900400  0.26109224  0.39650672  1
  O  O281  1  0.74756820  0.24551104  0.89192156  1
  O  O282  1  0.72614934  0.73607618  0.36535979  1
  O  O283  1  0.76091756  0.73873547  0.85557737  1
  O  O284  1  0.01113096  0.12169746  -0.00528552  1
  O  O285  1  -0.00974788  0.12924477  0.51948163  1
  O  O286  1  -0.02206444  0.60941795  -0.05158166  1
  O  O287  1  0.01040274  0.63892988  0.52895004  1
  O  O288  1  0.50915298  0.14385393  0.01746040  1
  O  O289  1  0.50311522  0.11745227  0.49832816  1
  O  O290  1  0.50426625  0.61658248  -0.01045464  1
  O  O291  1  0.50497522  0.60609313  0.50085799  1
  O  O292  1  0.50982383  0.39674931  0.49834771  1
  O  O293  1  0.49491724  0.37820775  0.99146763  1
  O  O294  1  0.48642196  0.88780142  0.49119132  1
  O  O295  1  0.50467480  0.87136960  0.98151565  1
  O  O296  1  0.98756743  0.36793856  0.48113241  1
  O  O297  1  0.98772249  0.36370963  0.98780833  1
  O  O298  1  0.99619307  0.85381638  0.49341458  1
  O  O299  1  0.99937108  0.88465620  0.98900642  1
  O  O300  1  0.48535906  0.50613935  0.38035240  1
  O  O301  1  0.49611720  0.49780831  0.87965152  1
  O  O302  1  0.48305917  1.00462173  0.38135304  1
  O  O303  1  0.48492096  0.99864557  0.87689684  1
  O  O304  1  0.99149251  0.48400118  0.36258728  1
  O  O305  1  1.00730973  0.47234537  0.85865708  1
  O  O306  1  0.99145048  0.98219321  0.38378054  1
  O  O307  1  0.98379700  0.99267775  0.87039855  1
  O  O308  1  0.01581383  -0.02761990  0.14163282  1
  O  O309  1  0.00786786  0.00842412  0.63131810  1
  O  O310  1  0.01693443  0.48881086  0.11582103  1
  O  O311  1  0.10368593  0.43595254  0.66405205  1
  O  O312  1  0.50120690  0.02758119  0.13988365  1
  O  O313  1  0.49052815  -0.00206169  0.61187075  1
  O  O314  1  0.50840035  0.49665696  0.10000450  1
  O  O315  1  0.51301668  0.50740623  0.60990593  1
  O  O316  1  0.23816787  0.38138629  0.24031263  1
  O  O317  1  0.23423485  0.39653700  0.81173946  1
  O  O318  1  0.25159546  0.89263562  0.25414804  1
  O  O319  1  0.24551734  0.88231885  0.73593068  1
  O  O320  1  0.74936882  0.38771737  0.24263527  1
  O  O321  1  0.73345184  0.38117042  0.76068824  1
  O  O322  1  0.74625368  0.89658478  0.26298180  1
  O  O323  1  0.72257441  0.88753738  0.75298336  1
  O  O324  1  0.24739873  0.11213224  0.25927506  1
  O  O325  1  0.25955429  0.13181307  0.76553512  1
  O  O326  1  0.24745178  0.61183380  0.24178151  1
  O  O327  1  0.24416340  0.63637553  0.76337636  1
  O  O328  1  0.75876367  0.10895293  0.24605486  1
  O  O329  1  0.75875305  0.11939722  0.73940946  1
  O  O330  1  0.77430386  0.60580504  0.24297996  1
  O  O331  1  0.74797743  0.61254257  0.75807916  1
  O  O332  1  0.35723513  0.11805211  0.38357739  1
  O  O333  1  0.36512445  0.11864109  0.87250676  1
  O  O334  1  0.35687550  0.60813137  0.37550209  1
  O  O335  1  0.37312489  0.62007360  0.87147510  1
  O  O336  1  0.86563433  0.13895792  0.37050830  1
  O  O337  1  0.87737941  0.10926992  0.86138860  1
  O  O338  1  0.88738251  0.60799467  0.37851555  1
  O  O339  1  0.90124673  0.65972635  0.80632273  1
  O  O340  1  0.13184144  0.37524762  0.12874226  1
  O  O341  1  0.12986295  0.36520151  0.62856536  1
  O  O342  1  0.15177010  0.86636977  0.14015955  1
  O  O343  1  0.13069158  0.88621146  0.63375045  1
  O  O344  1  0.62160799  0.39718683  0.13989100  1
  O  O345  1  0.62251822  0.38333773  0.63392076  1
  O  O346  1  0.58248486  0.90423197  0.13411110  1
  O  O347  1  0.62089813  0.88690046  0.64854336  1
  O  O348  1  0.13087907  0.26353297  0.25415658  1
  O  O349  1  0.10953727  0.23892404  0.76313076  1
  O  O350  1  0.10453286  0.74228457  0.23392131  1
  O  O351  1  0.14235211  0.77681652  0.78046191  1
  O  O352  1  0.64071088  0.26556394  0.24336561  1
  O  O353  1  0.61730105  0.26060896  0.74552026  1
  O  O354  1  0.67079745  0.70195482  0.32023857  1
  O  O355  1  0.61125857  0.75687189  0.75173557  1
  O  O356  1  0.37693436  0.26628613  0.24795713  1
  O  O357  1  0.37630699  0.24777996  0.74353550  1
  O  O358  1  0.38216709  0.73911868  0.23507940  1
  O  O359  1  0.39219961  0.75949117  0.74474023  1
  O  O360  1  0.86184305  0.23341563  0.23385293  1
  O  O361  1  0.88040496  0.23409970  0.75750301  1
  O  O362  1  0.88042598  0.73435615  0.24166078  1
  O  O363  1  0.89604587  0.71183965  0.75267498  1
  O  O364  1  0.38139839  0.50007365  0.49115653  1
  O  O365  1  0.39003341  0.49633795  0.98995500  1
  O  O366  1  0.38154216  1.00091507  0.49474706  1
  O  O367  1  0.37454658  1.00417349  0.99119493  1
  O  O368  1  0.87152042  0.48194173  0.48048991  1
  O  O369  1  0.87222879  0.47727118  1.00350249  1
  O  O370  1  0.86920700  0.96200743  0.54941937  1
  O  O371  1  0.85804874  1.00287306  0.98165514  1
  O  O372  1  0.12852211  0.01162652  0.00483827  1
  O  O373  1  0.12163292  -0.00320898  0.51400096  1
  O  O374  1  0.13429523  0.48336988  -0.00067122  1
  O  O375  1  0.10866458  0.52819860  0.47892016  1
  O  O376  1  0.61682641  0.01512859  0.00404605  1
  O  O377  1  0.60462659  0.00575328  0.50081767  1
  O  O378  1  0.62118587  0.49846452  0.00505564  1
  O  O379  1  0.64123214  0.49395223  0.50934998  1
  O  O380  1  0.37477235  0.38691473  0.11028204  1
  O  O381  1  0.36964516  0.36877433  0.63282210  1
  O  O382  1  0.36145956  0.86191769  0.13658551  1
  O  O383  1  0.36063188  0.87722899  0.61454374  1
  O  O384  1  0.87981616  0.35855838  0.11136221  1
  O  O385  1  0.89368832  0.38045334  0.61202820  1
  O  O386  1  0.86006029  0.88613228  0.13903658  1
  O  O387  1  0.84752269  0.85744957  0.67422468  1
  O  O388  1  0.12746740  0.13772322  0.37128966  1
  O  O389  1  0.13340756  0.12374690  0.87657680  1
  O  O390  1  0.14114049  0.62885138  0.35399993  1
  O  O391  1  0.14151262  0.64943838  0.88219138  1
  O  O392  1  0.61931331  0.12082845  0.39255292  1
  O  O393  1  0.60649155  0.13465317  0.89541226  1
  O  O394  1  0.62850560  0.64617539  0.36267057  1
  O  O395  1  0.62739997  0.63605706  0.86927922  1
