# generated using pymatgen
data_V35Zn35O128
_symmetry_space_group_name_H-M   'P 1'
_cell_length_a   16.85978459
_cell_length_b   16.85464694
_cell_length_c   16.90352951
_cell_angle_alpha   89.94499011
_cell_angle_beta   89.85874143
_cell_angle_gamma   90.23538424
_symmetry_Int_Tables_number   1
_chemical_formula_structural   V35Zn35O128
_chemical_formula_sum   'V70 Zn70 O256'
_cell_volume   4803.34618570
_cell_formula_units_Z   2
loop_
 _symmetry_equiv_pos_site_id
 _symmetry_equiv_pos_as_xyz
  1  'x, y, z'
loop_
 _atom_site_type_symbol
 _atom_site_label
 _atom_site_symmetry_multiplicity
 _atom_site_fract_x
 _atom_site_fract_y
 _atom_site_fract_z
 _atom_site_occupancy
  V  V0  1  0.87218979  0.26347712  0.61078516  1
  V  V1  1  0.12762495  0.47449655  0.61424542  1
  V  V2  1  0.11642072  0.25250967  0.37850000  1
  V  V3  1  0.34571717  0.61571689  0.74717039  1
  V  V4  1  0.25535911  0.36920184  0.12293513  1
  V  V5  1  0.36259285  0.11665551  0.75147654  1
  V  V6  1  0.51196560  0.25318880  0.75569175  1
  V  V7  1  0.63202158  0.85999472  0.25690661  1
  V  V8  1  0.12896574  -0.01681865  0.63753939  1
  V  V9  1  0.51584149  0.11326400  0.61927623  1
  V  V10  1  0.37683647  -0.00411213  0.37543446  1
  V  V11  1  0.88302758  0.62802853  0.25318880  1
  V  V12  1  0.25123615  0.50030197  0.25290794  1
  V  V13  1  -0.01590915  0.24528403  0.24951544  1
  V  V14  1  0.86952472  0.62610905  0.75549072  1
  V  V15  1  0.12038886  0.75886138  0.37103826  1
  V  V16  1  0.89169704  0.38202326  -0.00510987  1
  V  V17  1  0.51319229  -0.00969695  -0.00458852  1
  V  V18  1  0.76012824  0.74591147  -0.02167735  1
  V  V19  1  0.36748266  0.37331278  0.50264652  1
  V  V20  1  -0.00157520  0.12756879  0.62341592  1
  V  V21  1  0.25205183  0.62175630  0.38646230  1
  V  V22  1  0.38630789  0.75013922  0.11501776  1
  V  V23  1  0.61498311  0.38093039  0.25090759  1
  V  V24  1  0.37052564  0.24695709  0.62770176  1
  V  V25  1  0.74033510  -0.00324580  0.74905716  1
  V  V26  1  0.08492123  0.76675073  0.87639741  1
  V  V27  1  0.50168329  0.62583726  0.63541335  1
  V  V28  1  0.25080870  0.74820073  -0.00996573  1
  V  V29  1  0.88310409  0.75072306  0.13558503  1
  V  V30  1  0.12463253  0.12640233  -0.00240720  1
  V  V31  1  0.63541449  0.13721381  -0.01373893  1
  V  V32  1  0.61218378  0.23226713  0.37868477  1
  V  V33  1  0.49286906  0.37406486  0.37624458  1
  V  V34  1  0.24266397  0.24856658  0.49993028  1
  V  V35  1  0.74894359  0.87108568  0.61361168  1
  V  V36  1  0.37518664  0.75795967  0.62453066  1
  V  V37  1  0.37958495  0.61972880  0.24831595  1
  V  V38  1  0.12406757  0.11873668  0.48994891  1
  V  V39  1  0.73559684  0.87836694  0.11879547  1
  V  V40  1  0.50336514  0.86438137  0.86737874  1
  V  V41  1  0.36866928  -0.00251990  0.87514262  1
  V  V42  1  0.63111496  0.48163259  0.62301207  1
  V  V43  1  0.87411521  0.75218450  0.60858689  1
  V  V44  1  0.75001524  0.49329673  0.26472580  1
  V  V45  1  0.65284760  0.05198240  0.18982104  1
  V  V46  1  0.49382794  0.49783476  0.49753476  1
  V  V47  1  0.75137750  0.14505920  0.86903904  1
  V  V48  1  -0.01537011  -0.01381703  0.49215834  1
  V  V49  1  0.36473591  0.49169388  0.88430125  1
  V  V50  1  0.11086145  0.62453278  -0.01464938  1
  V  V51  1  0.11485062  0.37516650  0.25431407  1
  V  V52  1  0.74997161  0.48848359  0.76269492  1
  V  V53  1  0.63264396  0.84934359  0.75765430  1
  V  V54  1  0.89099341  0.88604681  0.00695251  1
  V  V55  1  0.11229696  0.51256416  0.12762194  1
  V  V56  1  0.01232096  0.62847832  0.61498381  1
  V  V57  1  0.25053039  0.76807808  0.50251940  1
  V  V58  1  0.49954931  0.13240903  0.11543387  1
  V  V59  1  0.74678235  0.64582503  0.37432533  1
  V  V60  1  0.50698951  0.74565512  0.26590748  1
  V  V61  1  0.62387631  0.63721031  0.49305925  1
  V  V62  1  0.26021784  0.24940522  -0.00341245  1
  V  V63  1  0.87875321  0.12884141  0.74551241  1
  V  V64  1  0.25231845  0.87897145  0.12845806  1
  V  V65  1  0.74586640  0.24935657  0.49483994  1
  V  V66  1  0.75978112  0.36679491  0.12321724  1
  V  V67  1  -0.01708557  0.12724617  0.12011166  1
  V  V68  1  0.88534927  0.00113839  0.88070028  1
  V  V69  1  0.86438348  -0.00033077  0.35240738  1
  Zn  Zn70  1  0.00743781  0.38523742  0.86572005  1
  Zn  Zn71  1  0.12058017  0.88686398  0.25328155  1
  Zn  Zn72  1  0.12228620  0.25776645  0.86972591  1
  Zn  Zn73  1  0.49654979  0.37698886  0.87288524  1
  Zn  Zn74  1  0.19509294  0.43868556  0.77645938  1
  Zn  Zn75  1  0.12147613  0.00550697  0.13032032  1
  Zn  Zn76  1  0.17468799  0.19259649  0.18206964  1
  Zn  Zn77  1  0.18604867  0.18294992  0.68539731  1
  Zn  Zn78  1  0.19458082  0.69317142  0.18797350  1
  Zn  Zn79  1  0.18470305  0.72637613  0.69805582  1
  Zn  Zn80  1  0.63555650  0.22299870  0.16272271  1
  Zn  Zn81  1  0.69184966  0.19345403  0.68431074  1
  Zn  Zn82  1  0.69462500  0.68319653  0.17391119  1
  Zn  Zn83  1  0.69556771  0.68196839  0.68614560  1
  Zn  Zn84  1  0.29952932  0.31412670  0.32122789  1
  Zn  Zn85  1  0.31422691  0.30891430  0.81546452  1
  Zn  Zn86  1  0.31201537  0.80426573  0.30602468  1
  Zn  Zn87  1  0.31574682  0.81441739  0.80383897  1
  Zn  Zn88  1  0.77280061  0.26590570  0.27519281  1
  Zn  Zn89  1  0.86101832  0.33505195  0.79089864  1
  Zn  Zn90  1  0.94228877  0.82230055  0.31677347  1
  Zn  Zn91  1  0.89766813  0.80354004  0.81666813  1
  Zn  Zn92  1  0.17980401  0.43762472  0.44163474  1
  Zn  Zn93  1  0.18454844  0.44247670  0.94565259  1
  Zn  Zn94  1  0.19048700  0.94299276  0.43659851  1
  Zn  Zn95  1  0.18275196  0.93420033  0.94602697  1
  Zn  Zn96  1  0.68419476  0.43583991  0.43782350  1
  Zn  Zn97  1  0.69010743  0.41161108  0.92975680  1
  Zn  Zn98  1  0.75654304  0.86760352  0.40049764  1
  Zn  Zn99  1  0.69536493  0.93649873  0.93060634  1
  Zn  Zn100  1  0.32022995  0.06567703  0.05548633  1
  Zn  Zn101  1  0.30631423  0.06308578  0.57025162  1
  Zn  Zn102  1  0.30105399  0.56940695  0.06372945  1
  Zn  Zn103  1  0.30645003  0.55404750  0.57427362  1
  Zn  Zn104  1  0.80198947  0.06492734  0.06427500  1
  Zn  Zn105  1  0.80165822  0.06175199  0.55849810  1
  Zn  Zn106  1  0.78428492  0.55719685  0.06178605  1
  Zn  Zn107  1  0.80312777  0.57108158  0.56640429  1
  Zn  Zn108  1  0.43973005  0.43965994  0.18062627  1
  Zn  Zn109  1  0.43281943  0.43590632  0.68834241  1
  Zn  Zn110  1  0.45014800  0.93053988  0.18108105  1
  Zn  Zn111  1  0.44698432  0.93776838  0.69298680  1
  Zn  Zn112  1  0.92975761  0.44009968  0.18733265  1
  Zn  Zn113  1  0.94130768  0.45493443  0.67891744  1
  Zn  Zn114  1  0.93887251  0.94334709  0.18416596  1
  Zn  Zn115  1  0.93682866  0.93994631  0.68219841  1
  Zn  Zn116  1  0.05289157  0.05692722  0.30571057  1
  Zn  Zn117  1  0.06846231  0.06565791  0.81297066  1
  Zn  Zn118  1  0.07469204  0.57644530  0.31173061  1
  Zn  Zn119  1  0.05494375  0.56473779  0.79550231  1
  Zn  Zn120  1  0.73378144  0.10314812  0.38267996  1
  Zn  Zn121  1  0.55791050  0.06666059  0.80943635  1
  Zn  Zn122  1  0.56154929  0.56023160  0.31560657  1
  Zn  Zn123  1  0.55978479  0.54394128  0.80700364  1
  Zn  Zn124  1  0.43805701  0.18419436  0.44182395  1
  Zn  Zn125  1  0.43834564  0.18261076  0.93469699  1
  Zn  Zn126  1  0.43226663  0.68511725  0.44162309  1
  Zn  Zn127  1  0.42814419  0.67903000  0.92384938  1
  Zn  Zn128  1  0.93129224  0.17743960  0.43219897  1
  Zn  Zn129  1  0.93816901  0.20847349  0.94212550  1
  Zn  Zn130  1  0.93474758  0.68727321  0.43860163  1
  Zn  Zn131  1  0.91790652  0.66769740  0.95377461  1
  Zn  Zn132  1  0.06428631  0.31131256  0.06583009  1
  Zn  Zn133  1  0.05088571  0.31149595  0.69464956  1
  Zn  Zn134  1  0.06723530  0.81392681  0.06598657  1
  Zn  Zn135  1  0.06103821  0.80609323  0.55748529  1
  Zn  Zn136  1  0.56236474  0.32859793  0.04250453  1
  Zn  Zn137  1  0.55581050  0.30124189  0.56111909  1
  Zn  Zn138  1  0.57227932  0.79276858  0.04068576  1
  Zn  Zn139  1  0.56938642  0.80936020  0.57595521  1
  O  O140  1  0.11419792  0.12625335  0.11690451  1
  O  O141  1  0.10997062  0.12084469  0.61536011  1
  O  O142  1  0.12506042  0.61422867  0.13922403  1
  O  O143  1  0.10753040  0.65669087  0.63347603  1
  O  O144  1  0.64486360  0.11967581  0.09731255  1
  O  O145  1  0.61569608  0.12865843  0.62797441  1
  O  O146  1  0.68559496  0.60190875  0.09826009  1
  O  O147  1  0.61550873  0.62203021  0.61119362  1
  O  O148  1  0.38206042  0.36498055  0.38400342  1
  O  O149  1  0.37502025  0.38389602  0.87990351  1
  O  O150  1  0.36375735  0.88942471  0.37160495  1
  O  O151  1  0.39320447  0.88594655  0.85548645  1
  O  O152  1  0.87971656  0.43669075  0.47144795  1
  O  O153  1  0.88466386  0.38895768  0.88976702  1
  O  O154  1  0.86847871  0.88794697  0.37211461  1
  O  O155  1  0.88037029  0.89348574  0.89358134  1
  O  O156  1  0.27025964  0.00184592  0.36482151  1
  O  O157  1  0.27032699  -0.01583212  0.88425532  1
  O  O158  1  0.24327885  0.51090645  0.36470455  1
  O  O159  1  0.25897050  0.48921461  0.86460885  1
  O  O160  1  0.76050397  -0.00942162  0.37719288  1
  O  O161  1  0.76151179  0.00587585  0.86108951  1
  O  O162  1  0.74717799  0.50796016  0.36908481  1
  O  O163  1  0.73247247  0.49217408  0.86331948  1
  O  O164  1  0.24222076  0.49440143  0.13874240  1
  O  O165  1  0.23255864  0.48448672  0.62054140  1
  O  O166  1  0.27017281  0.97938378  0.11361957  1
  O  O167  1  0.22792189  0.99948823  0.61908139  1
  O  O168  1  0.74702180  0.47328649  0.15170974  1
  O  O169  1  0.73305287  0.49431023  0.61352528  1
  O  O170  1  0.73196968  0.99196113  0.12704763  1
  O  O171  1  0.75945419  0.98728998  0.64095747  1
  O  O172  1  0.00833568  0.36441020  0.24390112  1
  O  O173  1  -0.02879723  0.37194865  0.75016850  1
  O  O174  1  0.00685201  0.87558663  0.24121153  1
  O  O175  1  -0.02851348  0.87071011  0.76011508  1
  O  O176  1  0.50657487  0.38707955  0.26002471  1
  O  O177  1  0.49192094  0.35761467  0.74830517  1
  O  O178  1  0.51325081  0.85112759  0.24059934  1
  O  O179  1  0.52184522  0.87306559  0.75734808  1
  O  O180  1  0.54851812  0.10193145  0.20410382  1
  O  O181  1  0.49305306  0.13492715  0.74121830  1
  O  O182  1  0.48875893  0.62917532  0.25567615  1
  O  O183  1  0.50961789  0.62407485  0.73429860  1
  O  O184  1  0.99718132  0.13843064  0.24001510  1
  O  O185  1  0.99305810  0.12036397  0.73314838  1
  O  O186  1  0.98132150  0.61757285  0.26223310  1
  O  O187  1  0.97811704  0.61929044  0.72845909  1
  O  O188  1  0.36140310  0.24132341  -0.00192456  1
  O  O189  1  0.36458818  0.25130367  0.50484695  1
  O  O190  1  0.36349215  0.72980112  0.00844135  1
  O  O191  1  0.36708762  0.74867224  0.51070805  1
  O  O192  1  0.86905401  0.27809461  0.00073429  1
  O  O193  1  0.86496149  0.24381135  0.50339896  1
  O  O194  1  0.87696712  0.77556281  0.01326545  1
  O  O195  1  0.86741263  0.75286132  0.50826655  1
  O  O196  1  0.12626963  0.23680936  0.49324575  1
  O  O197  1  0.13509085  0.24365825  1.00253731  1
  O  O198  1  0.14232539  0.75274649  0.48897897  1
  O  O199  1  0.12686607  0.74282574  0.99102075  1
  O  O200  1  0.63048917  0.24981901  0.48828629  1
  O  O201  1  0.62759457  0.23474140  0.99326571  1
  O  O202  1  0.61596302  0.73600994  0.49949798  1
  O  O203  1  0.65739812  0.74216306  0.98700894  1
  O  O204  1  0.52355387  0.23523468  0.11396254  1
  O  O205  1  0.48797391  0.23957408  0.63372082  1
  O  O206  1  0.48797013  0.74551459  0.10563083  1
  O  O207  1  0.48925951  0.73390701  0.61415478  1
  O  O208  1  1.00112879  0.24467920  0.14191785  1
  O  O209  1  0.98542160  0.23409131  0.61762052  1
  O  O210  1  0.98247313  0.75702459  0.12313288  1
  O  O211  1  0.98022351  0.74963149  0.62120600  1
  O  O212  1  0.00743334  0.24161788  0.36515198  1
  O  O213  1  0.00538529  0.26572729  0.87150202  1
  O  O214  1  0.01509202  0.75056206  0.37961475  1
  O  O215  1  -0.01706524  0.75179062  0.88690402  1
  O  O216  1  0.50404854  0.25869009  0.38231249  1
  O  O217  1  0.49550978  0.24879752  0.85991278  1
  O  O218  1  0.49887483  0.74746340  0.36446527  1
  O  O219  1  0.49205057  0.76585606  0.88111690  1
  O  O220  1  0.23043772  0.12897777  0.50330582  1
  O  O221  1  0.24023635  0.14030569  1.01321308  1
  O  O222  1  0.26450494  0.61975070  0.48590207  1
  O  O223  1  0.22754798  0.64126602  1.00987651  1
  O  O224  1  0.74376564  0.13599598  0.49724851  1
  O  O225  1  0.74587228  0.12292475  0.97837801  1
  O  O226  1  0.73428223  0.62177810  0.48702188  1
  O  O227  1  0.80200413  0.64876824  0.98853693  1
  O  O228  1  0.24769648  0.36990348  0.01673637  1
  O  O229  1  0.25894487  0.36419796  0.49127112  1
  O  O230  1  0.24581168  0.85517220  0.01103565  1
  O  O231  1  0.25153808  0.86713074  0.50282332  1
  O  O232  1  0.73715930  0.36698342  0.02493206  1
  O  O233  1  0.74802369  0.35115390  0.48191904  1
  O  O234  1  0.75788421  0.87395300  0.00737651  1
  O  O235  1  0.73562173  0.88138611  0.51658356  1
  O  O236  1  0.13033718  0.49559405  0.24792983  1
  O  O237  1  0.11989787  0.50374221  0.72310396  1
  O  O238  1  0.13148066  1.00333008  0.24634306  1
  O  O239  1  0.11814218  1.00098959  0.73685892  1
  O  O240  1  0.63289332  0.49028219  0.25810118  1
  O  O241  1  0.63609792  0.50002244  0.73294059  1
  O  O242  1  0.61639910  0.96738818  0.23797489  1
  O  O243  1  0.64019488  1.00499794  0.75357525  1
  O  O244  1  0.39998830  -0.00900596  0.27377015  1
  O  O245  1  0.37979367  0.00905408  0.75725038  1
  O  O246  1  0.36934111  0.51230245  0.24443618  1
  O  O247  1  0.36299801  0.51090766  0.73935138  1
  O  O248  1  0.86921750  0.00386150  0.25287591  1
  O  O249  1  0.86883858  0.01229384  0.75996067  1
  O  O250  1  0.86011382  0.51524239  0.24892711  1
  O  O251  1  0.85680467  0.51035718  0.73514498  1
  O  O252  1  0.12456272  0.36655836  0.36714135  1
  O  O253  1  0.12693254  0.38288023  0.86751933  1
  O  O254  1  0.13722035  0.86320756  0.37293023  1
  O  O255  1  0.10886610  0.86432597  0.89445774  1
  O  O256  1  0.60722692  0.37323726  0.37263583  1
  O  O257  1  0.58384710  0.38291848  0.94349926  1
  O  O258  1  0.64345586  0.86137370  0.35411151  1
  O  O259  1  0.61965757  0.87414334  0.86431880  1
  O  O260  1  0.40002899  0.12444255  0.11973302  1
  O  O261  1  0.37909729  0.12634096  0.63536879  1
  O  O262  1  0.36637387  0.63584673  0.14069609  1
  O  O263  1  0.38736273  0.62212341  0.63103783  1
  O  O264  1  0.88255779  0.12953930  0.11381958  1
  O  O265  1  0.88416145  0.11912902  0.62822044  1
  O  O266  1  0.86695206  0.64223080  0.14342971  1
  O  O267  1  0.87522205  0.63834650  0.62030796  1
  O  O268  1  0.24232491  0.26468103  0.12066596  1
  O  O269  1  0.25986007  0.23751366  0.61056104  1
  O  O270  1  0.26208411  0.75713399  0.11842594  1
  O  O271  1  0.26255375  0.74194525  0.60786635  1
  O  O272  1  0.74417798  0.26650824  0.16072938  1
  O  O273  1  0.76009708  0.24824770  0.60823167  1
  O  O274  1  0.76414991  0.76333908  0.11363576  1
  O  O275  1  0.75395346  0.76149988  0.62323796  1
  O  O276  1  0.23348546  0.24676751  0.38837824  1
  O  O277  1  0.24368860  0.25664988  0.89474706  1
  O  O278  1  0.25296544  0.74256159  0.38694275  1
  O  O279  1  0.26129621  0.75431086  0.89097813  1
  O  O280  1  0.73233641  0.23185809  0.37843077  1
  O  O281  1  0.75609024  0.24141951  0.86157442  1
  O  O282  1  0.74477672  0.74348165  0.37707821  1
  O  O283  1  0.78381516  0.76836560  0.88440243  1
  O  O284  1  0.00939681  0.14193370  0.01315620  1
  O  O285  1  0.00517886  0.11702944  0.50708809  1
  O  O286  1  0.01337330  0.63013894  0.00910172  1
  O  O287  1  -0.00090031  0.63430110  0.51349446  1
  O  O288  1  0.51638357  0.11763105  0.00043974  1
  O  O289  1  0.49681322  0.12890396  0.51988631  1
  O  O290  1  0.53491038  0.61927829  -0.03981831  1
  O  O291  1  0.50655271  0.61511872  0.50087303  1
  O  O292  1  0.48921936  0.37783144  0.49430435  1
  O  O293  1  0.48630029  0.42048861  1.06953757  1
  O  O294  1  0.53727676  0.89423452  0.49091262  1
  O  O295  1  0.51418107  0.88303842  0.98259114  1
  O  O296  1  0.96374695  0.45686617  0.36777865  1
  O  O297  1  0.99444019  0.38239381  1.01025486  1
  O  O298  1  1.00260785  0.88810311  0.49716551  1
  O  O299  1  0.98909505  0.88987958  1.01915770  1
  O  O300  1  0.49904302  0.49099673  0.38853530  1
  O  O301  1  0.47300090  0.49444827  0.85732371  1
  O  O302  1  0.47208309  0.97427190  0.41041373  1
  O  O303  1  0.49741303  0.99108681  0.87758291  1
  O  O304  1  1.00658204  0.51010653  0.39742454  1
  O  O305  1  1.03608001  0.49437575  0.88167242  1
  O  O306  1  0.98336097  1.00525881  0.38482042  1
  O  O307  1  0.98296060  1.01692813  0.87533661  1
  O  O308  1  -0.00107034  0.02366847  0.12661471  1
  O  O309  1  0.00526680  0.00688055  0.61175569  1
  O  O310  1  0.01387833  0.49969080  0.13633670  1
  O  O311  1  0.01297841  0.51846667  0.61614091  1
  O  O312  1  0.49894931  -0.00205074  0.09960725  1
  O  O313  1  0.50305215  0.01236016  0.63097234  1
  O  O314  1  0.51624308  0.53473481  0.12991916  1
  O  O315  1  0.50829136  0.50892867  0.61944603  1
  O  O316  1  0.23850490  0.38235924  0.24899437  1
  O  O317  1  0.23830074  0.34152881  0.73817571  1
  O  O318  1  0.25050195  0.86625893  0.23268527  1
  O  O319  1  0.23410760  0.82867506  0.73043707  1
  O  O320  1  0.73868437  0.38520734  0.27013393  1
  O  O321  1  0.76291073  0.38893101  0.74890113  1
  O  O322  1  0.73504412  0.86230772  0.22747587  1
  O  O323  1  0.73870057  0.88616189  0.75224511  1
  O  O324  1  0.28133496  0.15983224  0.24268684  1
  O  O325  1  0.26322714  0.12179095  0.74730259  1
  O  O326  1  0.26051572  0.61915927  0.25769688  1
  O  O327  1  0.24823125  0.62785044  0.73898559  1
  O  O328  1  0.70911708  0.10435257  0.25137155  1
  O  O329  1  0.75613470  0.11839361  0.75417743  1
  O  O330  1  0.74811791  0.61873498  0.26468964  1
  O  O331  1  0.75657582  0.60808545  0.74418761  1
  O  O332  1  0.39333774  0.09861751  0.37255094  1
  O  O333  1  0.37912154  0.11177863  0.86117845  1
  O  O334  1  0.36361056  0.63292160  0.35970447  1
  O  O335  1  0.36978887  0.61436603  0.85168242  1
  O  O336  1  0.86305339  0.10591471  0.37592231  1
  O  O337  1  0.86629708  0.12536413  0.86757018  1
  O  O338  1  0.85902855  0.63521154  0.36589818  1
  O  O339  1  0.88383318  0.62042811  0.85317794  1
  O  O340  1  0.13318459  0.38756085  0.13711824  1
  O  O341  1  0.10542324  0.37564534  0.61441019  1
  O  O342  1  0.14113344  0.88093700  0.12437253  1
  O  O343  1  0.11471417  0.88406455  0.62342740  1
  O  O344  1  0.62586760  0.36678216  0.14951978  1
  O  O345  1  0.61555672  0.38354511  0.61787977  1
  O  O346  1  0.63481228  0.86145170  0.11464432  1
  O  O347  1  0.63699184  0.86788027  0.64535128  1
  O  O348  1  0.11981774  0.25745880  0.26097646  1
  O  O349  1  0.13262332  0.25588777  0.75131194  1
  O  O350  1  0.13509352  0.75165532  0.26810056  1
  O  O351  1  0.10859244  0.75084866  0.78081913  1
  O  O352  1  0.62362427  0.26760175  0.27177523  1
  O  O353  1  0.61164043  0.24990379  0.74529263  1
  O  O354  1  0.61406651  0.74383905  0.23834267  1
  O  O355  1  0.63422895  0.75032837  0.75786047  1
  O  O356  1  0.33459434  0.21318828  0.25318588  1
  O  O357  1  0.37817748  0.23500651  0.74337330  1
  O  O358  1  0.39168187  0.74263530  0.23924121  1
  O  O359  1  0.37155167  0.72887885  0.73196510  1
  O  O360  1  0.88701379  0.25716435  0.26481654  1
  O  O361  1  0.86464616  0.23608613  0.72544528  1
  O  O362  1  0.87719974  0.74459072  0.24504438  1
  O  O363  1  0.86104800  0.73116937  0.73506256  1
  O  O364  1  0.38399594  0.48689182  0.51188858  1
  O  O365  1  0.36430504  0.51834362  0.98246613  1
  O  O366  1  0.35382897  1.00254080  0.47999293  1
  O  O367  1  0.39477945  1.00964267  0.98026633  1
  O  O368  1  0.89174713  0.50045094  0.50668820  1
  O  O369  1  0.85501463  0.47874356  1.02018347  1
  O  O370  1  0.88452452  0.99734119  0.50612758  1
  O  O371  1  0.86660892  0.99843700  0.99056824  1
  O  O372  1  0.13521208  0.02065089  0.00726964  1
  O  O373  1  0.11574692  0.00948769  0.49778409  1
  O  O374  1  0.13284164  0.51704626  0.01889672  1
  O  O375  1  0.12430655  0.50296537  0.51203380  1
  O  O376  1  0.61695079  0.00850978  -0.01504454  1
  O  O377  1  0.57320035  -0.04300287  0.47883967  1
  O  O378  1  0.53344551  0.49236878  0.06748786  1
  O  O379  1  0.61283444  0.50340432  0.50839395  1
  O  O380  1  0.35318974  0.37428208  0.14304494  1
  O  O381  1  0.38043591  0.35932934  0.61294451  1
  O  O382  1  0.37353590  0.85657794  0.12663615  1
  O  O383  1  0.38900727  0.85624684  0.63501736  1
  O  O384  1  0.86356950  0.36685263  0.12971882  1
  O  O385  1  0.88252136  0.36083733  0.61474497  1
  O  O386  1  0.86280801  0.87901095  0.11962931  1
  O  O387  1  0.85885718  0.86424038  0.62866087  1
  O  O388  1  0.11552196  0.12896784  0.38651848  1
  O  O389  1  0.11842367  0.13043273  0.89285629  1
  O  O390  1  0.14486480  0.63929705  0.37486314  1
  O  O391  1  0.11229621  0.63796564  0.88432247  1
  O  O392  1  0.60572183  0.13476259  0.37348194  1
  O  O393  1  0.63928446  0.12528738  0.87548196  1
  O  O394  1  0.62987613  0.62411337  0.38500317  1
  O  O395  1  0.59120910  0.60819084  0.91056671  1
