# generated using pymatgen
data_V35Zn35O128
_symmetry_space_group_name_H-M   'P 1'
_cell_length_a   16.85304395
_cell_length_b   16.84903232
_cell_length_c   16.86575386
_cell_angle_alpha   89.93739942
_cell_angle_beta   90.00105222
_cell_angle_gamma   90.07648651
_symmetry_Int_Tables_number   1
_chemical_formula_structural   V35Zn35O128
_chemical_formula_sum   'V70 Zn70 O256'
_cell_volume   4789.14987705
_cell_formula_units_Z   2
loop_
 _symmetry_equiv_pos_site_id
 _symmetry_equiv_pos_as_xyz
  1  'x, y, z'
loop_
 _atom_site_type_symbol
 _atom_site_label
 _atom_site_symmetry_multiplicity
 _atom_site_fract_x
 _atom_site_fract_y
 _atom_site_fract_z
 _atom_site_occupancy
  V  V0  1  0.76478783  0.37045747  0.13065670  1
  V  V1  1  0.38704476  0.62968726  0.75154652  1
  V  V2  1  0.60455821  0.62783668  0.50137002  1
  V  V3  1  0.86376447  0.12319595  0.75278495  1
  V  V4  1  0.48041759  0.23032500  0.24394586  1
  V  V5  1  0.88573965  0.49769974  0.39144631  1
  V  V6  1  0.73421672  0.86269593  0.62216787  1
  V  V7  1  0.62852076  0.87732283  0.27241339  1
  V  V8  1  0.37576370  0.11820438  0.73771187  1
  V  V9  1  0.01337931  0.11878623  0.61576180  1
  V  V10  1  0.87659414  0.62612025  0.25210394  1
  V  V11  1  0.60526595  0.12082225  0.00135970  1
  V  V12  1  0.86782487  0.75776118  0.11376597  1
  V  V13  1  0.75346109  0.49972504  0.25023102  1
  V  V14  1  0.00810963  0.37947475  0.39719877  1
  V  V15  1  0.75073750  0.63453418  0.38836266  1
  V  V16  1  0.62566447  0.03636040  0.62747824  1
  V  V17  1  0.11844287  0.85276159  0.73884353  1
  V  V18  1  0.50521458  0.02545526  0.50139829  1
  V  V19  1  0.60554908  0.25857523  0.87547264  1
  V  V20  1  0.23636349  -0.00324127  0.74820783  1
  V  V21  1  0.13671466  0.49493407  0.12139119  1
  V  V22  1  0.87783912  0.88721917  0.50176998  1
  V  V23  1  0.25295286  0.49313649  0.75015356  1
  V  V24  1  0.12637408  0.62222206  0.50345023  1
  V  V25  1  0.37673756  -0.00166258  0.36500449  1
  V  V26  1  0.37628474  0.39652766  0.49513682  1
  V  V27  1  0.49948334  0.87273720  0.85023958  1
  V  V28  1  0.87843110  0.26115860  0.60404974  1
  V  V29  1  0.87391505  -0.00739406  0.88395390  1
  V  V30  1  0.63768266  0.48780190  0.61530363  1
  V  V31  1  0.75624757  0.24438397  -0.00926431  1
  V  V32  1  0.62405791  0.49722937  0.12787197  1
  V  V33  1  0.12893586  0.23276243  0.88259679  1
  V  V34  1  0.24660218  0.11051477  0.37714702  1
  V  V35  1  0.88237617  0.75219755  0.62492047  1
  V  V36  1  0.13619809  0.25550290  0.37239436  1
  V  V37  1  0.50014535  0.74520813  0.25621317  1
  V  V38  1  0.12330645  0.37442816  0.76805844  1
  V  V39  1  0.13112711  0.74867164  0.37328874  1
  V  V40  1  0.49864005  -0.01533791  0.00878012  1
  V  V41  1  0.00177545  0.88418428  0.38112914  1
  V  V42  1  0.50435291  0.38034500  0.35902048  1
  V  V43  1  0.86799565  0.61264961  0.75054050  1
  V  V44  1  0.62651197  0.63693988  0.00868248  1
  V  V45  1  0.73342655  0.27800129  0.49048094  1
  V  V46  1  0.74700018  0.61391675  0.87157441  1
  V  V47  1  -0.00224008  0.62201732  0.12308417  1
  V  V48  1  0.35436226  0.63271171  0.25446133  1
  V  V49  1  0.75699957  0.00654698  0.26874431  1
  V  V50  1  0.23718026  0.87569934  0.12091719  1
  V  V51  1  0.62967135  0.75687688  0.84604098  1
  V  V52  1  0.39243276  0.74467139  0.62709030  1
  V  V53  1  0.37810819  0.48602403  0.87993985  1
  V  V54  1  0.49101239  0.25060966  0.72679870  1
  V  V55  1  0.24725180  0.63889765  0.87894599  1
  V  V56  1  0.25179463  0.24662004  0.01960976  1
  V  V57  1  0.24901985  0.75207360  0.51800156  1
  V  V58  1  -0.00360347  0.75606319  0.25439203  1
  V  V59  1  0.74215849  0.87858938  0.11706777  1
  V  V60  1  0.38356636  0.88019486  0.50228211  1
  V  V61  1  0.87610733  0.38028518  -0.02070121  1
  V  V62  1  -0.00753633  0.25150460  0.75993461  1
  V  V63  1  -0.00095808  0.86183996  0.87678055  1
  V  V64  1  0.50168565  0.48991860  -0.00413230  1
  V  V65  1  -0.00893166  0.25793173  0.24586047  1
  V  V66  1  0.12470081  0.48740387  0.62305673  1
  V  V67  1  0.00194213  0.62242292  0.63083914  1
  V  V68  1  -0.00420916  0.50029198  -0.01734290  1
  V  V69  1  0.25849818  0.25584019  0.52032263  1
  Zn  Zn70  1  0.12450201  0.63501596  -0.00943751  1
  Zn  Zn71  1  0.37621966  -0.00433311  0.87062185  1
  Zn  Zn72  1  0.86790167  0.12960515  0.27234085  1
  Zn  Zn73  1  0.11574036  0.09349995  -0.00331420  1
  Zn  Zn74  1  0.24796769  0.50331142  0.26887925  1
  Zn  Zn75  1  0.73743424  -0.00569944  0.75465559  1
  Zn  Zn76  1  0.29449927  0.16515645  0.18283202  1
  Zn  Zn77  1  0.19249646  0.18394428  0.69720502  1
  Zn  Zn78  1  0.17570474  0.68651388  0.18369127  1
  Zn  Zn79  1  0.19260412  0.67872747  0.69359908  1
  Zn  Zn80  1  0.69334279  0.17869513  0.17684263  1
  Zn  Zn81  1  0.69178002  0.22369409  0.68581388  1
  Zn  Zn82  1  0.68573652  0.69275120  0.19529052  1
  Zn  Zn83  1  0.68927550  0.67886772  0.67617595  1
  Zn  Zn84  1  0.33430357  0.30331491  0.31519547  1
  Zn  Zn85  1  0.31334319  0.30324373  0.81157802  1
  Zn  Zn86  1  0.31499838  0.81278800  0.31407484  1
  Zn  Zn87  1  0.30979360  0.82023657  0.80705178  1
  Zn  Zn88  1  0.81971588  0.31619466  0.31934452  1
  Zn  Zn89  1  0.79921569  0.32056752  0.80530022  1
  Zn  Zn90  1  0.81338714  0.81866346  0.31713505  1
  Zn  Zn91  1  0.81177451  0.81043771  0.80508964  1
  Zn  Zn92  1  0.19785256  0.43247870  0.44033132  1
  Zn  Zn93  1  0.19445930  0.43796210  0.95178107  1
  Zn  Zn94  1  0.18617389  0.93260342  0.45144671  1
  Zn  Zn95  1  0.18159820  0.93007877  0.92299926  1
  Zn  Zn96  1  0.67911962  0.44472963  0.42986824  1
  Zn  Zn97  1  0.68651184  0.43441343  0.94042673  1
  Zn  Zn98  1  0.69053579  0.94546587  0.44968910  1
  Zn  Zn99  1  0.68328912  0.93703290  0.92909932  1
  Zn  Zn100  1  0.32004209  0.08603709  0.01930915  1
  Zn  Zn101  1  0.28210474  0.06018766  0.56552425  1
  Zn  Zn102  1  0.33137684  0.59770503  0.05708562  1
  Zn  Zn103  1  0.31199104  0.56352468  0.56348459  1
  Zn  Zn104  1  0.79071033  0.04435415  0.05260553  1
  Zn  Zn105  1  0.81935943  0.06650286  0.57414402  1
  Zn  Zn106  1  0.81173704  0.56480402  0.05842800  1
  Zn  Zn107  1  0.80962643  0.55370764  0.56904138  1
  Zn  Zn108  1  0.45025398  0.45982625  0.21807380  1
  Zn  Zn109  1  0.44476532  0.43378538  0.69028365  1
  Zn  Zn110  1  0.44221454  0.91061527  0.18052104  1
  Zn  Zn111  1  0.43904489  0.94211155  0.67741584  1
  Zn  Zn112  1  0.94438772  0.43687029  0.18921772  1
  Zn  Zn113  1  0.93945763  0.43464127  0.68809616  1
  Zn  Zn114  1  0.92646481  0.94195668  0.19190158  1
  Zn  Zn115  1  0.94294964  0.93951425  0.69233512  1
  Zn  Zn116  1  0.05996596  0.08035588  0.33114686  1
  Zn  Zn117  1  0.05201375  0.05707686  0.80518919  1
  Zn  Zn118  1  0.09231112  0.54344803  0.32842737  1
  Zn  Zn119  1  0.06308631  0.57091481  0.80700684  1
  Zn  Zn120  1  0.54132179  0.02976539  0.28322808  1
  Zn  Zn121  1  0.55926284  0.07265336  0.81505265  1
  Zn  Zn122  1  0.56595131  0.56912793  0.31543358  1
  Zn  Zn123  1  0.56564681  0.56496895  0.81906618  1
  Zn  Zn124  1  0.42901581  0.19503161  0.43290229  1
  Zn  Zn125  1  0.42747174  0.18354032  0.92907457  1
  Zn  Zn126  1  0.43392960  0.68764526  0.42608221  1
  Zn  Zn127  1  0.44743993  0.69147200  0.93626059  1
  Zn  Zn128  1  0.94927086  0.18418968  0.43116314  1
  Zn  Zn129  1  0.93326735  0.18278028  0.93928988  1
  Zn  Zn130  1  0.94008793  0.68945273  0.44396099  1
  Zn  Zn131  1  0.93031739  0.68655618  0.93351494  1
  Zn  Zn132  1  0.05881240  0.31327647  0.06470690  1
  Zn  Zn133  1  0.06946129  0.30114580  0.56572605  1
  Zn  Zn134  1  0.05040647  0.81369589  0.05371576  1
  Zn  Zn135  1  0.05931213  0.81242122  0.56383432  1
  Zn  Zn136  1  0.57084239  0.31078209  0.07143072  1
  Zn  Zn137  1  0.55161278  0.31648564  0.54577763  1
  Zn  Zn138  1  0.55839229  0.81579168  0.07506639  1
  Zn  Zn139  1  0.56305115  0.80523124  0.54889513  1
  O  O140  1  0.12676886  0.09148178  0.16428785  1
  O  O141  1  0.11192624  0.13817388  0.63204953  1
  O  O142  1  0.10833658  0.62320223  0.11540216  1
  O  O143  1  0.11897046  0.61565246  0.62566221  1
  O  O144  1  0.63846796  0.12142776  0.09801523  1
  O  O145  1  0.63449623  0.13439929  0.62408534  1
  O  O146  1  0.64394346  0.61382411  0.11401103  1
  O  O147  1  0.62803583  0.61531708  0.60624196  1
  O  O148  1  0.37834770  0.38320532  0.37832778  1
  O  O149  1  0.37205429  0.38763241  0.87302150  1
  O  O150  1  0.36207568  0.88701685  0.39148571  1
  O  O151  1  0.39655936  0.86586856  0.86691684  1
  O  O152  1  0.88929799  0.39173858  0.37920846  1
  O  O153  1  0.86315807  0.38158670  0.88003198  1
  O  O154  1  0.88525198  0.87322205  0.39223455  1
  O  O155  1  0.88113625  0.88459440  0.86003033  1
  O  O156  1  0.25692586  0.00348541  0.37899784  1
  O  O157  1  0.26072817  -0.02184423  0.85945233  1
  O  O158  1  0.19904511  0.51443574  0.36805016  1
  O  O159  1  0.26515223  0.50212831  0.87239777  1
  O  O160  1  0.75256812  0.00037895  0.36887923  1
  O  O161  1  0.76342424  -0.00777754  0.86683302  1
  O  O162  1  0.76737815  0.50468001  0.36691657  1
  O  O163  1  0.73217595  0.51459146  0.86814634  1
  O  O164  1  0.23332531  0.51467774  0.10006633  1
  O  O165  1  0.23718817  0.50676966  0.64102523  1
  O  O166  1  0.21987118  0.97711961  0.12939125  1
  O  O167  1  0.26235457  0.98183384  0.65000920  1
  O  O168  1  0.75183224  0.49380701  0.13181267  1
  O  O169  1  0.73800426  0.49644721  0.63340690  1
  O  O170  1  0.76324256  0.98257508  0.13940438  1
  O  O171  1  0.73017828  1.00149025  0.61649183  1
  O  O172  1  -0.00646372  0.36319518  0.26214716  1
  O  O173  1  0.01242159  0.36387883  0.74939577  1
  O  O174  1  -0.01189343  0.86629485  0.26449842  1
  O  O175  1  0.00955182  0.87422094  0.75573416  1
  O  O176  1  0.48299431  0.35522336  0.25218874  1
  O  O177  1  0.48508239  0.34869815  0.75327047  1
  O  O178  1  0.52836774  0.90813388  0.26307750  1
  O  O179  1  0.50295410  0.87506785  0.75054032  1
  O  O180  1  0.50036074  0.13103084  0.25788914  1
  O  O181  1  0.48567017  0.13126734  0.74438743  1
  O  O182  1  0.51314083  0.64481643  0.24592759  1
  O  O183  1  0.48514084  0.62791684  0.76123254  1
  O  O184  1  0.97804160  0.14960649  0.29852577  1
  O  O185  1  0.99264964  0.14074108  0.74348379  1
  O  O186  1  0.99039122  0.63435548  0.24110566  1
  O  O187  1  0.98459850  0.62384879  0.74193486  1
  O  O188  1  0.35196570  0.21647085  0.00890759  1
  O  O189  1  0.36372869  0.26620656  0.49575086  1
  O  O190  1  0.38175155  0.70151794  0.02504754  1
  O  O191  1  0.36569912  0.74567310  0.50901836  1
  O  O192  1  0.86885861  0.26694920  -0.00736156  1
  O  O193  1  0.89533575  0.26355165  0.50641887  1
  O  O194  1  0.87156824  0.74475505  0.01562138  1
  O  O195  1  0.87676213  0.75431967  0.51664316  1
  O  O196  1  0.14704287  0.26416890  0.49043798  1
  O  O197  1  0.11743469  0.25311617  0.98496836  1
  O  O198  1  0.13545901  0.74514799  0.50084200  1
  O  O199  1  0.12087265  0.74746268  1.00033581  1
  O  O200  1  0.63495941  0.25561534  0.49452476  1
  O  O201  1  0.63618267  0.24312113  0.99643510  1
  O  O202  1  0.62418613  0.72801655  0.49464578  1
  O  O203  1  0.61975010  0.73687380  1.01469016  1
  O  O204  1  0.53333904  0.24803682  0.15664183  1
  O  O205  1  0.50294801  0.25053806  0.62818508  1
  O  O206  1  0.48502980  0.79932992  0.16089941  1
  O  O207  1  0.49036126  0.74191764  0.61991574  1
  O  O208  1  1.00800727  0.24953277  0.14718936  1
  O  O209  1  0.99338773  0.24720279  0.63604527  1
  O  O210  1  0.98714387  0.74670894  0.13292986  1
  O  O211  1  0.98953676  0.73851711  0.62596520  1
  O  O212  1  0.00873329  0.27122570  0.38518947  1
  O  O213  1  0.00635794  0.24732993  0.86477442  1
  O  O214  1  0.00401385  0.75855737  0.37094628  1
  O  O215  1  -0.01385969  0.76032779  0.87039777  1
  O  O216  1  0.48684925  0.25703460  0.35370580  1
  O  O217  1  0.50623370  0.25866576  0.89513067  1
  O  O218  1  0.48879967  0.76500824  0.35589625  1
  O  O219  1  0.51889815  0.75922274  0.87604061  1
  O  O220  1  0.26232115  0.15085532  0.48711616  1
  O  O221  1  0.22006579  0.13836809  1.00093192  1
  O  O222  1  0.23679805  0.63680782  0.50655766  1
  O  O223  1  0.24778237  0.62049933  0.98131130  1
  O  O224  1  0.79513867  0.11940822  0.46526744  1
  O  O225  1  0.76949049  0.14487573  1.00854379  1
  O  O226  1  0.76118889  0.62277866  0.48808686  1
  O  O227  1  0.74106370  0.62169667  0.98319049  1
  O  O228  1  0.24798125  0.34758165  -0.00602543  1
  O  O229  1  0.26417349  0.36913080  0.50294945  1
  O  O230  1  0.24380462  0.87394536  0.01761228  1
  O  O231  1  0.26142655  0.85557468  0.50286846  1
  O  O232  1  0.76244192  0.37198189  0.00784281  1
  O  O233  1  0.74608532  0.37805184  0.49519883  1
  O  O234  1  0.73891216  0.88302569  0.01713887  1
  O  O235  1  0.76610606  0.88073883  0.51439984  1
  O  O236  1  0.13179608  0.50938441  0.22521640  1
  O  O237  1  0.13009111  0.48880870  0.74860814  1
  O  O238  1  0.10017857  1.04398243  0.21461829  1
  O  O239  1  0.13389843  0.99990931  0.75080222  1
  O  O240  1  0.64192573  0.51109348  0.23641080  1
  O  O241  1  0.59617783  0.49948314  0.72663524  1
  O  O242  1  0.64722467  0.99318822  0.25287076  1
  O  O243  1  0.62422358  1.01816210  0.73190492  1
  O  O244  1  0.38746940  -0.01562045  0.26797388  1
  O  O245  1  0.37544533  0.00457643  0.74968336  1
  O  O246  1  0.35507806  0.51714007  0.23203949  1
  O  O247  1  0.37342917  0.50558582  0.75981079  1
  O  O248  1  0.86706553  0.00865575  0.25870883  1
  O  O249  1  0.86439417  0.01719734  0.74068367  1
  O  O250  1  0.87191778  0.51137798  0.25300001  1
  O  O251  1  0.87448691  0.51284489  0.74378925  1
  O  O252  1  0.11570836  0.36992904  0.37529536  1
  O  O253  1  0.12292613  0.37410879  0.86856278  1
  O  O254  1  0.11319551  0.86039635  0.39083313  1
  O  O255  1  0.10713604  0.87092088  0.86131008  1
  O  O256  1  0.60660114  0.37958640  0.36713592  1
  O  O257  1  0.62981316  0.35773455  0.87946766  1
  O  O258  1  0.64030530  0.87406333  0.37203383  1
  O  O259  1  0.62389655  0.86242368  0.86323595  1
  O  O260  1  0.32063358  0.07046311  0.13082537  1
  O  O261  1  0.36179727  0.11546544  0.63661426  1
  O  O262  1  0.39118040  0.61393909  0.15078099  1
  O  O263  1  0.37290257  0.63013543  0.63867110  1
  O  O264  1  0.96142215  0.08947579  0.09102175  1
  O  O265  1  0.88563338  0.14145194  0.63617614  1
  O  O266  1  0.87631309  0.63448670  0.13303662  1
  O  O267  1  0.87967999  0.62814162  0.63093775  1
  O  O268  1  0.23510457  0.24299650  0.11966529  1
  O  O269  1  0.24964037  0.25041816  0.61970297  1
  O  O270  1  0.23278328  0.76811975  0.12225374  1
  O  O271  1  0.25712977  0.74557877  0.61928934  1
  O  O272  1  0.74434647  0.26743758  0.11868703  1
  O  O273  1  0.76997713  0.23610962  0.58913670  1
  O  O274  1  0.76157009  0.76039968  0.13539985  1
  O  O275  1  0.75796510  0.75941711  0.62215563  1
  O  O276  1  0.24047355  0.25662225  0.36745563  1
  O  O277  1  0.22997560  0.24523920  0.87001117  1
  O  O278  1  0.23399298  0.75488464  0.38002973  1
  O  O279  1  0.25902346  0.73738878  0.86977537  1
  O  O280  1  0.76678408  0.25386703  0.39552085  1
  O  O281  1  0.74460462  0.25137465  0.88992172  1
  O  O282  1  0.75829287  0.73275700  0.37183795  1
  O  O283  1  0.73511746  0.74387942  0.86572354  1
  O  O284  1  0.00116740  0.12415976  0.01943060  1
  O  O285  1  0.00161378  0.12859674  0.51472557  1
  O  O286  1  -0.01171925  0.61356164  0.00569422  1
  O  O287  1  0.01347373  0.62886905  0.51639665  1
  O  O288  1  0.50380137  0.11958880  0.00578684  1
  O  O289  1  0.49230137  0.12310598  0.50101720  1
  O  O290  1  0.52323484  0.61116752  -0.00554077  1
  O  O291  1  0.50459450  0.62235458  0.48978931  1
  O  O292  1  0.48714410  0.37549131  0.47113282  1
  O  O293  1  0.50844306  0.39126830  1.01093332  1
  O  O294  1  0.48478451  0.86990056  0.49521253  1
  O  O295  1  0.51100434  0.88269692  0.99205213  1
  O  O296  1  1.01136798  0.38304249  0.49611612  1
  O  O297  1  0.98564210  0.38721455  0.99814978  1
  O  O298  1  0.99133465  0.87087174  0.49119826  1
  O  O299  1  0.99595660  0.87704239  0.97886543  1
  O  O300  1  0.49450404  0.48366757  0.33294999  1
  O  O301  1  0.49462568  0.49745669  0.88515491  1
  O  O302  1  0.48493032  1.00548850  0.39331207  1
  O  O303  1  0.50776123  0.98122356  0.87259996  1
  O  O304  1  0.99496982  0.49413164  0.37145693  1
  O  O305  1  0.99895972  0.50836845  0.88403217  1
  O  O306  1  1.01704378  0.98201126  0.36969530  1
  O  O307  1  0.98080995  0.99140593  0.86532625  1
  O  O308  1  -0.01768484  0.01571080  0.10420989  1
  O  O309  1  -0.00067802  0.02012619  0.63480015  1
  O  O310  1  0.00209011  0.51057487  0.11901309  1
  O  O311  1  0.01611955  0.50627836  0.63444099  1
  O  O312  1  0.49500865  -0.01314293  0.10900772  1
  O  O313  1  0.51516634  0.00316340  0.61122147  1
  O  O314  1  0.51963316  0.49776238  0.12451502  1
  O  O315  1  0.53244499  0.51059434  0.66907804  1
  O  O316  1  0.27066621  0.37735104  0.22176125  1
  O  O317  1  0.23803909  0.38203363  0.75729784  1
  O  O318  1  0.24748223  0.86810983  0.22872728  1
  O  O319  1  0.22676425  0.87593209  0.75386335  1
  O  O320  1  0.76253902  0.38523178  0.23995131  1
  O  O321  1  0.72699713  0.32514643  0.72399679  1
  O  O322  1  0.74731933  0.88479787  0.25057833  1
  O  O323  1  0.75681910  0.88107595  0.72341993  1
  O  O324  1  0.24462741  0.12621749  0.27905880  1
  O  O325  1  0.25685074  0.10774351  0.75318155  1
  O  O326  1  0.25143922  0.63531959  0.24948119  1
  O  O327  1  0.25942596  0.61104731  0.76076963  1
  O  O328  1  0.75608628  0.11357041  0.24484948  1
  O  O329  1  0.76534608  0.14125868  0.74447640  1
  O  O330  1  0.75916314  0.61938269  0.25919250  1
  O  O331  1  0.75741549  0.62399267  0.75562468  1
  O  O332  1  0.36289600  0.10707794  0.38046445  1
  O  O333  1  0.37628377  0.11504331  0.85650450  1
  O  O334  1  0.37938192  0.62016466  0.35295112  1
  O  O335  1  0.36882388  0.62011610  0.86418422  1
  O  O336  1  0.85335896  0.11459829  0.41374225  1
  O  O337  1  0.88048733  0.11273841  0.86079470  1
  O  O338  1  0.87455468  0.61689165  0.37043490  1
  O  O339  1  0.85858336  0.62777934  0.86220636  1
  O  O340  1  0.12229627  0.39478065  0.11258816  1
  O  O341  1  0.12284897  0.38519687  0.63546468  1
  O  O342  1  0.13082646  0.86794462  0.12611270  1
  O  O343  1  0.11530618  0.87395854  0.63813792  1
  O  O344  1  0.64576640  0.39288282  0.11966364  1
  O  O345  1  0.61659992  0.38965598  0.60829063  1
  O  O346  1  0.64174900  0.87164845  0.13995099  1
  O  O347  1  0.63415477  0.86841563  0.61350559  1
  O  O348  1  0.10434527  0.24377372  0.27511797  1
  O  O349  1  0.11878014  0.25919212  0.76174421  1
  O  O350  1  0.11200224  0.74399943  0.26630505  1
  O  O351  1  0.12215241  0.75174207  0.74350640  1
  O  O352  1  0.63631764  0.22196094  0.28941128  1
  O  O353  1  0.59810767  0.23616737  0.76797853  1
  O  O354  1  0.61521925  0.76739274  0.25088588  1
  O  O355  1  0.62305033  0.74273175  0.74812798  1
  O  O356  1  0.37467093  0.23397283  0.23159723  1
  O  O357  1  0.37951532  0.23446350  0.74907636  1
  O  O358  1  0.37946721  0.74061331  0.25139972  1
  O  O359  1  0.37064112  0.74001207  0.73672290  1
  O  O360  1  0.88195063  0.24855077  0.25051959  1
  O  O361  1  0.88643323  0.24734518  0.75766361  1
  O  O362  1  0.88057082  0.74184211  0.24953562  1
  O  O363  1  0.86776656  0.73672639  0.73148750  1
  O  O364  1  0.35915218  0.49718254  0.48592711  1
  O  O365  1  0.39163628  0.50744794  0.99024817  1
  O  O366  1  0.38502052  0.98695468  0.50935948  1
  O  O367  1  0.39520808  1.00514442  0.98553289  1
  O  O368  1  0.88179562  0.50764481  0.48968786  1
  O  O369  1  0.88168470  0.49177018  0.99858579  1
  O  O370  1  0.88254044  0.98517577  0.51518963  1
  O  O371  1  0.86989107  1.00085853  0.98353464  1
  O  O372  1  0.12500862  -0.01714751  0.00287988  1
  O  O373  1  0.18294762  0.01678029  0.52332871  1
  O  O374  1  0.10715740  0.50665176  0.00046023  1
  O  O375  1  0.13357063  0.50503995  0.51970780  1
  O  O376  1  0.61251109  0.01242584  -0.01247838  1
  O  O377  1  0.61206332  0.01234727  0.50369237  1
  O  O378  1  0.62148140  0.50542896  0.00959620  1
  O  O379  1  0.62581852  0.51105664  0.50705614  1
  O  O380  1  0.30468607  0.37704906  0.15554095  1
  O  O381  1  0.39683072  0.39438726  0.59675880  1
  O  O382  1  0.34123032  0.88248058  0.12383991  1
  O  O383  1  0.38114805  0.85636300  0.61435254  1
  O  O384  1  0.86709884  0.37987039  0.11670997  1
  O  O385  1  0.87591476  0.35809532  0.63400518  1
  O  O386  1  0.87083021  0.86220724  0.12793810  1
  O  O387  1  0.88225006  0.86338070  0.61894624  1
  O  O388  1  0.13783291  0.13937361  0.39063777  1
  O  O389  1  0.10903512  0.13094546  0.87900790  1
  O  O390  1  0.10891752  0.64403885  0.39206975  1
  O  O391  1  0.14190343  0.62271421  0.86905674  1
  O  O392  1  0.63699201  0.17653580  0.34762588  1
  O  O393  1  0.62138160  0.14026466  0.89182750  1
  O  O394  1  0.64356559  0.61188154  0.38802383  1
  O  O395  1  0.63251694  0.63865417  0.88046883  1
