# generated using pymatgen
data_V35Zn35O128
_symmetry_space_group_name_H-M   'P 1'
_cell_length_a   16.92642055
_cell_length_b   16.83601009
_cell_length_c   16.86499960
_cell_angle_alpha   89.96002974
_cell_angle_beta   89.72428411
_cell_angle_gamma   90.18246761
_symmetry_Int_Tables_number   1
_chemical_formula_structural   V35Zn35O128
_chemical_formula_sum   'V70 Zn70 O256'
_cell_volume   4805.99482070
_cell_formula_units_Z   2
loop_
 _symmetry_equiv_pos_site_id
 _symmetry_equiv_pos_as_xyz
  1  'x, y, z'
loop_
 _atom_site_type_symbol
 _atom_site_label
 _atom_site_symmetry_multiplicity
 _atom_site_fract_x
 _atom_site_fract_y
 _atom_site_fract_z
 _atom_site_occupancy
  V  V0  1  0.76936224  0.62394400  0.87574791  1
  V  V1  1  0.25474754  0.75545399  0.50976096  1
  V  V2  1  0.74709624  -0.01107024  0.70770818  1
  V  V3  1  0.00152502  0.74483507  0.23953822  1
  V  V4  1  0.90627262  0.24434646  0.13105230  1
  V  V5  1  0.86522986  0.11866607  0.74583313  1
  V  V6  1  0.86602278  0.87476621  -0.00225463  1
  V  V7  1  0.56385899  0.82711637  0.81425430  1
  V  V8  1  0.13538013  0.24305709  0.38559757  1
  V  V9  1  0.40567178  0.74888639  0.63147124  1
  V  V10  1  0.25976480  0.12497377  0.37828161  1
  V  V11  1  0.87918396  0.11041308  0.26090873  1
  V  V12  1  0.49227743  0.74266476  0.23353892  1
  V  V13  1  0.36989918  0.25684412  0.61466215  1
  V  V14  1  0.61456807  0.01648911  0.12541130  1
  V  V15  1  0.13029814  0.01545739  0.12618702  1
  V  V16  1  0.62614389  0.13083074  0.48466384  1
  V  V17  1  0.37432777  0.88067986  0.49975510  1
  V  V18  1  0.34416882  0.00258855  0.86927225  1
  V  V19  1  0.49606458  0.23509713  0.24692024  1
  V  V20  1  0.60527201  0.49779629  0.10459501  1
  V  V21  1  0.62337400  0.24075657  0.88525020  1
  V  V22  1  0.77314763  0.49186253  0.75892950  1
  V  V23  1  0.87086824  0.24471610  0.61651054  1
  V  V24  1  0.13034739  0.12540098  -0.02229945  1
  V  V25  1  0.86228221  0.74825395  0.12708984  1
  V  V26  1  0.12419106  0.51814439  0.12389941  1
  V  V27  1  0.13036356  0.75561584  0.37581433  1
  V  V28  1  0.12852985  -0.01990811  0.62797021  1
  V  V29  1  0.36870751  0.23424038  0.11946932  1
  V  V30  1  0.75936330  0.25549939  0.01021586  1
  V  V31  1  0.23009611  0.38364198  0.62356771  1
  V  V32  1  0.25465417  0.62074982  0.37158901  1
  V  V33  1  0.14617062  0.37857192  0.24936247  1
  V  V34  1  0.74685538  0.25050357  0.48376153  1
  V  V35  1  -0.02752934  0.63198282  0.62813118  1
  V  V36  1  -0.00603969  0.00622834  0.00014172  1
  V  V37  1  -0.00609524  -0.00388998  0.49257194  1
  V  V38  1  0.38420170  0.88684115  0.00954374  1
  V  V39  1  0.61461320  0.87777871  0.26031479  1
  V  V40  1  0.61848998  0.72176150  0.36310473  1
  V  V41  1  0.50891677  0.12638244  0.63436351  1
  V  V42  1  0.86717108  0.62408116  0.24821755  1
  V  V43  1  0.75313990  0.72791577  0.49720555  1
  V  V44  1  0.01189035  0.87103843  0.86956263  1
  V  V45  1  0.13930083  0.87883161  0.23868668  1
  V  V46  1  0.37871543  0.61343061  0.23871431  1
  V  V47  1  0.34741015  0.12341812  0.74355733  1
  V  V48  1  -0.00458932  0.25574664  0.76000901  1
  V  V49  1  0.24361433  0.51263105  0.74932505  1
  V  V50  1  0.76186098  0.38579977  0.12688835  1
  V  V51  1  0.87698496  0.37893022  0.49937156  1
  V  V52  1  0.50574598  -0.00371917  0.49999330  1
  V  V53  1  0.75395293  0.11126187  0.89797844  1
  V  V54  1  0.13613742  0.26602975  0.86605514  1
  V  V55  1  0.24364220  0.76412135  -0.01767736  1
  V  V56  1  0.37198653  -0.00195244  0.36475064  1
  V  V57  1  -0.01262178  0.87574189  0.37484356  1
  V  V58  1  0.00667940  0.37161229  0.36489849  1
  V  V59  1  0.62246506  0.65298585  -0.00768316  1
  V  V60  1  0.74911018  0.88769387  0.14345755  1
  V  V61  1  0.38477868  0.49086385  0.39091174  1
  V  V62  1  0.49087332  0.36767370  0.89607255  1
  V  V63  1  0.00652516  0.49606065  -0.01390866  1
  V  V64  1  0.12759412  0.62830105  0.51688049  1
  V  V65  1  0.36605899  0.52168969  0.88263199  1
  V  V66  1  0.87831299  0.50885946  0.36800644  1
  V  V67  1  0.00652097  0.50524304  0.50247529  1
  V  V68  1  0.61526238  0.37517662  0.75800181  1
  V  V69  1  0.00981514  0.12746247  0.61223673  1
  Zn  Zn70  1  0.26790598  0.89183946  0.66513741  1
  Zn  Zn71  1  0.57539107  0.34275174  0.33075101  1
  Zn  Zn72  1  0.25941518  0.37192683  0.09712888  1
  Zn  Zn73  1  0.71203470  0.47830740  0.27190911  1
  Zn  Zn74  1  0.00464505  0.75068420  0.74950892  1
  Zn  Zn75  1  0.73537576  0.37919986  0.62377389  1
  Zn  Zn76  1  0.19047556  0.19121895  0.19988505  1
  Zn  Zn77  1  0.18321236  0.19978503  0.68226544  1
  Zn  Zn78  1  0.19424376  0.69178577  0.18704033  1
  Zn  Zn79  1  0.23872604  0.72106379  0.73495923  1
  Zn  Zn80  1  0.69071386  0.19337472  0.20943751  1
  Zn  Zn81  1  0.68603812  0.19529583  0.68596413  1
  Zn  Zn82  1  0.67996970  0.67236561  0.18323403  1
  Zn  Zn83  1  0.73199035  0.70690203  0.72184028  1
  Zn  Zn84  1  0.32272095  0.31007045  0.31339390  1
  Zn  Zn85  1  0.31163758  0.31707287  0.79660346  1
  Zn  Zn86  1  0.31939215  0.81238022  0.31368610  1
  Zn  Zn87  1  0.33845466  0.81329896  0.82267450  1
  Zn  Zn88  1  0.82132226  0.31058290  0.30244895  1
  Zn  Zn89  1  0.80558131  0.30487048  0.81281456  1
  Zn  Zn90  1  0.77055263  0.86469953  0.36075612  1
  Zn  Zn91  1  0.75815112  0.83878929  0.83634672  1
  Zn  Zn92  1  0.19228570  0.43836180  0.44241136  1
  Zn  Zn93  1  0.18531556  0.44798960  0.93503598  1
  Zn  Zn94  1  0.18701564  0.94447965  0.44340672  1
  Zn  Zn95  1  0.18301576  0.93535235  0.93906011  1
  Zn  Zn96  1  0.69337054  0.44530342  0.44300571  1
  Zn  Zn97  1  0.69786866  0.43307451  0.93899233  1
  Zn  Zn98  1  0.70032717  0.93047642  0.51645879  1
  Zn  Zn99  1  0.68017653  0.93426961  0.95350884  1
  Zn  Zn100  1  0.31051018  0.06653589  0.06162658  1
  Zn  Zn101  1  0.30568613  0.06696975  0.55842839  1
  Zn  Zn102  1  0.30897604  0.55278046  0.06229740  1
  Zn  Zn103  1  0.31899648  0.56756164  0.57199087  1
  Zn  Zn104  1  0.81970174  0.06487629  0.07959634  1
  Zn  Zn105  1  0.80398248  0.05307275  0.43241650  1
  Zn  Zn106  1  0.81955981  0.57077774  0.05074842  1
  Zn  Zn107  1  0.76199199  0.58582245  0.59140525  1
  Zn  Zn108  1  0.42997129  0.42644299  0.18538135  1
  Zn  Zn109  1  0.43296725  0.42850674  0.70963447  1
  Zn  Zn110  1  0.44145590  0.94062051  0.18103454  1
  Zn  Zn111  1  0.44136087  0.94346889  0.68877664  1
  Zn  Zn112  1  0.94365526  0.43435981  0.17652123  1
  Zn  Zn113  1  0.94433448  0.43789793  0.68236122  1
  Zn  Zn114  1  0.94604059  0.93768747  0.18850895  1
  Zn  Zn115  1  0.94732719  0.94416440  0.69036944  1
  Zn  Zn116  1  0.06433673  0.06777270  0.30717689  1
  Zn  Zn117  1  0.05062025  0.05816829  0.80801295  1
  Zn  Zn118  1  0.06784327  0.56143890  0.30994439  1
  Zn  Zn119  1  0.05294344  0.55911179  0.79859136  1
  Zn  Zn120  1  0.55837445  0.05840646  0.31343332  1
  Zn  Zn121  1  0.58075127  0.05980494  0.80142839  1
  Zn  Zn122  1  0.56013701  0.53649254  0.30340474  1
  Zn  Zn123  1  0.57849286  0.53322328  0.87497372  1
  Zn  Zn124  1  0.44258808  0.19187827  0.43403752  1
  Zn  Zn125  1  0.40242523  0.20982438  0.91141984  1
  Zn  Zn126  1  0.43999985  0.69111183  0.43412962  1
  Zn  Zn127  1  0.44013889  0.70505476  0.94459302  1
  Zn  Zn128  1  0.94166758  0.18768328  0.42910525  1
  Zn  Zn129  1  0.93302802  0.32162044  0.94630391  1
  Zn  Zn130  1  0.93676294  0.69275833  0.43934487  1
  Zn  Zn131  1  0.94661152  0.68642386  0.94076254  1
  Zn  Zn132  1  0.09285771  0.32316985  0.04710174  1
  Zn  Zn133  1  0.06138024  0.31550209  0.56131370  1
  Zn  Zn134  1  0.06236410  0.81495525  0.05489911  1
  Zn  Zn135  1  0.05817453  0.80972819  0.56137484  1
  Zn  Zn136  1  0.56916149  0.30343200  0.07846081  1
  Zn  Zn137  1  0.56076528  0.30281337  0.57226541  1
  Zn  Zn138  1  0.56261904  0.82178783  0.06239736  1
  Zn  Zn139  1  0.61465371  0.76192232  0.59658866  1
  O  O140  1  0.12258177  0.11750926  0.12504303  1
  O  O141  1  0.10961354  0.13064863  0.62220691  1
  O  O142  1  0.12372900  0.61744875  0.13744101  1
  O  O143  1  0.12638154  0.62928730  0.61395348  1
  O  O144  1  0.64035292  0.11204398  0.14291865  1
  O  O145  1  0.61193857  0.13440593  0.61924540  1
  O  O146  1  0.64084334  0.61192078  0.09429719  1
  O  O147  1  0.58167356  0.59608227  0.63267581  1
  O  O148  1  0.36488971  0.39209208  0.38046787  1
  O  O149  1  0.39487636  0.32963131  0.87785140  1
  O  O150  1  0.37422629  0.88700465  0.38585843  1
  O  O151  1  0.38149175  0.90391614  0.87622505  1
  O  O152  1  0.89105388  0.38145496  0.37871771  1
  O  O153  1  0.86321970  0.37278545  0.87835368  1
  O  O154  1  0.89025252  0.87044262  0.36453240  1
  O  O155  1  0.85458389  0.87140526  0.89891216  1
  O  O156  1  0.26471944  0.00314297  0.37757835  1
  O  O157  1  0.24601727  -0.00360493  0.86259172  1
  O  O158  1  0.25080827  0.51879691  0.37735001  1
  O  O159  1  0.25404374  0.50921042  0.86534419  1
  O  O160  1  0.74716279  -0.04091846  0.41721136  1
  O  O161  1  0.74883642  0.01165921  0.89030342  1
  O  O162  1  0.77730206  0.49403355  0.37074408  1
  O  O163  1  0.75447798  0.50659608  0.86973781  1
  O  O164  1  0.22836177  0.49057370  0.11572354  1
  O  O165  1  0.25902438  0.49372925  0.63634785  1
  O  O166  1  0.22767613  1.00013691  0.11591165  1
  O  O167  1  0.23447055  0.99221461  0.61897374  1
  O  O168  1  0.76671829  0.48650280  0.11396689  1
  O  O169  1  0.75134699  0.49121671  0.64851605  1
  O  O170  1  0.75114503  0.98924107  0.13900349  1
  O  O171  1  0.74573496  0.98453918  0.60812413  1
  O  O172  1  0.00484442  0.37954536  0.26476512  1
  O  O173  1  -0.00476756  0.35319184  0.73776432  1
  O  O174  1  0.01163206  0.86590937  0.26128637  1
  O  O175  1  -0.01341226  0.87052624  0.76400111  1
  O  O176  1  0.49608008  0.36343446  0.24885855  1
  O  O177  1  0.51085633  0.36324608  0.77150616  1
  O  O178  1  0.50869256  0.85884595  0.23831638  1
  O  O179  1  0.51625147  0.90074600  0.76288830  1
  O  O180  1  0.49984242  0.13414767  0.25451153  1
  O  O181  1  0.50326133  0.11397461  0.73576270  1
  O  O182  1  0.48632838  0.63081513  0.24888647  1
  O  O183  1  0.52358465  0.56652560  0.67021001  1
  O  O184  1  0.98295540  0.12952549  0.26172630  1
  O  O185  1  0.98241156  0.12874582  0.73577038  1
  O  O186  1  0.99996177  0.64221113  0.25540230  1
  O  O187  1  0.98875670  0.62612343  0.73240602  1
  O  O188  1  0.37759774  0.23005238  0.01803895  1
  O  O189  1  0.37338737  0.24084928  0.51528327  1
  O  O190  1  0.37058906  0.77993997  -0.00447680  1
  O  O191  1  0.37348770  0.76461179  0.49926925  1
  O  O192  1  0.86720157  0.24851715  0.01749618  1
  O  O193  1  0.86897722  0.25833064  0.49817696  1
  O  O194  1  0.88347792  0.76390940  0.02107753  1
  O  O195  1  0.85097610  0.75099552  0.48931621  1
  O  O196  1  0.12845561  0.26509397  0.48432658  1
  O  O197  1  0.10781641  0.23215993  0.97136639  1
  O  O198  1  0.13343641  0.74711218  0.49298098  1
  O  O199  1  0.14144195  0.76397296  0.99225885  1
  O  O200  1  0.63160105  0.24216245  0.50038519  1
  O  O201  1  0.64231837  0.24771363  0.99383053  1
  O  O202  1  0.59181302  0.70654936  0.47896740  1
  O  O203  1  0.63488152  0.75279602  1.00433896  1
  O  O204  1  0.48747942  0.24622321  0.13525391  1
  O  O205  1  0.48536567  0.23247592  0.62315407  1
  O  O206  1  0.50708545  0.74498211  0.13439524  1
  O  O207  1  0.50330775  0.76408834  0.61485504  1
  O  O208  1  1.00180474  0.25711885  0.11310934  1
  O  O209  1  0.99413601  0.23934101  0.62201130  1
  O  O210  1  0.99637011  0.76049533  0.13784823  1
  O  O211  1  0.99940975  0.73783189  0.62911767  1
  O  O212  1  0.01074581  0.26817982  0.38315408  1
  O  O213  1  -0.00976971  0.25149860  0.86061702  1
  O  O214  1  0.00938927  0.76020390  0.37063582  1
  O  O215  1  -0.01310398  0.76529234  0.86998190  1
  O  O216  1  0.49808588  0.25771958  0.36079987  1
  O  O217  1  0.52184472  0.23407118  0.88622837  1
  O  O218  1  0.51230036  0.74217639  0.35528431  1
  O  O219  1  0.49786429  0.78381648  0.87672979  1
  O  O220  1  0.23839940  0.11472874  0.48020730  1
  O  O221  1  0.22751338  0.12348214  0.99612649  1
  O  O222  1  0.24361985  0.63517533  0.48962656  1
  O  O223  1  0.25812132  0.66174106  1.03600062  1
  O  O224  1  0.73515461  0.13418834  0.49478964  1
  O  O225  1  0.76271388  0.12964401  1.00037925  1
  O  O226  1  0.74758583  0.62535733  0.48293217  1
  O  O227  1  0.75196825  0.63235382  0.98124560  1
  O  O228  1  0.19798473  0.36023809  0.00426413  1
  O  O229  1  0.25120391  0.38828003  0.52316753  1
  O  O230  1  0.25897584  0.87060973  -0.00798725  1
  O  O231  1  0.26127436  0.86927928  0.49816191  1
  O  O232  1  0.75752851  0.36202720  0.00670558  1
  O  O233  1  0.76023750  0.37380750  0.50373314  1
  O  O234  1  0.76264083  0.87984076  0.02442579  1
  O  O235  1  0.69495266  0.81837604  0.53432751  1
  O  O236  1  0.12282695  0.48942385  0.24034635  1
  O  O237  1  0.14310128  0.50777352  0.75296917  1
  O  O238  1  0.11707687  0.98808807  0.23743503  1
  O  O239  1  0.10833254  1.00515807  0.72479032  1
  O  O240  1  0.62915315  0.52483345  0.21033635  1
  O  O241  1  0.62092346  0.47685715  0.77611588  1
  O  O242  1  0.61554422  0.98301703  0.24720862  1
  O  O243  1  0.65215281  0.99895631  0.74192478  1
  O  O244  1  0.38448936  -0.00856119  0.26715169  1
  O  O245  1  0.36978844  0.01053598  0.75506719  1
  O  O246  1  0.37788214  0.51229574  0.26366392  1
  O  O247  1  0.36660815  0.49040510  0.77705230  1
  O  O248  1  0.87812596  0.00883828  0.24584389  1
  O  O249  1  0.86608542  0.01430069  0.73062767  1
  O  O250  1  0.89188386  0.50887721  0.25888393  1
  O  O251  1  0.87237399  0.48619640  0.75615099  1
  O  O252  1  0.11786380  0.38152800  0.37073654  1
  O  O253  1  0.12380333  0.36358498  0.86467968  1
  O  O254  1  0.12555441  0.86614327  0.36734903  1
  O  O255  1  0.11026632  0.87360582  0.87143781  1
  O  O256  1  0.63027518  0.43718647  0.35110370  1
  O  O257  1  0.61502548  0.35931485  0.87949227  1
  O  O258  1  0.61631083  0.86419837  0.35788431  1
  O  O259  1  0.64711205  0.86488589  0.87081123  1
  O  O260  1  0.36198755  0.13149496  0.13768561  1
  O  O261  1  0.37570201  0.12748354  0.63195829  1
  O  O262  1  0.37188310  0.60913907  0.14004595  1
  O  O263  1  0.38798028  0.65109476  0.60752004  1
  O  O264  1  0.88543549  0.13792400  0.13648129  1
  O  O265  1  0.88450734  0.13873158  0.62286678  1
  O  O266  1  0.87236328  0.64181588  0.13110918  1
  O  O267  1  0.87532595  0.63011734  0.61730291  1
  O  O268  1  0.26086297  0.25191708  0.13411666  1
  O  O269  1  0.25846978  0.27011199  0.63085590  1
  O  O270  1  0.26367126  0.72236114  0.09574299  1
  O  O271  1  0.25741847  0.74924138  0.61069193  1
  O  O272  1  0.74464247  0.25984981  0.11575059  1
  O  O273  1  0.75879045  0.25697130  0.61245404  1
  O  O274  1  0.76084403  0.75700585  0.13480885  1
  O  O275  1  0.71850891  0.69438740  0.61098905  1
  O  O276  1  0.24611266  0.23845380  0.37744355  1
  O  O277  1  0.23432883  0.25140380  0.85634500  1
  O  O278  1  0.24663290  0.74644652  0.38466806  1
  O  O279  1  0.26575127  0.73920252  0.88584089  1
  O  O280  1  0.75275324  0.26613165  0.38474396  1
  O  O281  1  0.74964325  0.23778033  0.89462206  1
  O  O282  1  0.72148152  0.75625131  0.39238476  1
  O  O283  1  0.75863245  0.72562110  0.83220642  1
  O  O284  1  0.00547352  0.10512711  -0.00351919  1
  O  O285  1  -0.00112133  0.11605287  0.50641816  1
  O  O286  1  -0.00881627  0.60859047  0.00714155  1
  O  O287  1  0.00633294  0.62666520  0.50840796  1
  O  O288  1  0.50860415  0.07185556  -0.04189964  1
  O  O289  1  0.51183289  0.12411152  0.50498286  1
  O  O290  1  0.52166656  0.64013346  -0.00925574  1
  O  O291  1  0.53592224  0.64771960  0.48782877  1
  O  O292  1  0.54231733  0.40741537  0.50735598  1
  O  O293  1  0.50511591  0.35686983  0.99324297  1
  O  O294  1  0.49199045  0.89495825  0.50383221  1
  O  O295  1  0.48632035  0.88721517  1.00840779  1
  O  O296  1  0.99623465  0.38714927  0.49349850  1
  O  O297  1  1.00818879  0.38681804  0.99952002  1
  O  O298  1  1.00001661  0.87866166  0.48524581  1
  O  O299  1  0.98770265  0.87679310  0.98710331  1
  O  O300  1  0.48393947  0.50689533  0.38015729  1
  O  O301  1  0.47820819  0.47441683  0.88426431  1
  O  O302  1  0.48370080  1.01137746  0.39241484  1
  O  O303  1  0.51258578  1.02511602  0.90022053  1
  O  O304  1  0.99789916  0.49460150  0.38148453  1
  O  O305  1  1.01669433  0.50045221  0.88543669  1
  O  O306  1  1.01251830  0.98626173  0.38285835  1
  O  O307  1  0.99689721  0.98548332  0.88714323  1
  O  O308  1  0.01553783  -0.01614933  0.10756205  1
  O  O309  1  0.00461155  0.00956793  0.61224923  1
  O  O310  1  0.02063796  0.49218222  0.11853465  1
  O  O311  1  -0.00858383  0.51679471  0.61179489  1
  O  O312  1  0.51412537  0.01116677  0.13012520  1
  O  O313  1  0.48951125  0.01768793  0.60938828  1
  O  O314  1  0.50759493  0.48985863  0.11514564  1
  O  O315  1  0.48674635  0.50400600  0.63320703  1
  O  O316  1  0.24468294  0.38225889  0.26155599  1
  O  O317  1  0.25439879  0.39073861  0.73485680  1
  O  O318  1  0.23746211  0.86717292  0.25209204  1
  O  O319  1  0.24573626  0.83217439  0.75494094  1
  O  O320  1  0.75533416  0.37697574  0.23274135  1
  O  O321  1  0.73998884  0.38257331  0.75562440  1
  O  O322  1  0.73368431  0.86837776  0.24773209  1
  O  O323  1  0.77066416  0.89344366  0.73808670  1
  O  O324  1  0.22774416  0.11634683  0.27935218  1
  O  O325  1  0.24932977  0.12095020  0.73632014  1
  O  O326  1  0.26416257  0.63866874  0.26392415  1
  O  O327  1  0.26277528  0.61241695  0.73689112  1
  O  O328  1  0.77819607  0.14053384  0.25386195  1
  O  O329  1  0.76011073  0.11400893  0.72650839  1
  O  O330  1  0.76692234  0.62038521  0.24696276  1
  O  O331  1  0.75119528  0.59693606  0.75961748  1
  O  O332  1  0.36635576  0.11560881  0.37861560  1
  O  O333  1  0.36820321  0.11645900  0.85490680  1
  O  O334  1  0.36353265  0.62438204  0.37423129  1
  O  O335  1  0.38635426  0.61946175  0.88507821  1
  O  O336  1  0.87366154  0.11913941  0.37310733  1
  O  O337  1  0.85316606  0.12526581  0.84999451  1
  O  O338  1  0.88699635  0.61454430  0.36650211  1
  O  O339  1  0.86898832  0.62480606  0.87810231  1
  O  O340  1  0.13036638  0.36550781  0.14934616  1
  O  O341  1  0.12969972  0.37853391  0.62784465  1
  O  O342  1  0.12618974  0.87223338  0.13757313  1
  O  O343  1  0.11934592  0.87820425  0.63064904  1
  O  O344  1  0.64196122  0.39319709  0.11295049  1
  O  O345  1  0.62089977  0.35954738  0.65236002  1
  O  O346  1  0.63876836  0.88147007  0.13286810  1
  O  O347  1  0.63415441  0.78546669  0.72084257  1
  O  O348  1  0.13082947  0.26867168  0.27333466  1
  O  O349  1  0.10449273  0.23639106  0.76067721  1
  O  O350  1  0.11863400  0.75859200  0.25360178  1
  O  O351  1  0.12193931  0.71279701  0.78712665  1
  O  O352  1  0.60641246  0.25902611  0.24527015  1
  O  O353  1  0.64435501  0.25903583  0.77531347  1
  O  O354  1  0.61796468  0.74892376  0.25043220  1
  O  O355  1  0.57846648  0.73273727  0.76003162  1
  O  O356  1  0.38540601  0.24773372  0.24344258  1
  O  O357  1  0.36914513  0.22913781  0.73827339  1
  O  O358  1  0.38723782  0.74312494  0.25032247  1
  O  O359  1  0.38953737  0.75455029  0.73176430  1
  O  O360  1  0.89127299  0.25378543  0.23510629  1
  O  O361  1  0.87676331  0.24059652  0.73697243  1
  O  O362  1  0.88940679  0.74265772  0.24197209  1
  O  O363  1  0.85183125  0.81110387  0.64031711  1
  O  O364  1  0.37141814  0.51032959  0.48935388  1
  O  O365  1  0.35322643  0.48985902  0.98024348  1
  O  O366  1  0.37849330  0.99371053  0.49738351  1
  O  O367  1  0.36087786  1.00247415  0.97940593  1
  O  O368  1  0.88789446  0.49314719  0.48347552  1
  O  O369  1  0.90262334  0.50873485  1.00608666  1
  O  O370  1  0.89569904  0.99863312  0.49759633  1
  O  O371  1  0.88609736  0.98642168  1.01659778  1
  O  O372  1  0.11588371  0.00746711  0.00534664  1
  O  O373  1  0.11058580  -0.00766844  0.51512147  1
  O  O374  1  0.11667859  0.51300187  0.00957009  1
  O  O375  1  0.11365705  0.51532723  0.49041713  1
  O  O376  1  0.63291825  0.00302196  0.02529458  1
  O  O377  1  0.61065285  0.01307090  0.50269992  1
  O  O378  1  0.62178305  0.50123600  -0.00484858  1
  O  O379  1  0.59618319  0.46045822  0.52030001  1
  O  O380  1  0.36724789  0.35913961  0.12308451  1
  O  O381  1  0.39087376  0.35585406  0.62945308  1
  O  O382  1  0.36499658  0.89967896  0.10848590  1
  O  O383  1  0.37621650  0.87020793  0.61750425  1
  O  O384  1  0.86852735  0.36162866  0.12504846  1
  O  O385  1  0.88407272  0.36465085  0.60794786  1
  O  O386  1  0.86426294  0.86683402  0.13450432  1
  O  O387  1  0.88511543  0.86914159  0.60783785  1
  O  O388  1  0.11657972  0.14259138  0.38118059  1
  O  O389  1  0.12263108  0.11642032  0.87665426  1
  O  O390  1  0.13660006  0.63966480  0.37224554  1
  O  O391  1  0.11593659  0.66092873  0.84405713  1
  O  O392  1  0.62203199  0.12372505  0.38622326  1
  O  O393  1  0.64840669  0.13064422  0.86923726  1
  O  O394  1  0.63057183  0.62479576  0.34915050  1
  O  O395  1  0.63982794  0.62779892  0.88696604  1
