# generated using pymatgen
data_V35Zn35O128
_symmetry_space_group_name_H-M   'P 1'
_cell_length_a   16.98604415
_cell_length_b   16.89638219
_cell_length_c   16.91924252
_cell_angle_alpha   90.17309629
_cell_angle_beta   89.98633718
_cell_angle_gamma   90.18676115
_symmetry_Int_Tables_number   1
_chemical_formula_structural   V35Zn35O128
_chemical_formula_sum   'V70 Zn70 O256'
_cell_volume   4855.82009665
_cell_formula_units_Z   2
loop_
 _symmetry_equiv_pos_site_id
 _symmetry_equiv_pos_as_xyz
  1  'x, y, z'
loop_
 _atom_site_type_symbol
 _atom_site_label
 _atom_site_symmetry_multiplicity
 _atom_site_fract_x
 _atom_site_fract_y
 _atom_site_fract_z
 _atom_site_occupancy
  V  V0  1  0.23827866  0.88156927  0.63123767  1
  V  V1  1  0.50948109  0.00784137  -0.00092192  1
  V  V2  1  0.50073417  0.25368111  0.77482823  1
  V  V3  1  0.51317243  0.87774690  0.87341399  1
  V  V4  1  0.88059926  0.39761870  -0.00532173  1
  V  V5  1  0.62565402  0.14780190  0.00406858  1
  V  V6  1  0.11462912  0.75236352  0.84692723  1
  V  V7  1  0.62314579  0.25189278  0.36944964  1
  V  V8  1  0.51676593  0.00504061  0.51159104  1
  V  V9  1  0.62586632  0.74635168  0.37006799  1
  V  V10  1  0.87319229  0.38978747  0.50077995  1
  V  V11  1  0.01350104  0.76091099  0.26535020  1
  V  V12  1  0.00913829  -0.00153114  0.51011626  1
  V  V13  1  0.73762144  -0.00561267  0.24303637  1
  V  V14  1  0.61286680  0.48863364  0.62917559  1
  V  V15  1  0.75678732  0.63678418  0.87740691  1
  V  V16  1  0.25765289  -0.00450339  0.26357816  1
  V  V17  1  0.01001756  0.35890308  0.37061081  1
  V  V18  1  0.87670048  0.12868974  0.24899306  1
  V  V19  1  0.61736741  0.50755561  0.11765656  1
  V  V20  1  0.74479762  0.12429977  0.37643126  1
  V  V21  1  0.00734793  -0.00192911  0.00328497  1
  V  V22  1  0.75104142  0.25161287  0.50386327  1
  V  V23  1  0.35692778  0.00555724  0.87456303  1
  V  V24  1  0.74172974  0.87202808  0.12487609  1
  V  V25  1  0.22825227  0.49861326  0.24213399  1
  V  V26  1  0.75629373  0.13291650  0.87527351  1
  V  V27  1  0.50075986  0.50837392  0.48008152  1
  V  V28  1  0.87677015  0.62488784  0.25452387  1
  V  V29  1  0.00786411  0.50829057  0.49069501  1
  V  V30  1  -0.00143502  0.62625736  0.63726860  1
  V  V31  1  0.24673546  0.36526683  0.62478570  1
  V  V32  1  0.01263040  0.38328280  0.87675447  1
  V  V33  1  0.86796309  0.87508068  0.50109359  1
  V  V34  1  0.01591225  0.12615806  0.13743606  1
  V  V35  1  0.50419675  0.87256642  0.36885150  1
  V  V36  1  0.87405208  0.24056224  0.10781692  1
  V  V37  1  0.87586638  0.74964944  0.13030213  1
  V  V38  1  0.49218039  0.76501459  0.74291565  1
  V  V39  1  0.60809545  0.37097374  0.24845278  1
  V  V40  1  0.74766899  0.61756633  0.37781661  1
  V  V41  1  0.75877751  0.48764562  0.25039086  1
  V  V42  1  0.01303576  0.61378125  0.11633042  1
  V  V43  1  0.38180281  0.01195904  0.37348779  1
  V  V44  1  0.00050327  0.87451773  0.86577622  1
  V  V45  1  0.39810456  0.23590051  0.61271820  1
  V  V46  1  0.13161076  -0.02253418  0.13208394  1
  V  V47  1  0.01214228  0.12489326  0.62535770  1
  V  V48  1  0.36189362  0.25190509  0.12076855  1
  V  V49  1  0.23625368  0.74878034  0.48836147  1
  V  V50  1  0.86707805  0.11298897  0.74686877  1
  V  V51  1  0.87251238  -0.00506804  0.37847986  1
  V  V52  1  0.00015107  0.25660774  0.75341897  1
  V  V53  1  0.87883000  0.87612880  0.00666879  1
  V  V54  1  0.38550918  0.39722035  -0.00006215  1
  V  V55  1  0.25165023  0.63600979  0.85328766  1
  V  V56  1  0.50046911  0.74876237  0.24747971  1
  V  V57  1  0.37888522  0.87059431  0.50127154  1
  V  V58  1  0.37845103  0.36798057  0.48484220  1
  V  V59  1  0.22570176  0.74550833  0.00107142  1
  V  V60  1  0.87572749  0.74766418  0.63294910  1
  V  V61  1  0.23772631  0.62063994  0.37270065  1
  V  V62  1  0.17002048  0.17034989  0.44092022  1
  V  V63  1  0.38050603  0.61556306  0.25176297  1
  V  V64  1  0.36687016  0.12267996  0.74805192  1
  V  V65  1  0.22861347  0.37404405  0.12015562  1
  V  V66  1  0.74417759  0.74628010  0.50741692  1
  V  V67  1  0.38558266  0.73858531  0.11148153  1
  V  V68  1  0.49104482  0.12646374  0.13611962  1
  V  V69  1  0.13129566  0.50618892  0.62954430  1
  Zn  Zn70  1  0.87175342  0.25029718  0.62473097  1
  Zn  Zn71  1  0.37144050  0.87974868  -0.00348954  1
  Zn  Zn72  1  0.73942601  0.36641749  0.10893006  1
  Zn  Zn73  1  0.25551937  0.86444977  0.12984408  1
  Zn  Zn74  1  0.47292619  0.24849921  0.26231164  1
  Zn  Zn75  1  0.37392458  0.74759801  0.62443652  1
  Zn  Zn76  1  0.20156084  0.18104150  0.20443733  1
  Zn  Zn77  1  0.21052923  0.23440319  0.75525454  1
  Zn  Zn78  1  0.18651611  0.68636335  0.18715187  1
  Zn  Zn79  1  0.18206645  0.69561212  0.66984499  1
  Zn  Zn80  1  0.69220716  0.18266683  0.17594776  1
  Zn  Zn81  1  0.69622612  0.22400128  0.71046342  1
  Zn  Zn82  1  0.68970685  0.68603123  0.18988859  1
  Zn  Zn83  1  0.65143180  0.67337187  0.69231403  1
  Zn  Zn84  1  0.29477438  0.31078956  0.30253794  1
  Zn  Zn85  1  0.35159020  0.35056518  0.79350816  1
  Zn  Zn86  1  0.31594970  0.81233128  0.31118177  1
  Zn  Zn87  1  0.31470050  0.81717595  0.81467438  1
  Zn  Zn88  1  0.82508796  0.31020693  0.32154585  1
  Zn  Zn89  1  0.84407367  0.29040017  0.84148563  1
  Zn  Zn90  1  0.81298671  0.81181032  0.31163471  1
  Zn  Zn91  1  0.81562279  0.82783348  0.81186444  1
  Zn  Zn92  1  0.18896243  0.43401583  0.44071027  1
  Zn  Zn93  1  0.22099482  0.36959717  0.90545531  1
  Zn  Zn94  1  0.19026352  0.93576411  0.44387936  1
  Zn  Zn95  1  0.18325496  0.92884837  0.93910097  1
  Zn  Zn96  1  0.68395937  0.43517660  0.43930924  1
  Zn  Zn97  1  0.70167810  0.44462546  0.93981072  1
  Zn  Zn98  1  0.68928405  0.93097631  0.43449410  1
  Zn  Zn99  1  0.71175390  0.94476156  0.91654392  1
  Zn  Zn100  1  0.31403153  0.05880081  0.06553571  1
  Zn  Zn101  1  0.30767654  0.06181561  0.56017817  1
  Zn  Zn102  1  0.26923210  0.54187939  0.03012764  1
  Zn  Zn103  1  0.31405804  0.55088515  0.54107487  1
  Zn  Zn104  1  0.80578313  0.05785228  0.05132300  1
  Zn  Zn105  1  0.79678270  0.06462744  0.56603662  1
  Zn  Zn106  1  0.81209561  0.55876863  0.07571568  1
  Zn  Zn107  1  0.82126617  0.54127982  0.61607203  1
  Zn  Zn108  1  0.42889719  0.44389917  0.17322417  1
  Zn  Zn109  1  0.45784337  0.41341353  0.66045161  1
  Zn  Zn110  1  0.43424967  0.93169940  0.18383194  1
  Zn  Zn111  1  0.43441428  0.93969566  0.68756795  1
  Zn  Zn112  1  0.94181620  0.43445600  0.19208803  1
  Zn  Zn113  1  0.94024108  0.43445221  0.68491723  1
  Zn  Zn114  1  0.93659927  0.93943943  0.19362904  1
  Zn  Zn115  1  0.92794406  0.93646466  0.68204288  1
  Zn  Zn116  1  0.07680225  0.01662977  0.33363497  1
  Zn  Zn117  1  0.06934584  0.07177728  0.81172378  1
  Zn  Zn118  1  0.05616227  0.56668368  0.31429842  1
  Zn  Zn119  1  0.07103985  0.56313785  0.81322226  1
  Zn  Zn120  1  0.56141673  0.06233456  0.31181438  1
  Zn  Zn121  1  0.56099247  0.07768489  0.81841652  1
  Zn  Zn122  1  0.56549131  0.55835710  0.30702844  1
  Zn  Zn123  1  0.53435339  0.56664603  0.79716670  1
  Zn  Zn124  1  0.44697116  0.18368191  0.44234431  1
  Zn  Zn125  1  0.42444364  0.19075381  0.94174177  1
  Zn  Zn126  1  0.43051331  0.68526070  0.43021317  1
  Zn  Zn127  1  0.44579229  0.67207184  0.92199086  1
  Zn  Zn128  1  0.93970768  0.18076120  0.43720726  1
  Zn  Zn129  1  0.96241730  0.17109888  0.92910287  1
  Zn  Zn130  1  0.93332585  0.68654467  0.43892257  1
  Zn  Zn131  1  0.94088263  0.68952251  0.93962836  1
  Zn  Zn132  1  0.02977967  0.33180286  0.08472874  1
  Zn  Zn133  1  0.06451299  0.31398945  0.56049584  1
  Zn  Zn134  1  0.05202811  0.80591535  0.07624123  1
  Zn  Zn135  1  0.05687451  0.81312394  0.55834329  1
  Zn  Zn136  1  0.54859332  0.31637707  0.06881091  1
  Zn  Zn137  1  0.56727090  0.31808679  0.55151915  1
  Zn  Zn138  1  0.55137663  0.82452888  0.06523719  1
  Zn  Zn139  1  0.56449845  0.81367131  0.55744871  1
  O  O140  1  0.11656781  0.12845977  0.14134155  1
  O  O141  1  0.10644876  0.11940691  0.63158831  1
  O  O142  1  0.11281632  0.62557235  0.12341187  1
  O  O143  1  0.10564422  0.62345181  0.61946377  1
  O  O144  1  0.59511435  0.13643936  0.12130304  1
  O  O145  1  0.65892387  0.05044507  0.67546567  1
  O  O146  1  0.63637019  0.60714731  0.12922386  1
  O  O147  1  0.62811955  0.60632163  0.60843395  1
  O  O148  1  0.35585549  0.35071832  0.38879385  1
  O  O149  1  0.36214900  0.39858048  0.90118164  1
  O  O150  1  0.38913099  0.87493103  0.38316550  1
  O  O151  1  0.38276568  0.89336317  0.87418134  1
  O  O152  1  0.88894106  0.37173640  0.39397629  1
  O  O153  1  0.88160989  0.38801921  0.88914261  1
  O  O154  1  0.86568543  0.88464537  0.38465461  1
  O  O155  1  0.89130064  0.86429695  0.89946139  1
  O  O156  1  0.26844931  -0.00390556  0.37019574  1
  O  O157  1  0.25834088  -0.00550751  0.87931799  1
  O  O158  1  0.24451466  0.51170246  0.36253572  1
  O  O159  1  0.22401411  0.52868518  0.85798453  1
  O  O160  1  0.75173093  0.00416977  0.36411970  1
  O  O161  1  0.76897454  0.04531649  0.93520346  1
  O  O162  1  0.74155760  0.50981297  0.36469345  1
  O  O163  1  0.74279972  0.53305001  0.86891274  1
  O  O164  1  0.23570370  0.49069185  0.13161913  1
  O  O165  1  0.22912917  0.52265307  0.61013277  1
  O  O166  1  0.23875600  0.98983462  0.11662612  1
  O  O167  1  0.25058791  0.98044544  0.61419707  1
  O  O168  1  0.74401062  0.48973680  0.13989039  1
  O  O169  1  0.71593246  0.51083567  0.60860022  1
  O  O170  1  0.75599734  0.98800401  0.13677278  1
  O  O171  1  0.71362225  1.00771101  0.63737793  1
  O  O172  1  -0.00788838  0.37428714  0.27108088  1
  O  O173  1  -0.00199837  0.36384085  0.75379535  1
  O  O174  1  -0.00525641  0.85997126  0.24988517  1
  O  O175  1  -0.01628584  0.88508937  0.76926988  1
  O  O176  1  0.50814159  0.36949287  0.24638086  1
  O  O177  1  0.46373380  0.35745428  0.75631763  1
  O  O178  1  0.49499953  0.86357578  0.25815427  1
  O  O179  1  0.50337503  0.87620521  0.76160096  1
  O  O180  1  0.49307513  0.12158399  0.23834536  1
  O  O181  1  0.48658717  0.14235972  0.76095956  1
  O  O182  1  0.48693947  0.63053453  0.25631654  1
  O  O183  1  0.55008096  0.67889959  0.75777961  1
  O  O184  1  0.98683816  0.10649110  0.23743758  1
  O  O185  1  0.98096043  0.12925293  0.73764222  1
  O  O186  1  0.98861012  0.63055433  0.24604216  1
  O  O187  1  0.99818201  0.62164788  0.73564611  1
  O  O188  1  0.37226092  0.26466928  0.01407010  1
  O  O189  1  0.37463052  0.24331588  0.50732063  1
  O  O190  1  0.39269230  0.73458039  0.00918785  1
  O  O191  1  0.37585227  0.75916925  0.49974958  1
  O  O192  1  0.88424107  0.23070337  0.00924205  1
  O  O193  1  0.85717534  0.24584845  0.49980348  1
  O  O194  1  0.88729583  0.76315123  0.01965539  1
  O  O195  1  0.86336874  0.75785154  0.49984676  1
  O  O196  1  0.12509033  0.24021294  0.49879513  1
  O  O197  1  0.22959356  0.18654829  0.96302027  1
  O  O198  1  0.13811816  0.75332953  0.49380261  1
  O  O199  1  0.12752728  0.75401311  1.00463754  1
  O  O200  1  0.63713203  0.26099042  0.47709317  1
  O  O201  1  0.61313383  0.24680881  1.00329017  1
  O  O202  1  0.63754026  0.75020618  0.49035847  1
  O  O203  1  0.60060497  0.73906387  0.99371873  1
  O  O204  1  0.48149234  0.24110761  0.13243148  1
  O  O205  1  0.49732901  0.24111168  0.61246203  1
  O  O206  1  0.49251028  0.75216724  0.13323312  1
  O  O207  1  0.49564829  0.76846262  0.63727935  1
  O  O208  1  0.99185992  0.22938021  0.12776254  1
  O  O209  1  0.99739241  0.23922476  0.63115499  1
  O  O210  1  0.99068321  0.73612515  0.14248876  1
  O  O211  1  0.98643819  0.73964247  0.61634877  1
  O  O212  1  -0.00053621  0.25872882  0.38343146  1
  O  O213  1  -0.02702468  0.26512567  0.85858241  1
  O  O214  1  -0.00284129  0.74301252  0.36427148  1
  O  O215  1  0.00702816  0.76063484  0.87561381  1
  O  O216  1  0.51898289  0.23871375  0.36812828  1
  O  O217  1  0.49178887  0.25532908  0.87432814  1
  O  O218  1  0.50683830  0.75301646  0.36818946  1
  O  O219  1  0.49250720  0.77454795  0.86914493  1
  O  O220  1  0.23727812  0.11477024  0.49072256  1
  O  O221  1  0.22135221  0.12275068  0.99916153  1
  O  O222  1  0.25939829  0.63510078  0.48093004  1
  O  O223  1  0.24471196  0.64356828  0.98230439  1
  O  O224  1  0.74591707  0.13526077  0.48552851  1
  O  O225  1  0.71743943  0.13610867  1.04657667  1
  O  O226  1  0.75587205  0.63679797  0.47891215  1
  O  O227  1  0.78072775  0.62299731  0.98073557  1
  O  O228  1  0.25193608  0.37620155  0.02043378  1
  O  O229  1  0.26501133  0.38657584  0.51509928  1
  O  O230  1  0.25544923  0.85342774  -0.00345185  1
  O  O231  1  0.25945975  0.86221284  0.49746222  1
  O  O232  1  0.77433337  0.37951060  0.00072931  1
  O  O233  1  0.76230051  0.36343640  0.48908679  1
  O  O234  1  0.76928307  0.88487357  0.01411616  1
  O  O235  1  0.75380690  0.85633859  0.49607815  1
  O  O236  1  0.13078429  0.50425685  0.25057267  1
  O  O237  1  0.12311001  0.50513316  0.72858145  1
  O  O238  1  0.14380930  0.99875262  0.23687955  1
  O  O239  1  0.11363546  1.00054274  0.74461015  1
  O  O240  1  0.63566471  0.48288018  0.24616360  1
  O  O241  1  0.59308077  0.50486929  0.72971600  1
  O  O242  1  0.63906529  1.00158176  0.25029259  1
  O  O243  1  0.62816421  1.01203593  0.73854057  1
  O  O244  1  0.37455374  -0.00997353  0.26632748  1
  O  O245  1  0.38057227  0.01327719  0.76024650  1
  O  O246  1  0.36677212  0.51417657  0.24091171  1
  O  O247  1  0.40018239  0.57961662  0.69282043  1
  O  O248  1  0.86654918  0.00461728  0.26129937  1
  O  O249  1  0.86612905  0.01315521  0.74300406  1
  O  O250  1  0.86288734  0.50728265  0.24523622  1
  O  O251  1  0.85652237  0.49954860  0.71425898  1
  O  O252  1  0.10939872  0.37705587  0.38396437  1
  O  O253  1  0.10746747  0.35769236  0.88302576  1
  O  O254  1  0.11589839  0.91510560  0.36569047  1
  O  O255  1  0.11007285  0.86514225  0.87587805  1
  O  O256  1  0.63157892  0.36270009  0.35748837  1
  O  O257  1  0.67167812  0.38748908  0.83751666  1
  O  O258  1  0.61484899  0.86019152  0.37485329  1
  O  O259  1  0.61054482  0.88632146  0.88911140  1
  O  O260  1  0.37747254  0.14037010  0.11198170  1
  O  O261  1  0.37176206  0.12905322  0.63045766  1
  O  O262  1  0.36951295  0.64000680  0.14014858  1
  O  O263  1  0.37545941  0.61678973  0.63192208  1
  O  O264  1  0.87320206  0.12991601  0.13148248  1
  O  O265  1  0.86065583  0.12926216  0.63674351  1
  O  O266  1  0.87220900  0.63431314  0.13798273  1
  O  O267  1  0.88346543  0.63848610  0.62197327  1
  O  O268  1  0.25279784  0.25954483  0.13101562  1
  O  O269  1  0.23900052  0.26661775  0.64278274  1
  O  O270  1  0.25813814  0.74418755  0.10907451  1
  O  O271  1  0.25674362  0.75120719  0.60215202  1
  O  O272  1  0.77334119  0.25823255  0.13259371  1
  O  O273  1  0.73506994  0.24444752  0.60522631  1
  O  O274  1  0.76035846  0.76329650  0.13663759  1
  O  O275  1  0.75999288  0.73401852  0.60786874  1
  O  O276  1  0.23666516  0.21279851  0.36400453  1
  O  O277  1  0.26271569  0.29231052  0.83582012  1
  O  O278  1  0.25396796  0.74301477  0.38101344  1
  O  O279  1  0.23114086  0.75363604  0.87814894  1
  O  O280  1  0.74462373  0.24151913  0.37790993  1
  O  O281  1  0.76465924  0.22860019  0.90395598  1
  O  O282  1  0.74043993  0.74197260  0.37233688  1
  O  O283  1  0.76954754  0.74249919  0.88287303  1
  O  O284  1  -0.00620408  0.10253217  0.02755137  1
  O  O285  1  -0.01179318  0.11278591  0.51698709  1
  O  O286  1  -0.00759605  0.62836316  0.01810248  1
  O  O287  1  -0.01180412  0.61040740  0.50384858  1
  O  O288  1  0.50508534  0.12104624  0.00191188  1
  O  O289  1  0.50659729  0.10435915  0.49675237  1
  O  O290  1  0.56707879  0.67308978  -0.00665703  1
  O  O291  1  0.48965838  0.60910035  0.48898599  1
  O  O292  1  0.48213496  0.36590094  0.48942281  1
  O  O293  1  0.48501775  0.38416751  1.00727915  1
  O  O294  1  0.49645070  0.87970551  0.48908526  1
  O  O295  1  0.49339417  0.89209014  0.99337054  1
  O  O296  1  0.99213354  0.38756457  0.49608877  1
  O  O297  1  0.99102543  0.36988352  0.98573595  1
  O  O298  1  0.98344797  0.89082523  0.50803655  1
  O  O299  1  0.99501791  0.88134984  1.00909801  1
  O  O300  1  0.50430931  0.49473558  0.37875405  1
  O  O301  1  0.49986340  0.57715511  0.89796717  1
  O  O302  1  0.49569318  0.99073528  0.37603456  1
  O  O303  1  0.49739822  0.99942570  0.88589671  1
  O  O304  1  0.99908356  0.49814880  0.38807682  1
  O  O305  1  1.01196236  0.48335672  0.86578409  1
  O  O306  1  0.97661296  1.00940676  0.39908458  1
  O  O307  1  1.00446633  0.98388176  0.89815833  1
  O  O308  1  0.01990456  -0.00043961  0.12903406  1
  O  O309  1  -0.01152380  0.00981320  0.61729214  1
  O  O310  1  -0.00298012  0.51448938  0.13403712  1
  O  O311  1  0.00663286  0.51046471  0.61614907  1
  O  O312  1  0.47966681  0.01454351  0.11091628  1
  O  O313  1  0.50079814  -0.01022117  0.60999358  1
  O  O314  1  0.51889424  0.49919420  0.13551316  1
  O  O315  1  0.50257835  0.49480286  0.60113262  1
  O  O316  1  0.24858908  0.39453166  0.23794677  1
  O  O317  1  0.28144798  0.40738853  0.70972100  1
  O  O318  1  0.26135203  0.88742707  0.24414031  1
  O  O319  1  0.25685130  0.86352264  0.72910163  1
  O  O320  1  0.76009221  0.38532654  0.25691703  1
  O  O321  1  0.72767828  0.36572258  0.79262742  1
  O  O322  1  0.75249849  0.88524029  0.24076462  1
  O  O323  1  0.74936638  0.91204745  0.81513658  1
  O  O324  1  0.26559621  0.09205184  0.23497181  1
  O  O325  1  0.26848224  0.13247359  0.75221419  1
  O  O326  1  0.25409088  0.61650219  0.25320596  1
  O  O327  1  0.24078849  0.64392161  0.75387814  1
  O  O328  1  0.75636074  0.11169228  0.25093503  1
  O  O329  1  0.75285343  0.13751726  0.76583569  1
  O  O330  1  0.75717268  0.61445707  0.25693835  1
  O  O331  1  0.72910618  0.64616566  0.77814261  1
  O  O332  1  0.38609522  0.11033168  0.37419343  1
  O  O333  1  0.37163378  0.11531049  0.86766942  1
  O  O334  1  0.36083641  0.63026313  0.35492944  1
  O  O335  1  0.34971682  0.63884807  0.86601037  1
  O  O336  1  0.86229225  0.11674102  0.36893115  1
  O  O337  1  0.87133337  0.12791122  0.85618874  1
  O  O338  1  0.85926742  0.62985050  0.36363067  1
  O  O339  1  0.86188992  0.63448827  0.86263737  1
  O  O340  1  0.13002210  0.35949317  0.12399577  1
  O  O341  1  0.13829771  0.39132054  0.61685629  1
  O  O342  1  0.12909331  0.87639487  0.13047037  1
  O  O343  1  0.13947608  0.86358715  0.61730734  1
  O  O344  1  0.62739922  0.37407129  0.13922990  1
  O  O345  1  0.61754110  0.38470797  0.62636656  1
  O  O346  1  0.64366037  0.86727228  0.11384893  1
  O  O347  1  0.64673967  0.84490495  0.64588802  1
  O  O348  1  0.19091079  0.24813842  0.29931356  1
  O  O349  1  0.09709850  0.23548294  0.75722071  1
  O  O350  1  0.11236212  0.74844993  0.24809372  1
  O  O351  1  0.11544993  0.75733173  0.74917030  1
  O  O352  1  0.63312888  0.26196309  0.25269371  1
  O  O353  1  0.59949600  0.25517582  0.75166005  1
  O  O354  1  0.61126508  0.74203659  0.25589690  1
  O  O355  1  0.64340978  0.79625802  0.70568928  1
  O  O356  1  0.36559097  0.25426063  0.23208750  1
  O  O357  1  0.38638705  0.23601321  0.72872738  1
  O  O358  1  0.38518379  0.74359573  0.24272572  1
  O  O359  1  0.39027026  0.75116879  0.74763227  1
  O  O360  1  0.87429606  0.23190359  0.25029979  1
  O  O361  1  0.87743954  0.24344311  0.74146985  1
  O  O362  1  0.87959321  0.74263314  0.24688105  1
  O  O363  1  0.86339942  0.76371071  0.73089151  1
  O  O364  1  0.38750398  0.47923280  0.49433833  1
  O  O365  1  0.37276570  0.49482717  1.02974580  1
  O  O366  1  0.38403991  0.99080301  0.48590129  1
  O  O367  1  0.37816836  1.00614015  0.98498792  1
  O  O368  1  0.87601030  0.49139388  0.51140016  1
  O  O369  1  0.88451091  0.49484635  1.01286426  1
  O  O370  1  0.85400469  0.98906945  0.49639998  1
  O  O371  1  0.89508572  0.98388631  1.02213553  1
  O  O372  1  0.11581992  -0.01018813  0.01635294  1
  O  O373  1  0.10633643  -0.00520624  0.50763846  1
  O  O374  1  0.21761233  0.48937959  -0.07073519  1
  O  O375  1  0.11043754  0.50168182  0.50465130  1
  O  O376  1  0.60810138  0.00971089  0.00518508  1
  O  O377  1  0.61591792  -0.01125986  0.49720800  1
  O  O378  1  0.63339919  0.48532625  0.01889520  1
  O  O379  1  0.60426211  0.48544548  0.49948274  1
  O  O380  1  0.36360789  0.36610385  0.12102143  1
  O  O381  1  0.37249097  0.34675196  0.60671516  1
  O  O382  1  0.37490268  0.85609717  0.11619995  1
  O  O383  1  0.36750750  0.87576026  0.61076709  1
  O  O384  1  0.90069738  0.35474935  0.10887120  1
  O  O385  1  0.88249457  0.36516134  0.60378046  1
  O  O386  1  0.87108681  0.86683234  0.12489069  1
  O  O387  1  0.87283656  0.86080752  0.61276233  1
  O  O388  1  0.10780379  0.11465304  0.38344516  1
  O  O389  1  0.06593933  0.13670547  0.89682994  1
  O  O390  1  0.13945260  0.62857559  0.36920610  1
  O  O391  1  0.12281486  0.64936950  0.86814236  1
  O  O392  1  0.63673715  0.13873631  0.35784015  1
  O  O393  1  0.64167884  0.12535234  0.89455886  1
  O  O394  1  0.63780744  0.63274836  0.36588328  1
  O  O395  1  0.66260908  0.65565541  0.91566741  1
