# generated using pymatgen
data_V35Zn35O128
_symmetry_space_group_name_H-M   'P 1'
_cell_length_a   16.91643010
_cell_length_b   16.82731915
_cell_length_c   16.88280436
_cell_angle_alpha   90.34248677
_cell_angle_beta   89.74513770
_cell_angle_gamma   90.23130954
_symmetry_Int_Tables_number   1
_chemical_formula_structural   V35Zn35O128
_chemical_formula_sum   'V70 Zn70 O256'
_cell_volume   4805.65611176
_cell_formula_units_Z   2
loop_
 _symmetry_equiv_pos_site_id
 _symmetry_equiv_pos_as_xyz
  1  'x, y, z'
loop_
 _atom_site_type_symbol
 _atom_site_label
 _atom_site_symmetry_multiplicity
 _atom_site_fract_x
 _atom_site_fract_y
 _atom_site_fract_z
 _atom_site_occupancy
  V  V0  1  0.38507513  0.38459654  0.00319345  1
  V  V1  1  0.87129289  0.73845249  0.12925166  1
  V  V2  1  0.11940458  0.50641416  0.11945116  1
  V  V3  1  0.38486109  0.77605894  0.60983871  1
  V  V4  1  0.23944257  0.62808331  0.38457907  1
  V  V5  1  0.50178444  0.24853550  0.25297170  1
  V  V6  1  0.00043044  0.00148960  0.00654980  1
  V  V7  1  0.11814229  0.37415928  0.25771695  1
  V  V8  1  0.60905323  0.62328862  0.00277180  1
  V  V9  1  0.63847865  0.37299013  0.24502261  1
  V  V10  1  0.48197749  0.87552784  0.38220783  1
  V  V11  1  0.25639817  0.12750025  0.87361479  1
  V  V12  1  0.64981422  0.75254517  0.37596023  1
  V  V13  1  0.12473780  0.24349830  0.37799409  1
  V  V14  1  0.13720488  0.65550508  -0.00313158  1
  V  V15  1  0.50584169  0.37279720  0.37505300  1
  V  V16  1  0.36213118  0.75972333  0.12662872  1
  V  V17  1  0.50323711  0.74929601  0.24864908  1
  V  V18  1  0.64262279  0.62981611  0.49572698  1
  V  V19  1  0.74515711  0.60921734  0.87651751  1
  V  V20  1  0.62341144  0.75943842  0.86326076  1
  V  V21  1  0.77426532  0.09609906  0.38757921  1
  V  V22  1  0.24980767  0.24124682  0.50236515  1
  V  V23  1  0.25883375  0.63528271  0.86108499  1
  V  V24  1  0.86967928  0.00763615  0.87628163  1
  V  V25  1  0.00844810  0.49742517  0.49712662  1
  V  V26  1  0.63175247  0.14134708  0.50732221  1
  V  V27  1  0.38281270  0.62475926  0.24814727  1
  V  V28  1  0.13489682  -0.01720063  0.12668579  1
  V  V29  1  0.37253422  0.24587464  0.13271736  1
  V  V30  1  0.49380550  0.62739411  0.61565870  1
  V  V31  1  0.00957267  0.74930567  0.27549005  1
  V  V32  1  0.00641483  0.86654297  0.87324691  1
  V  V33  1  0.63544727  -0.00367637  0.12525011  1
  V  V34  1  0.87281408  0.60817183  0.75997915  1
  V  V35  1  0.25440802  0.02791888  0.24371834  1
  V  V36  1  0.85121078  0.74784801  0.63101133  1
  V  V37  1  0.49626739  0.36910777  0.85082861  1
  V  V38  1  0.01969381  0.13305474  0.62941151  1
  V  V39  1  -0.00841343  -0.01539029  0.52059901  1
  V  V40  1  0.50758839  0.50133893  0.49538576  1
  V  V41  1  0.87732668  0.36536541  0.00147191  1
  V  V42  1  0.49884136  0.76804872  0.74659999  1
  V  V43  1  0.23772654  0.75518423  0.49863662  1
  V  V44  1  0.74868925  0.75442412  -0.00044105  1
  V  V45  1  -0.05824960  0.32187423  0.32631886  1
  V  V46  1  0.00706309  0.74679454  0.75586559  1
  V  V47  1  0.86738461  0.36270572  0.51051396  1
  V  V48  1  0.75545417  -0.01390248  0.74308466  1
  V  V49  1  0.25532379  0.39245772  0.61457225  1
  V  V50  1  0.61542436  0.23985683  0.84560517  1
  V  V51  1  0.37809126  -0.01971452  0.87689856  1
  V  V52  1  0.86948482  0.87518529  0.00387922  1
  V  V53  1  0.88087935  0.14013368  0.74531174  1
  V  V54  1  0.63999809  0.88351851  0.25317187  1
  V  V55  1  0.12444197  0.13176496  0.00300760  1
  V  V56  1  0.01054806  0.61786170  0.62462215  1
  V  V57  1  0.75551382  0.51735657  0.24603176  1
  V  V58  1  0.60700057  0.50655340  0.12371583  1
  V  V59  1  0.62776862  0.13207392  -0.00557978  1
  V  V60  1  0.22634749  0.87845267  0.62930069  1
  V  V61  1  0.23924178  -0.00089685  0.74852802  1
  V  V62  1  0.36949774  0.02553406  0.37437980  1
  V  V63  1  0.49116330  0.11628602  0.12573698  1
  V  V64  1  0.86681802  0.51686783  0.37968276  1
  V  V65  1  0.25121813  0.25077438  0.00061599  1
  V  V66  1  0.37707469  0.49678526  0.38089869  1
  V  V67  1  0.73182177  0.37786714  0.64490756  1
  V  V68  1  0.24708824  0.50177813  0.25189290  1
  V  V69  1  0.13614503  0.36318869  0.75153540  1
  Zn  Zn70  1  -0.00184698  0.62755179  0.12949349  1
  Zn  Zn71  1  0.24776555  0.37623651  0.12593541  1
  Zn  Zn72  1  0.49634692  -0.02707849  -0.01082101  1
  Zn  Zn73  1  0.61905954  0.99569499  0.63556447  1
  Zn  Zn74  1  0.48595995  0.13350437  0.62378324  1
  Zn  Zn75  1  0.37467784  0.51194614  0.85952204  1
  Zn  Zn76  1  0.17430444  0.18958220  0.18037444  1
  Zn  Zn77  1  0.19075761  0.19399052  0.68749222  1
  Zn  Zn78  1  0.18243857  0.69202090  0.19780473  1
  Zn  Zn79  1  0.19212861  0.68863254  0.68844948  1
  Zn  Zn80  1  0.69273492  0.18806089  0.17663474  1
  Zn  Zn81  1  0.70559444  0.18151397  0.68492174  1
  Zn  Zn82  1  0.68729036  0.69073058  0.18619453  1
  Zn  Zn83  1  0.67151306  0.64199641  0.69794164  1
  Zn  Zn84  1  0.31399689  0.30895147  0.32116122  1
  Zn  Zn85  1  0.28349468  0.33968731  0.83134302  1
  Zn  Zn86  1  0.30970658  0.80663917  0.30833820  1
  Zn  Zn87  1  0.31074298  0.80893179  0.80411000  1
  Zn  Zn88  1  0.89113967  0.21354468  0.16665358  1
  Zn  Zn89  1  0.79917853  0.30635464  0.81329645  1
  Zn  Zn90  1  0.83429816  0.82657849  0.30193190  1
  Zn  Zn91  1  0.81841785  0.80458390  0.81325219  1
  Zn  Zn92  1  0.18699957  0.43557673  0.43761228  1
  Zn  Zn93  1  0.19583248  0.44988907  0.93636844  1
  Zn  Zn94  1  0.21720390  0.95147398  0.43752551  1
  Zn  Zn95  1  0.18643382  0.93635057  0.93458090  1
  Zn  Zn96  1  0.69238870  0.43182233  0.43596592  1
  Zn  Zn97  1  0.66805285  0.45005125  0.80065185  1
  Zn  Zn98  1  0.68696755  0.93854130  0.45440898  1
  Zn  Zn99  1  0.68335736  0.94172240  0.93794585  1
  Zn  Zn100  1  0.31741080  -0.07290261  0.05878294  1
  Zn  Zn101  1  0.29964548  0.06588398  0.55501425  1
  Zn  Zn102  1  0.31156307  0.57048159  0.06286051  1
  Zn  Zn103  1  0.31753005  0.56960421  0.56447112  1
  Zn  Zn104  1  0.80807843  0.07691812  0.06727388  1
  Zn  Zn105  1  0.82130799  0.06724559  0.56834625  1
  Zn  Zn106  1  0.80164461  0.56093502  0.05931100  1
  Zn  Zn107  1  0.81820668  0.55519097  0.57260317  1
  Zn  Zn108  1  0.43597400  0.43373191  0.19134093  1
  Zn  Zn109  1  0.42079730  0.43847497  0.68085366  1
  Zn  Zn110  1  0.44120739  0.93614124  0.20374987  1
  Zn  Zn111  1  0.42023293  0.98108936  0.67306804  1
  Zn  Zn112  1  0.93480127  0.44687073  0.19013374  1
  Zn  Zn113  1  0.94038819  0.43323394  0.68499341  1
  Zn  Zn114  1  0.96176552  0.90386259  0.17794717  1
  Zn  Zn115  1  0.93434052  0.93076391  0.68512138  1
  Zn  Zn116  1  0.07002671  0.04789939  0.31947969  1
  Zn  Zn117  1  0.06176700  0.06377093  0.81628148  1
  Zn  Zn118  1  0.05344534  0.56857761  0.31351224  1
  Zn  Zn119  1  0.05738552  0.56286523  0.83519079  1
  Zn  Zn120  1  0.55478566  0.05933694  0.31393850  1
  Zn  Zn121  1  0.55768087  0.05149211  0.79893777  1
  Zn  Zn122  1  0.57063004  0.56540032  0.31569278  1
  Zn  Zn123  1  0.52021754  0.54690528  0.78012853  1
  Zn  Zn124  1  0.44790908  0.20662934  0.47028219  1
  Zn  Zn125  1  0.43896209  0.18473391  0.94245355  1
  Zn  Zn126  1  0.43540608  0.69071207  0.43466460  1
  Zn  Zn127  1  0.43268163  0.71024427  0.93634412  1
  Zn  Zn128  1  0.94782899  0.17554783  0.45232592  1
  Zn  Zn129  1  0.95586794  0.18789159  0.92439297  1
  Zn  Zn130  1  0.93185020  0.68992517  0.45003430  1
  Zn  Zn131  1  0.94422183  0.66565448  0.93972625  1
  Zn  Zn132  1  0.06047616  0.31436353  0.07018378  1
  Zn  Zn133  1  0.06823937  0.31989560  0.56600885  1
  Zn  Zn134  1  0.05689797  0.80882153  0.06255394  1
  Zn  Zn135  1  0.05278419  0.80022191  0.56492444  1
  Zn  Zn136  1  0.56358118  0.31353145  0.06746267  1
  Zn  Zn137  1  0.56361435  0.31061834  0.57200007  1
  Zn  Zn138  1  0.56082517  0.81250135  0.06701850  1
  Zn  Zn139  1  0.57658973  0.82434003  0.55557181  1
  O  O140  1  0.12811429  0.11105162  0.10800048  1
  O  O141  1  0.11814885  0.11662363  0.64289432  1
  O  O142  1  0.13212966  0.61653098  0.12179077  1
  O  O143  1  0.10927073  0.62526572  0.63500418  1
  O  O144  1  0.61776976  0.11108074  0.11917645  1
  O  O145  1  0.64641467  0.11407546  0.60818072  1
  O  O146  1  0.62691396  0.62014923  0.11571295  1
  O  O147  1  0.61021410  0.63958508  0.59856793  1
  O  O148  1  0.38795392  0.38859452  0.36721862  1
  O  O149  1  0.37797592  0.37228789  0.89137228  1
  O  O150  1  0.38067551  0.87104767  0.37172541  1
  O  O151  1  0.37306780  0.87989818  0.87043473  1
  O  O152  1  0.88546385  0.38372483  0.38713779  1
  O  O153  1  0.87071864  0.36949748  0.89828755  1
  O  O154  1  0.86275518  0.86324626  0.42037349  1
  O  O155  1  0.88123856  0.88326893  0.88870171  1
  O  O156  1  0.25063640  0.02582758  0.35060228  1
  O  O157  1  0.25615307  0.00687509  0.87145156  1
  O  O158  1  0.25737725  0.50859245  0.37444463  1
  O  O159  1  0.26208832  0.52178087  0.88258444  1
  O  O160  1  0.76033945  -0.00583633  0.38038278  1
  O  O161  1  0.76728565  -0.00180157  0.87801650  1
  O  O162  1  0.76103074  0.49516594  0.36409261  1
  O  O163  1  0.73469437  0.51109733  0.88449981  1
  O  O164  1  0.24114466  0.50108232  0.14011168  1
  O  O165  1  0.24888499  0.49454184  0.61090818  1
  O  O166  1  0.24340490  0.98751836  0.13467036  1
  O  O167  1  0.24168647  0.98822623  0.63509973  1
  O  O168  1  0.74624198  0.50433098  0.14123893  1
  O  O169  1  0.75306747  0.47912805  0.62332588  1
  O  O170  1  0.73350706  0.99979617  0.12091393  1
  O  O171  1  0.76823510  0.99405024  0.64230386  1
  O  O172  1  0.00433353  0.37987831  0.25714259  1
  O  O173  1  0.02811704  0.40645833  0.76277746  1
  O  O174  1  -0.04827803  0.84808060  0.27337074  1
  O  O175  1  -0.00947264  0.86016668  0.76444921  1
  O  O176  1  0.50811462  0.36741717  0.25564861  1
  O  O177  1  0.47350685  0.36162045  0.75414235  1
  O  O178  1  0.51307794  0.86813962  0.26403322  1
  O  O179  1  0.51856119  0.86256234  0.73218891  1
  O  O180  1  0.51377030  0.13888865  0.24082762  1
  O  O181  1  0.41218472  0.19662921  0.74462236  1
  O  O182  1  0.49229294  0.63498166  0.26432377  1
  O  O183  1  0.51119454  0.65193541  0.71615752  1
  O  O184  1  0.97750722  0.09791785  0.26665552  1
  O  O185  1  0.99149262  0.11863333  0.74589480  1
  O  O186  1  0.99736571  0.64440597  0.24743873  1
  O  O187  1  0.99292252  0.63008387  0.75292697  1
  O  O188  1  0.36827853  0.25389655  0.01386074  1
  O  O189  1  0.34626757  0.25529937  0.47575203  1
  O  O190  1  0.37484857  0.74233547  0.02910034  1
  O  O191  1  0.36566707  0.75647273  0.50732694  1
  O  O192  1  0.88896446  0.25979268  0.00026297  1
  O  O193  1  0.88633879  0.26561242  0.49384370  1
  O  O194  1  0.86268015  0.75477529  -0.00202101  1
  O  O195  1  0.86673482  0.73103717  0.53037516  1
  O  O196  1  0.12324564  0.25553617  0.48192967  1
  O  O197  1  0.13242326  0.24045225  1.01199577  1
  O  O198  1  0.13948764  0.74494985  0.50858800  1
  O  O199  1  0.13893134  0.75583495  1.00471709  1
  O  O200  1  0.63534924  0.24134738  0.50051090  1
  O  O201  1  0.62497526  0.23284921  1.01316289  1
  O  O202  1  0.63335295  0.74622046  0.48349949  1
  O  O203  1  0.63676732  0.74392444  1.00283378  1
  O  O204  1  0.49202889  0.24272632  0.13400695  1
  O  O205  1  0.47718486  0.24073688  0.58482084  1
  O  O206  1  0.49518271  0.75363777  0.14511635  1
  O  O207  1  0.49488690  0.75857885  0.61328641  1
  O  O208  1  0.98985428  0.24611253  0.12421793  1
  O  O209  1  1.01439677  0.23398424  0.62232701  1
  O  O210  1  0.98055836  0.75876726  0.13666157  1
  O  O211  1  0.99116155  0.73454684  0.64058972  1
  O  O212  1  0.00466559  0.25488810  0.37552483  1
  O  O213  1  -0.00070658  0.28111295  0.88898377  1
  O  O214  1  0.00111486  0.73926786  0.37591944  1
  O  O215  1  -0.00896312  0.75640133  0.86977493  1
  O  O216  1  0.49651549  0.26340348  0.36767319  1
  O  O217  1  0.50523598  0.25968511  0.88395971  1
  O  O218  1  0.50180088  0.76161882  0.36712919  1
  O  O219  1  0.50853299  0.74870943  0.85497086  1
  O  O220  1  0.23545454  0.13948487  0.50085516  1
  O  O221  1  0.23885091  0.13546075  0.99162903  1
  O  O222  1  0.25514059  0.63669303  0.49144345  1
  O  O223  1  0.23837870  0.63056968  1.00459437  1
  O  O224  1  0.74914109  0.11768302  0.49158680  1
  O  O225  1  0.72441044  0.10870832  0.99031231  1
  O  O226  1  0.73898972  0.61683486  0.50703036  1
  O  O227  1  0.74580146  0.63340302  0.99043280  1
  O  O228  1  0.25903412  0.36377605  0.00204942  1
  O  O229  1  0.23369942  0.36580836  0.51038273  1
  O  O230  1  0.24794443  0.86859827  -0.00530801  1
  O  O231  1  0.24167858  0.86480304  0.51426693  1
  O  O232  1  0.77558033  0.34709921  0.01378959  1
  O  O233  1  0.76322147  0.37254231  0.50271011  1
  O  O234  1  0.75374492  0.86238990  -0.00604381  1
  O  O235  1  0.81189791  0.86919383  0.47362011  1
  O  O236  1  0.12952068  0.49608631  0.24914030  1
  O  O237  1  0.08155605  0.47373369  0.76125160  1
  O  O238  1  0.13667492  1.01065349  0.23279546  1
  O  O239  1  0.14091751  0.99423946  0.76607811  1
  O  O240  1  0.63381097  0.49872273  0.24233601  1
  O  O241  1  0.62635083  0.54159743  0.75104474  1
  O  O242  1  0.62347750  0.99157783  0.24296792  1
  O  O243  1  0.65488900  1.00571281  0.75659315  1
  O  O244  1  0.35913119  0.00040331  0.25789587  1
  O  O245  1  0.35229625  -0.00354820  0.76717244  1
  O  O246  1  0.36637382  0.50538686  0.25774461  1
  O  O247  1  0.41217433  0.52330710  0.75201578  1
  O  O248  1  0.92593011  0.04989092  0.22760189  1
  O  O249  1  0.87608740  -0.00197026  0.76830743  1
  O  O250  1  0.86494372  0.50168779  0.26119342  1
  O  O251  1  0.88835487  0.50937208  0.75835068  1
  O  O252  1  0.12038172  0.37355209  0.36162249  1
  O  O253  1  0.16749867  0.37696648  0.85404677  1
  O  O254  1  0.17516326  0.88317903  0.34230261  1
  O  O255  1  0.10421065  0.87603285  0.87867068  1
  O  O256  1  0.61714585  0.38369296  0.35618542  1
  O  O257  1  0.60532123  0.35707246  0.84488551  1
  O  O258  1  0.62436048  0.86707228  0.36741446  1
  O  O259  1  0.62728606  0.85871528  0.87884917  1
  O  O260  1  0.38962846  0.13279188  0.12838743  1
  O  O261  1  0.38566233  0.07742788  0.61960155  1
  O  O262  1  0.37027351  0.63170889  0.14417988  1
  O  O263  1  0.39026158  0.64641371  0.61261240  1
  O  O264  1  0.89332978  0.09025454  0.16515685  1
  O  O265  1  0.88918885  0.13072857  0.64051352  1
  O  O266  1  0.87986973  0.63556482  0.10374367  1
  O  O267  1  0.88146984  0.62278852  0.64681235  1
  O  O268  1  0.25692158  0.25186589  0.11974285  1
  O  O269  1  0.24641055  0.25432052  0.60820702  1
  O  O270  1  0.26320856  0.75396493  0.14644414  1
  O  O271  1  0.26093869  0.76144381  0.61947069  1
  O  O272  1  0.79099197  0.18247931  0.12109506  1
  O  O273  1  0.75250887  0.27422013  0.63924768  1
  O  O274  1  0.75638858  0.74404009  0.10723834  1
  O  O275  1  0.75430605  0.72643944  0.64831604  1
  O  O276  1  0.23022239  0.25737479  0.37754212  1
  O  O277  1  0.25698816  0.23698084  0.88525366  1
  O  O278  1  0.25292536  0.74017947  0.38791475  1
  O  O279  1  0.25109241  0.73865599  0.86781975  1
  O  O280  1  0.73755496  0.19810600  0.34124116  1
  O  O281  1  0.71455343  0.24751166  0.86360682  1
  O  O282  1  0.74710583  0.75931585  0.36675892  1
  O  O283  1  0.73891709  0.74444181  0.88329332  1
  O  O284  1  0.01392999  0.11490162  -0.00762789  1
  O  O285  1  0.00725716  0.10891593  0.52265215  1
  O  O286  1  0.02813787  0.64649398  0.01651704  1
  O  O287  1  -0.00350321  0.61794527  0.51840770  1
  O  O288  1  0.50516725  0.12128218  0.01863679  1
  O  O289  1  0.52512960  0.12723462  0.50461030  1
  O  O290  1  0.51277359  0.64025197  -0.00357461  1
  O  O291  1  0.50666797  0.62314127  0.49785215  1
  O  O292  1  0.51702476  0.39058434  0.48642659  1
  O  O293  1  0.48531119  0.37044969  1.00549317  1
  O  O294  1  0.49905766  0.87499999  0.47961263  1
  O  O295  1  0.49707435  0.85954943  0.99277981  1
  O  O296  1  0.99168443  0.39271429  0.50889704  1
  O  O297  1  0.98349781  0.37740964  1.00142887  1
  O  O298  1  0.99437431  0.88193857  0.51940903  1
  O  O299  1  0.98999372  0.87820116  0.99208188  1
  O  O300  1  0.49508893  0.49574239  0.37581009  1
  O  O301  1  0.49904376  0.47156563  0.87395981  1
  O  O302  1  0.47664764  0.98868048  0.36278605  1
  O  O303  1  0.48079232  1.00476812  0.86942050  1
  O  O304  1  0.98469305  0.51207455  0.38787181  1
  O  O305  1  0.97883898  0.55318930  0.91462165  1
  O  O306  1  1.04875048  0.98332797  0.41318668  1
  O  O307  1  0.99177719  0.98744649  0.88620424  1
  O  O308  1  0.01022659  -0.01410423  0.11364623  1
  O  O309  1  0.00174402  0.00177166  0.62634147  1
  O  O310  1  0.01503508  0.50766811  0.13595780  1
  O  O311  1  -0.00580491  0.51039366  0.61393145  1
  O  O312  1  0.50082844  0.01108467  0.13508037  1
  O  O313  1  0.52151014  0.04022945  0.68684890  1
  O  O314  1  0.50852137  0.50830869  0.13864913  1
  O  O315  1  0.49363824  0.51917157  0.60821005  1
  O  O316  1  0.23927222  0.38808426  0.25483659  1
  O  O317  1  0.24776642  0.37347062  0.72757035  1
  O  O318  1  0.22530261  0.88340157  0.28109419  1
  O  O319  1  0.24937779  0.88093847  0.73577698  1
  O  O320  1  0.73565897  0.38411309  0.24722221  1
  O  O321  1  0.75044599  0.38701517  0.75207537  1
  O  O322  1  0.73889865  0.87620377  0.25319171  1
  O  O323  1  0.75934469  0.88670445  0.76209565  1
  O  O324  1  0.25644986  0.12624388  0.23159089  1
  O  O325  1  0.24282199  0.11667331  0.76482057  1
  O  O326  1  0.25659104  0.61936669  0.26502647  1
  O  O327  1  0.24879218  0.62384423  0.75987939  1
  O  O328  1  0.74360481  0.14120137  0.28206373  1
  O  O329  1  0.77684591  0.11227339  0.74988518  1
  O  O330  1  0.74357721  0.61606601  0.25415198  1
  O  O331  1  0.76326260  0.61797436  0.76613724  1
  O  O332  1  0.39245172  0.12046138  0.38595387  1
  O  O333  1  0.35934796  0.11896880  0.88466726  1
  O  O334  1  0.36727381  0.61757018  0.36720111  1
  O  O335  1  0.36542267  0.63280498  0.88337106  1
  O  O336  1  0.87287575  0.11538020  0.38723893  1
  O  O337  1  0.88741183  0.11205356  0.87201754  1
  O  O338  1  0.86563466  0.61567219  0.38514676  1
  O  O339  1  0.85556019  0.62831679  0.87229357  1
  O  O340  1  0.12422714  0.38691399  0.13943051  1
  O  O341  1  0.13535112  0.37702435  0.64014843  1
  O  O342  1  0.11929381  0.88377919  0.12948017  1
  O  O343  1  0.12968423  0.86512120  0.63155238  1
  O  O344  1  0.61895983  0.39429697  0.13347826  1
  O  O345  1  0.62968765  0.37668494  0.63399220  1
  O  O346  1  0.61986917  0.88548788  0.14058396  1
  O  O347  1  0.64390368  0.91485383  0.55904761  1
  O  O348  1  0.12599568  0.26872873  0.25163200  1
  O  O349  1  0.12289722  0.26325362  0.75434013  1
  O  O350  1  0.10734704  0.76104616  0.25316042  1
  O  O351  1  0.10594402  0.74527108  0.74961075  1
  O  O352  1  0.62014332  0.26586734  0.22986667  1
  O  O353  1  0.60837383  0.21173759  0.74945787  1
  O  O354  1  0.62358158  0.75959590  0.25813450  1
  O  O355  1  0.62469047  0.74450501  0.76159835  1
  O  O356  1  0.38563504  0.25821985  0.24278082  1
  O  O357  1  0.36003192  0.24507880  0.73004616  1
  O  O358  1  0.38382381  0.74326092  0.24831280  1
  O  O359  1  0.39231572  0.76177225  0.72930741  1
  O  O360  1  0.88001257  0.27200301  0.26601838  1
  O  O361  1  0.87767345  0.23903299  0.76682332  1
  O  O362  1  0.85123799  0.73571565  0.22717859  1
  O  O363  1  0.88396949  0.73286242  0.75051784  1
  O  O364  1  0.38926857  0.50996719  0.48677070  1
  O  O365  1  0.37145840  0.48473555  1.01290503  1
  O  O366  1  0.33331186  0.99343788  0.46643168  1
  O  O367  1  0.37769856  0.99284507  0.98550182  1
  O  O368  1  0.87646709  0.49318573  0.48890629  1
  O  O369  1  0.86173484  0.46885416  1.00605314  1
  O  O370  1  0.89357643  1.00109345  0.50463398  1
  O  O371  1  0.87980012  0.99999830  0.99790048  1
  O  O372  1  0.11999336  0.00229360  0.01071152  1
  O  O373  1  0.10897935  -0.00853968  0.47304019  1
  O  O374  1  0.12901525  0.49196789  0.02010385  1
  O  O375  1  0.10691818  0.50097103  0.48873683  1
  O  O376  1  0.61198845  -0.00168220  0.01313729  1
  O  O377  1  0.61720405  0.03526591  0.44766117  1
  O  O378  1  0.61843212  0.51496916  0.01653654  1
  O  O379  1  0.61718220  0.51897193  0.48030261  1
  O  O380  1  0.37175908  0.36565196  0.12024025  1
  O  O381  1  0.35720547  0.37852104  0.61225987  1
  O  O382  1  0.37646905  0.86635188  0.13749974  1
  O  O383  1  0.37758454  0.87682747  0.62000374  1
  O  O384  1  0.88709652  0.36834729  0.10885262  1
  O  O385  1  0.87487077  0.37449378  0.61442292  1
  O  O386  1  0.87274635  0.86336186  0.10974203  1
  O  O387  1  0.86790771  0.84887940  0.64147482  1
  O  O388  1  0.11571468  0.14594234  0.35841491  1
  O  O389  1  0.13685713  0.11518260  0.89263928  1
  O  O390  1  0.14178715  0.62019854  0.37354754  1
  O  O391  1  0.13833840  0.62634523  0.89223542  1
  O  O392  1  0.63908428  0.09805364  0.39153576  1
  O  O393  1  0.59922314  0.13228423  0.88801045  1
  O  O394  1  0.62913558  0.64340170  0.38013374  1
  O  O395  1  0.63306743  0.63806312  0.89226872  1
