# generated using pymatgen
data_V35Zn35O128
_symmetry_space_group_name_H-M   'P 1'
_cell_length_a   17.03310495
_cell_length_b   17.02588941
_cell_length_c   16.96912358
_cell_angle_alpha   89.57742213
_cell_angle_beta   89.58639838
_cell_angle_gamma   89.95520554
_symmetry_Int_Tables_number   1
_chemical_formula_structural   V35Zn35O128
_chemical_formula_sum   'V70 Zn70 O256'
_cell_volume   4920.84629726
_cell_formula_units_Z   2
loop_
 _symmetry_equiv_pos_site_id
 _symmetry_equiv_pos_as_xyz
  1  'x, y, z'
loop_
 _atom_site_type_symbol
 _atom_site_label
 _atom_site_symmetry_multiplicity
 _atom_site_fract_x
 _atom_site_fract_y
 _atom_site_fract_z
 _atom_site_occupancy
  V  V0  1  0.24367001  -0.00466632  0.74778044  1
  V  V1  1  0.06856430  0.48781855  0.60021658  1
  V  V2  1  0.12932542  -0.00366568  0.11827407  1
  V  V3  1  0.89629438  0.21006447  0.61230013  1
  V  V4  1  0.00117724  0.47210230  -0.01942162  1
  V  V5  1  -0.00342433  0.13378390  0.13852520  1
  V  V6  1  0.12988331  0.10829658  0.51089139  1
  V  V7  1  -0.02920104  -0.00344667  0.00751229  1
  V  V8  1  0.24166248  0.12501830  0.87208629  1
  V  V9  1  0.23919825  0.37149581  0.10879179  1
  V  V10  1  0.85957102  0.62943560  0.73397192  1
  V  V11  1  0.35521217  0.24932251  0.11568789  1
  V  V12  1  0.11787293  0.62944067  -0.00505016  1
  V  V13  1  0.13105220  0.12755271  -0.00517934  1
  V  V14  1  0.85340602  0.51042041  0.37506854  1
  V  V15  1  0.60938870  0.49952993  0.61079951  1
  V  V16  1  0.73632989  0.75770819  0.48926594  1
  V  V17  1  0.24900546  0.12189241  0.37022039  1
  V  V18  1  0.23830327  0.50453874  0.24065738  1
  V  V19  1  -0.00107001  -0.01203036  0.50860744  1
  V  V20  1  0.25365300  0.88103660  0.11824420  1
  V  V21  1  0.85467875  0.63445738  0.25122730  1
  V  V22  1  0.10770688  0.49716196  0.12001106  1
  V  V23  1  -0.00470694  0.87603210  0.37583498  1
  V  V24  1  0.25155661  0.25119911  0.49953125  1
  V  V25  1  0.35719331  0.50922455  0.35752164  1
  V  V26  1  0.62618961  0.90058623  0.23479243  1
  V  V27  1  0.50279180  0.75680031  0.76365715  1
  V  V28  1  0.36918612  0.00407390  0.36634842  1
  V  V29  1  0.11427644  0.24527483  0.37501304  1
  V  V30  1  0.00306034  0.39974501  0.38683882  1
  V  V31  1  0.49762803  0.12719338  0.65407830  1
  V  V32  1  0.38202699  -0.00214964  0.86721527  1
  V  V33  1  0.72214505  0.49645632  0.76113503  1
  V  V34  1  0.48849439  0.64036551  0.61616931  1
  V  V35  1  0.50140266  0.51946703  0.47318519  1
  V  V36  1  0.00773572  0.19840253  0.74762723  1
  V  V37  1  0.39001739  0.60458927  0.75415675  1
  V  V38  1  0.74808666  0.14494379  0.84530606  1
  V  V39  1  0.26922533  0.74828215  -0.01121962  1
  V  V40  1  0.86663574  0.49691441  0.87206997  1
  V  V41  1  0.50792199  0.75254890  0.24890215  1
  V  V42  1  0.77919632  -0.00139988  0.74629642  1
  V  V43  1  0.87147008  0.25842544  0.16287700  1
  V  V44  1  0.37448907  0.25127772  0.62910774  1
  V  V45  1  0.39388083  0.88136087  -0.00549506  1
  V  V46  1  0.25285796  0.74722503  0.49623593  1
  V  V47  1  0.87536469  0.77297665  0.62274470  1
  V  V48  1  0.73239481  0.76040047  -0.01909877  1
  V  V49  1  0.38120096  0.74984442  0.13526973  1
  V  V50  1  0.00255499  0.74819146  0.22275625  1
  V  V51  1  0.23999017  0.87158862  0.63059842  1
  V  V52  1  0.37098822  0.13111322  0.25142149  1
  V  V53  1  0.85432620  0.76384358  0.11588171  1
  V  V54  1  0.13306154  0.87154430  0.25062419  1
  V  V55  1  0.28818701  0.59881165  0.89291990  1
  V  V56  1  0.50308006  0.88266888  0.36941432  1
  V  V57  1  0.76863514  0.01333975  0.24535587  1
  V  V58  1  0.49711511  0.37968674  0.35684435  1
  V  V59  1  0.75286573  0.33062806  0.63574827  1
  V  V60  1  0.85669066  0.35810536  0.00300181  1
  V  V61  1  0.49792741  0.25674497  0.23830921  1
  V  V62  1  0.11360198  0.36719398  0.25201147  1
  V  V63  1  0.61773989  0.61041191  0.01697817  1
  V  V64  1  0.50229779  0.01844894  0.49986693  1
  V  V65  1  0.36937453  0.37759320  0.49177382  1
  V  V66  1  -0.03105307  0.87218624  0.88631086  1
  V  V67  1  0.37532206  0.87816387  0.50984013  1
  V  V68  1  0.73478589  0.10672924  0.39554753  1
  V  V69  1  0.07108671  0.69777365  0.43396084  1
  Zn  Zn70  1  0.68029176  0.30033854  0.80078993  1
  Zn  Zn71  1  0.24070133  0.64339361  0.35454894  1
  Zn  Zn72  1  0.07989726  0.35915667  0.75122072  1
  Zn  Zn73  1  0.71833709  0.88421647  0.62910135  1
  Zn  Zn74  1  0.53676701  0.03864178  0.02733034  1
  Zn  Zn75  1  0.10642726  0.81318450  0.80556163  1
  Zn  Zn76  1  0.17997073  0.18398333  0.18769034  1
  Zn  Zn77  1  0.18657098  0.18539259  0.68841441  1
  Zn  Zn78  1  0.18639064  0.68943153  0.16659578  1
  Zn  Zn79  1  0.22729089  0.69251920  0.70727901  1
  Zn  Zn80  1  0.70492012  0.22525649  0.26228216  1
  Zn  Zn81  1  0.69775544  0.16062097  0.65663932  1
  Zn  Zn82  1  0.67918109  0.70021899  0.18844425  1
  Zn  Zn83  1  0.66993322  0.69786324  0.65339440  1
  Zn  Zn84  1  0.30189793  0.31490921  0.30805598  1
  Zn  Zn85  1  0.28604477  0.31548308  0.80710079  1
  Zn  Zn86  1  0.31267418  0.81993741  0.31374296  1
  Zn  Zn87  1  0.33925143  0.81451895  0.80332271  1
  Zn  Zn88  1  0.82928886  0.31576176  0.34320127  1
  Zn  Zn89  1  0.88866922  0.29991725  0.81445797  1
  Zn  Zn90  1  0.81058807  0.82490081  0.30677955  1
  Zn  Zn91  1  0.80135205  0.81375365  0.80655602  1
  Zn  Zn92  1  0.18218621  0.44005447  0.44120377  1
  Zn  Zn93  1  0.18666156  0.44635133  0.93164185  1
  Zn  Zn94  1  0.19140042  0.93220270  0.43432038  1
  Zn  Zn95  1  0.19179550  0.93659768  0.93517417  1
  Zn  Zn96  1  0.66300433  0.31727031  0.44040707  1
  Zn  Zn97  1  0.69106524  0.43775879  0.95808920  1
  Zn  Zn98  1  0.68685895  0.93422229  0.43871730  1
  Zn  Zn99  1  0.69245671  0.94911655  0.92152254  1
  Zn  Zn100  1  0.34588897  0.04857690  0.07663612  1
  Zn  Zn101  1  0.31880875  0.06227362  0.56701866  1
  Zn  Zn102  1  0.41117753  0.58347431  0.05352459  1
  Zn  Zn103  1  0.34272922  0.58084956  0.54466617  1
  Zn  Zn104  1  0.73469911  0.05436169  0.04449833  1
  Zn  Zn105  1  0.81459228  0.03611711  0.55748525  1
  Zn  Zn106  1  0.78314821  0.58950056  0.07799984  1
  Zn  Zn107  1  0.78487189  0.55700262  0.56155167  1
  Zn  Zn108  1  0.42414205  0.43667599  0.17270918  1
  Zn  Zn109  1  0.45009689  0.43828505  0.66534738  1
  Zn  Zn110  1  0.44622040  0.94849331  0.18133062  1
  Zn  Zn111  1  0.52272732  0.93665439  0.67741768  1
  Zn  Zn112  1  0.88938583  0.46408583  0.15797583  1
  Zn  Zn113  1  0.92435909  0.43319610  0.68554697  1
  Zn  Zn114  1  0.94000321  0.93718667  0.18777042  1
  Zn  Zn115  1  0.95621386  0.93661880  0.69863280  1
  Zn  Zn116  1  0.07036818  0.05402886  0.31329970  1
  Zn  Zn117  1  0.06320442  0.02664485  0.82331636  1
  Zn  Zn118  1  0.05920588  0.56687764  0.30205586  1
  Zn  Zn119  1  0.03977076  0.66671318  0.70089936  1
  Zn  Zn120  1  0.55992027  0.07783548  0.31649346  1
  Zn  Zn121  1  0.55045520  0.11068380  0.86259548  1
  Zn  Zn122  1  0.55807033  0.56206897  0.30506822  1
  Zn  Zn123  1  0.66908729  0.66939691  0.82491416  1
  Zn  Zn124  1  0.49099066  0.22600540  0.46270541  1
  Zn  Zn125  1  0.41150618  0.18288722  0.93435041  1
  Zn  Zn126  1  0.42900030  0.69629338  0.42089036  1
  Zn  Zn127  1  0.49633315  0.65433657  0.90848019  1
  Zn  Zn128  1  0.94557275  0.17162910  0.44757070  1
  Zn  Zn129  1  0.94008621  0.17591450  0.94519467  1
  Zn  Zn130  1  0.88436956  0.65530755  0.47025845  1
  Zn  Zn131  1  0.92360057  0.68535849  0.93897916  1
  Zn  Zn132  1  0.06481945  0.30558346  0.05914286  1
  Zn  Zn133  1  0.06020127  0.30521714  0.56712590  1
  Zn  Zn134  1  0.08493874  0.82728434  0.01812335  1
  Zn  Zn135  1  0.05809928  0.81153057  0.57434409  1
  Zn  Zn136  1  0.54186828  0.23962756  0.03494716  1
  Zn  Zn137  1  0.57961572  0.30503769  0.61197648  1
  Zn  Zn138  1  0.56599498  0.81908309  0.06391538  1
  Zn  Zn139  1  0.56468835  0.81776713  0.54808571  1
  O  O140  1  0.12479551  0.11391993  0.11426881  1
  O  O141  1  0.13753738  0.11827748  0.60811053  1
  O  O142  1  0.13394448  0.60716251  0.10176363  1
  O  O143  1  0.21411907  0.57871907  0.64053319  1
  O  O144  1  0.66568085  0.15569044  0.09895116  1
  O  O145  1  0.59455692  0.12789419  0.62795301  1
  O  O146  1  0.63047691  0.62864477  0.11883442  1
  O  O147  1  0.59872676  0.61186624  0.61799250  1
  O  O148  1  0.36549276  0.38606219  0.37416791  1
  O  O149  1  0.38237180  0.33848218  0.87501882  1
  O  O150  1  0.37935271  0.89164834  0.37345824  1
  O  O151  1  0.38128244  0.88363149  0.88657110  1
  O  O152  1  0.89408336  0.40293110  0.37388409  1
  O  O153  1  0.86522833  0.38381702  0.89525293  1
  O  O154  1  0.89850311  0.87019308  0.36957198  1
  O  O155  1  0.87150906  0.87858803  0.87276885  1
  O  O156  1  0.25968202  0.00813691  0.37689235  1
  O  O157  1  0.25551029  -0.00120857  0.86420012  1
  O  O158  1  0.24768459  0.50198939  0.36185316  1
  O  O159  1  0.28496942  0.50106689  0.90390329  1
  O  O160  1  0.74094658  0.00503588  0.36578748  1
  O  O161  1  0.73826972  0.02143051  0.84512171  1
  O  O162  1  0.76123562  0.49426894  0.36224306  1
  O  O163  1  0.75279881  0.48452849  0.86912684  1
  O  O164  1  0.22883631  0.48093457  0.12749037  1
  O  O165  1  0.26113505  0.52295796  0.62625702  1
  O  O166  1  0.24564595  0.98854826  0.11737938  1
  O  O167  1  0.26013314  0.98699668  0.63879757  1
  O  O168  1  0.78705040  0.49024441  0.11938339  1
  O  O169  1  0.71477487  0.50618777  0.63799205  1
  O  O170  1  0.75290431  1.01474349  0.14633478  1
  O  O171  1  0.74806659  1.00289925  0.64334441  1
  O  O172  1  0.01388574  0.37932946  0.27151984  1
  O  O173  1  -0.03061442  0.36969454  0.76523404  1
  O  O174  1  0.01128275  0.86366651  0.25588889  1
  O  O175  1  0.01144422  0.88957389  0.78680111  1
  O  O176  1  0.48109650  0.36897816  0.24583954  1
  O  O177  1  0.51700610  0.45075011  0.86475254  1
  O  O178  1  0.50640129  0.88267777  0.25311099  1
  O  O179  1  0.48281904  0.85263463  0.73974323  1
  O  O180  1  0.48142785  0.14649733  0.25855607  1
  O  O181  1  0.49810167  0.12086107  0.75266069  1
  O  O182  1  0.51154069  0.65363337  0.25540798  1
  O  O183  1  0.49420615  0.63258462  0.73036823  1
  O  O184  1  1.01451644  0.11261605  0.23481440  1
  O  O185  1  1.02284636  0.10064560  0.74404618  1
  O  O186  1  1.00382906  0.64858379  0.24533821  1
  O  O187  1  0.95375653  0.62901310  0.76859088  1
  O  O188  1  0.36183342  0.24237407  0.01733294  1
  O  O189  1  0.37125224  0.26102401  0.50088670  1
  O  O190  1  0.37936098  0.77242598  0.01654383  1
  O  O191  1  0.36322207  0.77153995  0.48778017  1
  O  O192  1  0.88367640  0.26092988  -0.00214045  1
  O  O193  1  0.90570144  0.25066523  0.51797374  1
  O  O194  1  0.85135377  0.74581694  0.00995056  1
  O  O195  1  0.87206385  0.76115967  0.52071687  1
  O  O196  1  0.13383939  0.23593998  0.49406002  1
  O  O197  1  0.11658462  0.22535288  0.99435763  1
  O  O198  1  0.13507484  0.75009183  0.50097436  1
  O  O199  1  0.15098268  0.72942391  1.01123477  1
  O  O200  1  0.58361099  0.27197887  0.50455385  1
  O  O201  1  0.65791262  0.22128021  1.06174591  1
  O  O202  1  0.63548220  0.74646851  0.49777026  1
  O  O203  1  0.63112005  0.75202859  1.00380549  1
  O  O204  1  0.47141707  0.25736179  0.12849066  1
  O  O205  1  0.48244057  0.23920712  0.63691105  1
  O  O206  1  0.48965781  0.76743061  0.13806561  1
  O  O207  1  0.49947873  0.73857200  0.60954818  1
  O  O208  1  1.01645715  0.23360209  0.13209441  1
  O  O209  1  1.00565337  0.22827245  0.63219007  1
  O  O210  1  0.99010328  0.75415662  0.12502888  1
  O  O211  1  0.98193180  0.74975965  0.63423998  1
  O  O212  1  0.01498047  0.23898311  0.38015479  1
  O  O213  1  -0.01849063  0.21935665  0.84822537  1
  O  O214  1  0.02065661  0.76365227  0.37152659  1
  O  O215  1  -0.01799435  0.77071463  0.89023473  1
  O  O216  1  0.48742633  0.27187020  0.35430304  1
  O  O217  1  0.43483602  0.28369572  0.86519505  1
  O  O218  1  0.48668944  0.77039210  0.35724192  1
  O  O219  1  0.50553864  0.75881641  0.86364480  1
  O  O220  1  0.24505462  0.12711614  0.48985016  1
  O  O221  1  0.23529917  0.11868698  0.98713702  1
  O  O222  1  0.26091145  0.64776291  0.49911935  1
  O  O223  1  0.30733434  0.63609926  0.99104650  1
  O  O224  1  0.73635060  0.09404934  0.49577540  1
  O  O225  1  0.77172345  0.13139010  0.95858923  1
  O  O226  1  0.76469856  0.65490393  0.50251584  1
  O  O227  1  0.72884258  0.64341713  0.99879230  1
  O  O228  1  0.22894748  0.37210842  0.01022392  1
  O  O229  1  0.25687488  0.36326353  0.49068624  1
  O  O230  1  0.25635765  0.86415578  0.00704108  1
  O  O231  1  0.25819240  0.87404896  0.50885884  1
  O  O232  1  0.75841842  0.36188437  0.01329769  1
  O  O233  1  0.71266001  0.35814981  0.54919952  1
  O  O234  1  0.73696067  0.86190027  -0.02153609  1
  O  O235  1  0.73995700  0.86995371  0.51204904  1
  O  O236  1  0.12013138  0.49256890  0.23627597  1
  O  O237  1  0.08136926  0.56481037  0.66583840  1
  O  O238  1  0.12052210  0.97864691  0.23176098  1
  O  O239  1  0.14677774  0.97671830  0.75961051  1
  O  O240  1  0.64296441  0.50963223  0.24850621  1
  O  O241  1  0.62773964  0.50790187  0.77062488  1
  O  O242  1  0.61344543  1.00068945  0.24927960  1
  O  O243  1  0.59254736  0.96851194  0.78619702  1
  O  O244  1  0.38089885  0.01643859  0.25840203  1
  O  O245  1  0.36314225  -0.00888949  0.76722337  1
  O  O246  1  0.35100200  0.49346693  0.25064014  1
  O  O247  1  0.39846464  0.50432976  0.74195164  1
  O  O248  1  0.86689690  -0.00481879  0.25332649  1
  O  O249  1  0.87780888  0.00192550  0.75013356  1
  O  O250  1  0.88278498  0.52845621  0.25424300  1
  O  O251  1  0.86000639  0.50693878  0.76534228  1
  O  O252  1  0.11946950  0.36591753  0.37120835  1
  O  O253  1  0.15554681  0.39563985  0.83289803  1
  O  O254  1  0.13338548  0.87478817  0.35207007  1
  O  O255  1  0.11315356  0.86173355  0.90601561  1
  O  O256  1  0.59268761  0.39403084  0.36289024  1
  O  O257  1  0.63419180  0.34166965  0.90611425  1
  O  O258  1  0.60496514  0.88674258  0.36664232  1
  O  O259  1  0.60456853  0.91292881  0.83495496  1
  O  O260  1  0.34658036  0.14266994  0.13997322  1
  O  O261  1  0.38131900  0.14189653  0.62151409  1
  O  O262  1  0.37580244  0.65224882  0.13736945  1
  O  O263  1  0.37988381  0.62627174  0.64298938  1
  O  O264  1  0.89387711  0.15183757  0.13562137  1
  O  O265  1  0.89096467  0.11240648  0.60183068  1
  O  O266  1  0.86495075  0.64943285  0.14074689  1
  O  O267  1  0.86335624  0.61713451  0.63499382  1
  O  O268  1  0.24256094  0.26201117  0.12834914  1
  O  O269  1  0.25842573  0.23907592  0.60661726  1
  O  O270  1  0.26649529  0.76005088  0.11734372  1
  O  O271  1  0.25440506  0.76338209  0.61169065  1
  O  O272  1  0.77297177  0.25811655  0.16901137  1
  O  O273  1  0.78415609  0.22947811  0.61609156  1
  O  O274  1  0.75258412  0.76471600  0.12321691  1
  O  O275  1  0.75427529  0.76356098  0.61757908  1
  O  O276  1  0.24278653  0.24021786  0.38390166  1
  O  O277  1  0.24470146  0.22349970  0.86087809  1
  O  O278  1  0.25004188  0.75600202  0.38706808  1
  O  O279  1  0.27170293  0.75578319  0.88898971  1
  O  O280  1  0.80674931  0.19454044  0.38924401  1
  O  O281  1  0.77995624  0.24473255  0.83384504  1
  O  O282  1  0.75692825  0.77039424  0.39060316  1
  O  O283  1  0.74139961  0.74496268  0.87711404  1
  O  O284  1  0.00620798  0.11013830  0.01458253  1
  O  O285  1  0.02196521  0.09919093  0.49286218  1
  O  O286  1  0.01966051  0.63071680  -0.02103895  1
  O  O287  1  0.00173234  0.64977896  0.48563185  1
  O  O288  1  0.51306819  0.14861493  -0.02912612  1
  O  O289  1  0.48851857  0.11627521  0.48814972  1
  O  O290  1  0.50945190  0.63182810  0.01893899  1
  O  O291  1  0.45333713  0.62725581  0.50772885  1
  O  O292  1  0.48041126  0.39888744  0.46821693  1
  O  O293  1  0.56565907  0.31722027  0.93913005  1
  O  O294  1  0.48455554  0.88315998  0.48856079  1
  O  O295  1  0.49207613  0.88743688  1.00491472  1
  O  O296  1  1.01292914  0.36838018  0.48086096  1
  O  O297  1  1.02065112  0.37420951  0.97987926  1
  O  O298  1  1.01948619  0.87822459  0.48377362  1
  O  O299  1  0.98593496  0.88778026  1.00125453  1
  O  O300  1  0.46847000  0.49333278  0.34906842  1
  O  O301  1  0.47276311  0.44589623  0.92145758  1
  O  O302  1  0.48660356  1.00125005  0.38151312  1
  O  O303  1  0.47936298  1.01857207  0.87908118  1
  O  O304  1  1.01345692  0.49883601  0.38421350  1
  O  O305  1  0.98281719  0.49374034  0.88275389  1
  O  O306  1  1.01405735  0.97955703  0.37808814  1
  O  O307  1  0.98596840  0.99665494  0.90168557  1
  O  O308  1  0.00712938  0.00427370  0.11829598  1
  O  O309  1  0.01247713  -0.02537284  0.60676495  1
  O  O310  1  0.00591741  0.49096524  0.10898932  1
  O  O311  1  -0.03188787  0.48379438  0.59304911  1
  O  O312  1  0.45968875  0.02933808  0.10536243  1
  O  O313  1  0.48216848  0.02109277  0.61221445  1
  O  O314  1  0.61339891  0.46361800  0.18710199  1
  O  O315  1  0.49302943  0.52207208  0.59122354  1
  O  O316  1  0.22934245  0.38573992  0.24639786  1
  O  O317  1  0.22379530  0.40467013  0.78208637  1
  O  O318  1  0.23838231  0.86507592  0.23401833  1
  O  O319  1  0.26055539  0.87079374  0.73599716  1
  O  O320  1  0.72078212  0.30259876  0.34613601  1
  O  O321  1  0.73414828  0.39164236  0.73871469  1
  O  O322  1  0.73152332  0.89661202  0.25688459  1
  O  O323  1  0.75000166  0.89650406  0.74916866  1
  O  O324  1  0.25261511  0.13098838  0.26324115  1
  O  O325  1  0.23824289  0.10461688  0.75801134  1
  O  O326  1  0.22967400  0.61032032  0.24133127  1
  O  O327  1  0.28129658  0.62200284  0.78140243  1
  O  O328  1  0.75036570  0.11455549  0.26743861  1
  O  O329  1  0.76030201  0.11564621  0.74271077  1
  O  O330  1  0.75638767  0.64512737  0.25708334  1
  O  O331  1  0.74940873  0.60930330  0.75806858  1
  O  O332  1  0.36220219  0.11993914  0.36662695  1
  O  O333  1  0.35013063  0.10759774  0.88014521  1
  O  O334  1  0.36087608  0.61261139  0.36535661  1
  O  O335  1  0.39868492  0.60725442  0.86616678  1
  O  O336  1  0.85817322  0.12671800  0.38684023  1
  O  O337  1  0.84034961  0.11670225  0.91039730  1
  O  O338  1  0.87650865  0.62340734  0.35797185  1
  O  O339  1  0.86411885  0.59284514  0.90223449  1
  O  O340  1  0.12334330  0.37574562  0.13186399  1
  O  O341  1  0.09791732  0.39192272  0.63854013  1
  O  O342  1  0.13590041  0.88018973  0.11687547  1
  O  O343  1  0.14199983  0.87323805  0.62439870  1
  O  O344  1  0.65763576  0.40912149  0.16449635  1
  O  O345  1  0.56603070  0.41267656  0.65762090  1
  O  O346  1  0.61895074  0.89182171  0.13581589  1
  O  O347  1  0.60542190  0.88397708  0.62563934  1
  O  O348  1  0.13196595  0.25759494  0.26347469  1
  O  O349  1  0.10714561  0.24372649  0.74559657  1
  O  O350  1  0.11475830  0.76355210  0.22554689  1
  O  O351  1  0.12638152  0.73122205  0.73610954  1
  O  O352  1  0.59509707  0.24992878  0.22898465  1
  O  O353  1  0.66209219  0.27258188  0.68945704  1
  O  O354  1  0.61041396  0.77662230  0.24452031  1
  O  O355  1  0.60903167  0.73358943  0.74468403  1
  O  O356  1  0.36991749  0.24629897  0.24152208  1
  O  O357  1  0.34958725  0.27037768  0.72331954  1
  O  O358  1  0.38420996  0.76898067  0.23954230  1
  O  O359  1  0.39470848  0.72888701  0.75634082  1
  O  O360  1  0.89641592  0.27176894  0.25747681  1
  O  O361  1  0.90076066  0.21955830  0.72453807  1
  O  O362  1  0.88525202  0.74940794  0.24482484  1
  O  O363  1  0.84920203  0.73672439  0.73348615  1
  O  O364  1  0.37171324  0.49634061  0.47359428  1
  O  O365  1  0.43983622  0.48216650  1.07614931  1
  O  O366  1  0.37709164  0.99210989  0.49006013  1
  O  O367  1  0.36017948  0.98341524  0.98496306  1
  O  O368  1  0.85941134  0.52949269  0.47737148  1
  O  O369  1  0.89607874  0.47094459  1.00339529  1
  O  O370  1  0.90101138  0.99096794  0.49688917  1
  O  O371  1  0.87597296  1.00527898  1.02158502  1
  O  O372  1  0.12232665  0.00327308  0.01064949  1
  O  O373  1  0.13303956  0.00616371  0.49717752  1
  O  O374  1  0.11028493  0.50382868  -0.00136379  1
  O  O375  1  0.12362342  0.50196779  0.51448307  1
  O  O376  1  0.63956501  0.02099132  -0.00904825  1
  O  O377  1  0.59778762  -0.00135065  0.49267747  1
  O  O378  1  0.62931390  0.50981197  0.01502214  1
  O  O379  1  0.61402691  0.47941163  0.51505520  1
  O  O380  1  0.34418396  0.36131083  0.12676377  1
  O  O381  1  0.38759030  0.36533565  0.60237525  1
  O  O382  1  0.36765367  0.88135097  0.11530449  1
  O  O383  1  0.37234388  0.87748120  0.60716577  1
  O  O384  1  0.89448969  0.35518955  0.11378490  1
  O  O385  1  0.84657159  0.36607079  0.63566751  1
  O  O386  1  0.87700268  0.85973334  0.13226317  1
  O  O387  1  0.87925256  0.87053993  0.63772900  1
  O  O388  1  0.13459416  0.12706920  0.37838036  1
  O  O389  1  0.13081459  0.10407424  0.88731680  1
  O  O390  1  0.12480130  0.63158973  0.37544951  1
  O  O391  1  0.17673657  0.61353884  0.90981895  1
  O  O392  1  0.63885266  0.13879311  0.37326281  1
  O  O393  1  0.64782443  0.16609745  0.85093499  1
  O  O394  1  0.56302034  0.57937534  0.41910078  1
  O  O395  1  0.60727385  0.62112865  0.90364578  1
