# generated using pymatgen
data_V35Zn35O128
_symmetry_space_group_name_H-M   'P 1'
_cell_length_a   16.85574113
_cell_length_b   16.86923101
_cell_length_c   16.83920415
_cell_angle_alpha   89.96163517
_cell_angle_beta   90.08633760
_cell_angle_gamma   89.85468114
_symmetry_Int_Tables_number   1
_chemical_formula_structural   V35Zn35O128
_chemical_formula_sum   'V70 Zn70 O256'
_cell_volume   4788.09448958
_cell_formula_units_Z   2
loop_
 _symmetry_equiv_pos_site_id
 _symmetry_equiv_pos_as_xyz
  1  'x, y, z'
loop_
 _atom_site_type_symbol
 _atom_site_label
 _atom_site_symmetry_multiplicity
 _atom_site_fract_x
 _atom_site_fract_y
 _atom_site_fract_z
 _atom_site_occupancy
  V  V0  1  -0.00083033  0.50755812  0.51301359  1
  V  V1  1  0.25897980  0.01142799  0.26955691  1
  V  V2  1  0.50762280  0.73546760  0.25869946  1
  V  V3  1  0.48775431  0.14937722  0.13379503  1
  V  V4  1  0.87338074  0.37255957  0.00086853  1
  V  V5  1  0.50194734  0.36327684  0.37251422  1
  V  V6  1  0.66093210  0.89638647  0.74757244  1
  V  V7  1  0.87106955  0.50734134  0.36315867  1
  V  V8  1  0.74149182  0.76430047  0.49597962  1
  V  V9  1  0.76425797  0.12066013  0.37125880  1
  V  V10  1  0.24680218  0.75083280  -0.00775760  1
  V  V11  1  0.00633842  0.76436107  0.74684294  1
  V  V12  1  0.62600148  0.35484054  0.75742909  1
  V  V13  1  0.14491168  0.61976388  0.49740902  1
  V  V14  1  0.36843604  0.74097290  0.13043507  1
  V  V15  1  0.12285578  -0.00651456  0.62683077  1
  V  V16  1  0.36985608  0.00287619  0.86606319  1
  V  V17  1  0.66176555  0.46500835  0.13743271  1
  V  V18  1  0.87006199  0.64268612  0.24347654  1
  V  V19  1  -0.01587501  0.23396443  0.74400636  1
  V  V20  1  -0.00080363  0.49225385  -0.00148276  1
  V  V21  1  0.11928138  0.36562917  0.76296949  1
  V  V22  1  0.73590603  0.75580185  0.01854215  1
  V  V23  1  0.63747258  0.12169448  0.51885066  1
  V  V24  1  0.36392969  0.87504454  0.00535361  1
  V  V25  1  0.86398463  0.36916076  0.50484626  1
  V  V26  1  0.50231034  0.61688009  0.09513988  1
  V  V27  1  0.13409876  0.25430357  0.38417792  1
  V  V28  1  -0.00994508  0.63024525  0.12367393  1
  V  V29  1  0.13702819  0.12912119  0.50221273  1
  V  V30  1  0.24835027  0.23774346  0.00838760  1
  V  V31  1  0.12873394  0.61619815  -0.01899775  1
  V  V32  1  0.50201475  -0.00405237  0.01798604  1
  V  V33  1  0.11953288  0.37885699  0.24108560  1
  V  V34  1  0.14005085  0.50371583  0.63606219  1
  V  V35  1  0.30808649  0.55900735  0.81205586  1
  V  V36  1  0.86341861  0.24472026  0.12971215  1
  V  V37  1  0.87483794  0.49339648  0.87326124  1
  V  V38  1  -0.00206602  0.00762324  0.47781035  1
  V  V39  1  0.75403169  -0.00104077  0.23829630  1
  V  V40  1  0.88790316  0.61512650  0.74009074  1
  V  V41  1  0.12894925  -0.00439459  0.11810363  1
  V  V42  1  0.73717174  0.49968343  0.73963466  1
  V  V43  1  -0.00461676  0.24269700  0.25434300  1
  V  V44  1  0.50839900  0.86865871  0.86744106  1
  V  V45  1  0.37565481  0.35434231  0.51846451  1
  V  V46  1  0.62054526  0.12498075  0.00261912  1
  V  V47  1  0.37300026  0.50522685  0.37426254  1
  V  V48  1  0.88523642  0.75276979  0.61728514  1
  V  V49  1  0.38856542  0.74755615  0.64360186  1
  V  V50  1  0.24453579  0.11867999  0.85690956  1
  V  V51  1  0.25682656  0.88067442  0.63386832  1
  V  V52  1  0.48477056  0.11109546  0.63124817  1
  V  V53  1  0.11824691  0.77091505  0.87532150  1
  V  V54  1  0.62468252  0.60328051  0.50753664  1
  V  V55  1  0.26610303  0.37188523  0.12960285  1
  V  V56  1  0.26583911  0.75220612  0.49711971  1
  V  V57  1  0.48184282  0.24013550  0.75920759  1
  V  V58  1  0.62206609  0.88126073  0.24348552  1
  V  V59  1  0.89695197  0.86581931  0.47495382  1
  V  V60  1  -0.00157524  0.38077361  0.37732761  1
  V  V61  1  0.49343025  0.49359795  0.52420840  1
  V  V62  1  0.48650490  0.87811098  0.38294978  1
  V  V63  1  0.74041494  0.25513677  -0.01128974  1
  V  V64  1  0.38474180  0.37763140  -0.02525917  1
  V  V65  1  0.24967756  0.35327828  0.63082836  1
  V  V66  1  0.61851075  0.23638226  0.37241400  1
  V  V67  1  0.17857443  0.54574742  0.17788393  1
  V  V68  1  0.75895674  0.10194178  0.87970350  1
  V  V69  1  0.00769247  0.12433195  0.10940475  1
  Zn  Zn70  1  0.12567279  0.88117345  0.26081144  1
  Zn  Zn71  1  0.72723468  0.63034710  0.36292124  1
  Zn  Zn72  1  0.69544925  0.42237560  0.57877620  1
  Zn  Zn73  1  0.11277494  0.23422240  0.88547104  1
  Zn  Zn74  1  0.12103391  0.75886928  0.37209505  1
  Zn  Zn75  1  0.75177823  0.62947531  0.87568678  1
  Zn  Zn76  1  0.18782090  0.18901190  0.19178608  1
  Zn  Zn77  1  0.17613937  0.18267362  0.68621028  1
  Zn  Zn78  1  0.17756092  0.70774905  0.17592642  1
  Zn  Zn79  1  0.19269796  0.69216706  0.68958551  1
  Zn  Zn80  1  0.67462641  0.18308433  0.19071738  1
  Zn  Zn81  1  0.64679543  0.14118326  0.72936352  1
  Zn  Zn82  1  0.68013613  0.67824517  0.18105469  1
  Zn  Zn83  1  0.69200527  0.69352295  0.68203660  1
  Zn  Zn84  1  0.29691403  0.35518913  0.33274323  1
  Zn  Zn85  1  0.30475597  0.30327011  0.81459714  1
  Zn  Zn86  1  0.29831571  0.81473243  0.30762974  1
  Zn  Zn87  1  0.30993598  0.81885383  0.81448307  1
  Zn  Zn88  1  0.80045449  0.30290016  0.30498098  1
  Zn  Zn89  1  0.80649050  0.31378412  0.80939262  1
  Zn  Zn90  1  0.80304969  0.81222445  0.31023002  1
  Zn  Zn91  1  0.79474654  0.80303877  0.78655902  1
  Zn  Zn92  1  0.19089938  0.43692722  0.44883297  1
  Zn  Zn93  1  0.19733524  0.43371426  0.94320706  1
  Zn  Zn94  1  0.19503226  0.93396603  0.43815790  1
  Zn  Zn95  1  0.18067195  0.94763908  0.94227684  1
  Zn  Zn96  1  0.70574498  0.41734084  0.38391026  1
  Zn  Zn97  1  0.67797078  0.44649192  0.93927301  1
  Zn  Zn98  1  0.63390309  0.95977303  0.40912828  1
  Zn  Zn99  1  0.68425600  0.92609656  0.94970758  1
  Zn  Zn100  1  0.31440846  0.05956243  0.07682927  1
  Zn  Zn101  1  0.31805556  0.05819066  0.54405596  1
  Zn  Zn102  1  0.34986777  0.58518171  0.00102406  1
  Zn  Zn103  1  0.32375234  0.56400362  0.58751020  1
  Zn  Zn104  1  0.81172764  0.06770811  0.06436371  1
  Zn  Zn105  1  0.77122908  -0.00221726  0.49763014  1
  Zn  Zn106  1  0.79811610  0.56570373  0.06012308  1
  Zn  Zn107  1  0.81343984  0.57053796  0.56021227  1
  Zn  Zn108  1  0.44809762  0.44220314  0.19123855  1
  Zn  Zn109  1  0.43676860  0.42551861  0.70803624  1
  Zn  Zn110  1  0.42769361  0.92858062  0.19843337  1
  Zn  Zn111  1  0.43792842  0.93556365  0.68418489  1
  Zn  Zn112  1  0.93136905  0.43616450  0.18108219  1
  Zn  Zn113  1  0.93921837  0.42442240  0.68610039  1
  Zn  Zn114  1  0.96277217  0.97029762  0.25644774  1
  Zn  Zn115  1  0.94168639  0.93919823  0.67209848  1
  Zn  Zn116  1  0.08468780  0.07096179  0.31201658  1
  Zn  Zn117  1  0.06142393  0.06661093  0.80428207  1
  Zn  Zn118  1  0.05882850  0.58139625  0.32277982  1
  Zn  Zn119  1  0.06043006  0.55581614  0.80980653  1
  Zn  Zn120  1  0.55138419  0.06169054  0.30652943  1
  Zn  Zn121  1  0.55780708  0.05214506  0.82729133  1
  Zn  Zn122  1  0.55858646  0.55030298  0.31284375  1
  Zn  Zn123  1  0.50988067  0.61837541  0.66306592  1
  Zn  Zn124  1  0.44275318  0.16942429  0.45099511  1
  Zn  Zn125  1  0.42989994  0.18641611  0.94450765  1
  Zn  Zn126  1  0.44097996  0.68354154  0.44368301  1
  Zn  Zn127  1  0.45876235  0.66722818  0.88676284  1
  Zn  Zn128  1  0.93525756  0.18949845  0.43886272  1
  Zn  Zn129  1  0.93522452  0.18931835  0.93014641  1
  Zn  Zn130  1  0.95253423  0.68492664  0.42877508  1
  Zn  Zn131  1  0.93911837  0.68212262  0.92914509  1
  Zn  Zn132  1  0.05892330  0.30630507  0.05936522  1
  Zn  Zn133  1  0.05647978  0.31587987  0.56902847  1
  Zn  Zn134  1  0.00936027  0.84128538  0.13366754  1
  Zn  Zn135  1  0.07165430  0.80881675  0.55850948  1
  Zn  Zn136  1  0.56306444  0.32251905  0.06549907  1
  Zn  Zn137  1  0.56775725  0.29232399  0.57436502  1
  Zn  Zn138  1  0.55643380  0.80404367  0.06190995  1
  Zn  Zn139  1  0.56459071  0.83397528  0.57344185  1
  O  O140  1  0.11111015  0.12851525  0.12852645  1
  O  O141  1  0.12647320  0.11086805  0.61022989  1
  O  O142  1  0.11786308  0.61665174  0.11880736  1
  O  O143  1  0.13140181  0.60740281  0.62563469  1
  O  O144  1  0.60783100  0.13235955  0.11140326  1
  O  O145  1  0.65661402  0.12854317  0.61652017  1
  O  O146  1  0.60091824  0.63116575  0.11373423  1
  O  O147  1  0.61399763  0.64031976  0.61289150  1
  O  O148  1  0.38957012  0.37232165  0.40177763  1
  O  O149  1  0.37209430  0.37396309  0.87400054  1
  O  O150  1  0.38688804  0.87074723  0.36683656  1
  O  O151  1  0.37739859  0.88516857  0.88679736  1
  O  O152  1  0.88274421  0.39353878  0.38499349  1
  O  O153  1  0.86826983  0.38399355  0.88505457  1
  O  O154  1  0.88890781  0.85854711  0.37626583  1
  O  O155  1  0.91988292  0.97246597  0.83208209  1
  O  O156  1  0.25124337  0.00663502  0.37248027  1
  O  O157  1  0.25802649  0.00657542  0.87983753  1
  O  O158  1  0.27259316  0.46944950  0.37740179  1
  O  O159  1  0.24600534  0.49994477  0.86548018  1
  O  O160  1  0.74219247  0.01148119  0.37044460  1
  O  O161  1  0.75010228  0.00385968  0.89917797  1
  O  O162  1  0.77039346  0.51777774  0.38443801  1
  O  O163  1  0.75845427  0.50461563  0.86207759  1
  O  O164  1  0.23805941  0.47996493  0.12337506  1
  O  O165  1  0.24249395  0.48961402  0.62883616  1
  O  O166  1  0.23279805  1.00653214  0.13233670  1
  O  O167  1  0.24456633  0.98805492  0.60491564  1
  O  O168  1  0.76318151  0.48779567  0.13444389  1
  O  O169  1  0.75974391  0.50182607  0.63498806  1
  O  O170  1  0.74642334  1.00870553  0.13793251  1
  O  O171  1  0.79108457  1.01398429  0.63361257  1
  O  O172  1  0.00230962  0.37176513  0.25878098  1
  O  O173  1  0.01554146  0.36930740  0.75063785  1
  O  O174  1  0.00848738  0.87031383  0.24191812  1
  O  O175  1  -0.00782258  0.86347715  0.74623065  1
  O  O176  1  0.49350439  0.36903773  0.27376588  1
  O  O177  1  0.51116317  0.34837432  0.74836213  1
  O  O178  1  0.50178496  0.85995376  0.25472728  1
  O  O179  1  0.49358485  0.87929367  0.76836013  1
  O  O180  1  0.50206239  0.12689760  0.23248830  1
  O  O181  1  0.52177406  0.12805320  0.74343725  1
  O  O182  1  0.49792612  0.63467521  0.25122097  1
  O  O183  1  0.51218821  0.62491855  0.78557946  1
  O  O184  1  1.00179548  0.14191616  0.25886866  1
  O  O185  1  0.98980393  0.13076498  0.74613435  1
  O  O186  1  0.98932332  0.61349563  0.22774012  1
  O  O187  1  0.99066237  0.63110085  0.75152725  1
  O  O188  1  0.35557339  0.26204317  -0.00668655  1
  O  O189  1  0.38340997  0.25705345  0.51140109  1
  O  O190  1  0.36151758  0.76277842  -0.00426283  1
  O  O191  1  0.36868585  0.74007739  0.51746588  1
  O  O192  1  0.86431786  0.25482448  0.00865714  1
  O  O193  1  0.87411616  0.27069847  0.49036756  1
  O  O194  1  0.85571194  0.76381965  -0.04997640  1
  O  O195  1  0.89581941  0.75034597  0.50401994  1
  O  O196  1  0.11227210  0.24346817  0.49342222  1
  O  O197  1  0.14187703  0.26012511  0.99527827  1
  O  O198  1  0.13666974  0.72999887  0.50014517  1
  O  O199  1  0.12665946  0.73818240  0.98271004  1
  O  O200  1  0.63154637  0.23156217  0.49553598  1
  O  O201  1  0.63664883  0.24688587  1.00273846  1
  O  O202  1  0.64305633  0.76849676  0.50691389  1
  O  O203  1  0.63501470  0.75063009  0.99964465  1
  O  O204  1  0.49552067  0.24889887  0.12516677  1
  O  O205  1  0.50528836  0.22609716  0.64411319  1
  O  O206  1  0.48479303  0.73713434  0.13076070  1
  O  O207  1  0.48812974  0.76515504  0.63164084  1
  O  O208  1  0.99404898  0.24096585  0.13412573  1
  O  O209  1  1.00309084  0.25166413  0.64290149  1
  O  O210  1  1.00351929  0.72872809  0.11301485  1
  O  O211  1  1.00039784  0.74887701  0.63592305  1
  O  O212  1  -0.00097252  0.26536556  0.37131651  1
  O  O213  1  0.00278747  0.24383560  0.85956617  1
  O  O214  1  0.03530371  0.69020024  0.35584206  1
  O  O215  1  0.00955947  0.74984391  0.86187931  1
  O  O216  1  0.50365082  0.25262926  0.39203705  1
  O  O217  1  0.49654202  0.22716615  0.85988089  1
  O  O218  1  0.48934062  0.74980890  0.36174952  1
  O  O219  1  0.49626142  0.77151028  0.88501409  1
  O  O220  1  0.23426806  0.13310984  0.49987440  1
  O  O221  1  0.25273430  0.13730312  1.00943621  1
  O  O222  1  0.24808804  0.63117520  0.52238451  1
  O  O223  1  0.23240317  0.63162854  0.99881142  1
  O  O224  1  0.74787183  0.12151623  0.47915489  1
  O  O225  1  0.74046340  0.13607986  1.00106671  1
  O  O226  1  0.73007756  0.62967797  0.50418927  1
  O  O227  1  0.75966814  0.64345127  0.99007567  1
  O  O228  1  0.25813487  0.36664791  0.01631734  1
  O  O229  1  0.26581578  0.37279984  0.51667451  1
  O  O230  1  0.25810059  0.87140477  -0.00373635  1
  O  O231  1  0.25083910  0.85630717  0.50837904  1
  O  O232  1  0.75592363  0.36098881  -0.00478895  1
  O  O233  1  0.76042677  0.39028429  0.48901860  1
  O  O234  1  0.74916797  0.85895749  0.00979135  1
  O  O235  1  0.77750763  0.86415395  0.49361538  1
  O  O236  1  0.11960463  0.49700342  0.25175998  1
  O  O237  1  0.11859532  0.48509032  0.73984674  1
  O  O238  1  0.13247237  0.99893119  0.24364786  1
  O  O239  1  0.11804520  1.00065918  0.72623235  1
  O  O240  1  0.61858272  0.50855550  0.22400796  1
  O  O241  1  0.64018563  0.50519717  0.73715680  1
  O  O242  1  0.62641564  0.98672946  0.24924804  1
  O  O243  1  0.62964771  0.99498446  0.75886691  1
  O  O244  1  0.35898353  0.00406520  0.24365069  1
  O  O245  1  0.37569134  -0.00321247  0.76810015  1
  O  O246  1  0.38858098  0.49481425  0.27531370  1
  O  O247  1  0.37496012  0.50576973  0.75558019  1
  O  O248  1  0.85347018  -0.00666270  0.25206779  1
  O  O249  1  0.85662447  0.02823126  0.66729709  1
  O  O250  1  0.87960334  0.50075133  0.26161751  1
  O  O251  1  0.88187729  0.50445164  0.75161016  1
  O  O252  1  0.11531261  0.37208722  0.37456829  1
  O  O253  1  0.13388159  0.37292629  0.86300931  1
  O  O254  1  0.12023625  0.87198375  0.38196174  1
  O  O255  1  0.11639734  0.86981171  0.88358267  1
  O  O256  1  0.60816227  0.35645391  0.39306953  1
  O  O257  1  0.62525837  0.39007477  0.85413154  1
  O  O258  1  0.60903007  0.86321624  0.35530574  1
  O  O259  1  0.61425613  0.88227502  0.86460221  1
  O  O260  1  0.38841323  0.13170957  0.11907895  1
  O  O261  1  0.38493196  0.11205406  0.62578008  1
  O  O262  1  0.37675901  0.63918896  0.10519379  1
  O  O263  1  0.39497441  0.63926152  0.63687978  1
  O  O264  1  0.88724784  0.13971208  0.12096028  1
  O  O265  1  0.82642015  0.17733268  0.62372325  1
  O  O266  1  0.88094816  0.62434543  0.13101385  1
  O  O267  1  0.88338646  0.63003299  0.63354473  1
  O  O268  1  0.24437134  0.26072662  0.11902385  1
  O  O269  1  0.24257862  0.25479293  0.62335658  1
  O  O270  1  0.25880764  0.74852291  0.10564354  1
  O  O271  1  0.25940879  0.76101880  0.62344432  1
  O  O272  1  0.76089671  0.23928874  0.12437014  1
  O  O273  1  0.78294471  0.23483090  0.62737185  1
  O  O274  1  0.75104535  0.74223121  0.11842005  1
  O  O275  1  0.77639082  0.74003833  0.60258596  1
  O  O276  1  0.23221703  0.26682784  0.38006240  1
  O  O277  1  0.24574727  0.22839412  0.88355261  1
  O  O278  1  0.26206982  0.74487645  0.39629266  1
  O  O279  1  0.23216643  0.75965863  0.87939641  1
  O  O280  1  0.73472266  0.23024323  0.36873689  1
  O  O281  1  0.75327104  0.24239401  0.88887882  1
  O  O282  1  0.76106437  0.73909087  0.39379926  1
  O  O283  1  0.79223216  0.75532057  0.89335253  1
  O  O284  1  0.00162943  0.13089960  0.00981272  1
  O  O285  1  -0.00639412  0.10916618  0.49625204  1
  O  O286  1  0.00867550  0.61742153  0.00304232  1
  O  O287  1  0.02088840  0.60946606  0.50270625  1
  O  O288  1  0.49964203  0.11299882  0.00866768  1
  O  O289  1  0.52472659  0.12121056  0.52750314  1
  O  O290  1  0.48877633  0.62367976  -0.00624376  1
  O  O291  1  0.50839082  0.60362568  0.50376298  1
  O  O292  1  0.49101134  0.37947901  0.51706931  1
  O  O293  1  0.48317730  0.36310570  0.99544267  1
  O  O294  1  0.50289934  0.86179765  0.48243374  1
  O  O295  1  0.49208673  0.88441053  0.99535264  1
  O  O296  1  0.99393493  0.38707700  0.49416753  1
  O  O297  1  0.98826268  0.37960462  1.00123928  1
  O  O298  1  1.00056461  0.87630760  0.49225967  1
  O  O299  1  0.95167488  0.87985130  1.03478964  1
  O  O300  1  0.49515437  0.47989543  0.39341813  1
  O  O301  1  0.58404611  0.59703615  0.82852974  1
  O  O302  1  0.51100122  0.98177124  0.37671054  1
  O  O303  1  0.48251547  0.99408153  0.89203223  1
  O  O304  1  0.99725236  0.49580872  0.38533597  1
  O  O305  1  0.98822233  0.50234467  0.88597817  1
  O  O306  1  1.00178579  1.00536856  0.37483010  1
  O  O307  1  0.98210701  0.99035797  0.86869214  1
  O  O308  1  0.00575206  0.02291235  0.14147973  1
  O  O309  1  0.01820392  -0.01174325  0.60149181  1
  O  O310  1  -0.00849030  0.50730234  0.10636231  1
  O  O311  1  0.01074876  0.49155415  0.61529297  1
  O  O312  1  0.48983247  -0.00446903  0.11729305  1
  O  O313  1  0.50678679  0.01090586  0.63762967  1
  O  O314  1  0.48441008  0.51974157  0.11987653  1
  O  O315  1  0.49366908  0.49929926  0.62681947  1
  O  O316  1  0.23582644  0.36780633  0.23655362  1
  O  O317  1  0.23703688  0.36342878  0.73922878  1
  O  O318  1  0.24474831  0.89920497  0.25328044  1
  O  O319  1  0.24880486  0.88015976  0.73420753  1
  O  O320  1  0.74085565  0.39087853  0.28082652  1
  O  O321  1  0.74165114  0.38901366  0.74991133  1
  O  O322  1  0.73459633  0.88399186  0.25451459  1
  O  O323  1  0.76350986  0.90840806  0.75473391  1
  O  O324  1  0.23893176  0.11451305  0.25597315  1
  O  O325  1  0.24889710  0.12476929  0.75803710  1
  O  O326  1  0.23774471  0.60712182  0.22588357  1
  O  O327  1  0.25292711  0.62042273  0.75228018  1
  O  O328  1  0.73564800  0.10983034  0.26015310  1
  O  O329  1  0.74497539  0.11751151  0.78009028  1
  O  O330  1  0.76487040  0.63138731  0.24999013  1
  O  O331  1  0.76609929  0.61563892  0.74865874  1
  O  O332  1  0.37078960  0.18051891  0.31019644  1
  O  O333  1  0.36086488  0.10927165  0.88411835  1
  O  O334  1  0.37459338  0.60351234  0.39154920  1
  O  O335  1  0.35806119  0.61752884  0.88685886  1
  O  O336  1  0.86375438  0.12910626  0.36902794  1
  O  O337  1  0.85898260  0.11552420  0.89484601  1
  O  O338  1  0.88660633  0.61689442  0.35668415  1
  O  O339  1  0.87662368  0.61148199  0.85808243  1
  O  O340  1  0.11567076  0.37213021  0.13946794  1
  O  O341  1  0.13743774  0.38019517  0.62860324  1
  O  O342  1  0.11566207  0.89310621  0.12216821  1
  O  O343  1  0.13886233  0.88467120  0.61470684  1
  O  O344  1  0.63834259  0.36483207  0.13922477  1
  O  O345  1  0.62593596  0.36480141  0.64328991  1
  O  O346  1  0.61132957  0.86540695  0.14356020  1
  O  O347  1  0.63257940  0.87958987  0.65039765  1
  O  O348  1  0.11476271  0.26075250  0.26609788  1
  O  O349  1  0.11726987  0.25556023  0.75523544  1
  O  O350  1  0.16308488  0.76972218  0.26385999  1
  O  O351  1  0.11524357  0.75045824  0.75952340  1
  O  O352  1  0.61576807  0.24214483  0.27204980  1
  O  O353  1  0.63960751  0.25608726  0.76394030  1
  O  O354  1  0.61107564  0.74744419  0.25002651  1
  O  O355  1  0.68308073  0.77566056  0.75987885  1
  O  O356  1  0.36453242  0.24131878  0.26985943  1
  O  O357  1  0.38241977  0.24306222  0.75091479  1
  O  O358  1  0.37019448  0.74914084  0.23242531  1
  O  O359  1  0.37312972  0.75496910  0.74389195  1
  O  O360  1  0.88032726  0.25755233  0.23744181  1
  O  O361  1  0.88555373  0.25957927  0.75202742  1
  O  O362  1  0.87801825  0.74068659  0.25085080  1
  O  O363  1  0.88534246  0.74067237  0.73638469  1
  O  O364  1  0.38696999  0.49292318  0.50736086  1
  O  O365  1  0.36636347  0.47440462  1.00028252  1
  O  O366  1  0.38318838  1.07508197  0.45392151  1
  O  O367  1  0.37713918  0.98607314  1.00325007  1
  O  O368  1  0.89105272  0.50804970  0.49477011  1
  O  O369  1  0.87664081  0.49153205  0.99210320  1
  O  O370  1  0.88972720  0.97690781  0.49314242  1
  O  O371  1  0.88034454  0.98770233  1.00530607  1
  O  O372  1  0.12200421  0.00818438  0.01666646  1
  O  O373  1  0.11630661  0.01654825  0.49214314  1
  O  O374  1  0.11703566  0.50893189  -0.00935807  1
  O  O375  1  0.12296516  0.50039017  0.51740756  1
  O  O376  1  0.60615996  0.00297414  0.00483746  1
  O  O377  1  0.65119091  0.01112289  0.50847911  1
  O  O378  1  0.63586551  0.48738995  0.03663802  1
  O  O379  1  0.61716311  0.49968712  0.51741203  1
  O  O380  1  0.36460694  0.37379649  0.13958089  1
  O  O381  1  0.36272336  0.37165217  0.62788686  1
  O  O382  1  0.38029333  0.85858881  0.11025461  1
  O  O383  1  0.36462248  0.86931461  0.62476344  1
  O  O384  1  0.87848251  0.35781609  0.11333607  1
  O  O385  1  0.87355550  0.38159963  0.60470973  1
  O  O386  1  0.89275985  0.92843626  0.05630326  1
  O  O387  1  0.88351348  0.85557401  0.61405496  1
  O  O388  1  0.12064871  0.14673279  0.38733503  1
  O  O389  1  0.13963507  0.11230197  0.87382714  1
  O  O390  1  0.15295377  0.59509453  0.40128825  1
  O  O391  1  0.12059530  0.62687484  0.88032736  1
  O  O392  1  0.61313019  0.12959264  0.38662867  1
  O  O393  1  0.63090416  0.11710561  0.89633922  1
  O  O394  1  0.61812229  0.61094498  0.39779106  1
  O  O395  1  0.62703057  0.65619065  0.85328269  1
