# generated using pymatgen
data_V35Zn35O128
_symmetry_space_group_name_H-M   'P 1'
_cell_length_a   16.84688267
_cell_length_b   16.88639729
_cell_length_c   16.95295602
_cell_angle_alpha   90.12688904
_cell_angle_beta   90.16687194
_cell_angle_gamma   89.99730764
_symmetry_Int_Tables_number   1
_chemical_formula_structural   V35Zn35O128
_chemical_formula_sum   'V70 Zn70 O256'
_cell_volume   4822.79811140
_cell_formula_units_Z   2
loop_
 _symmetry_equiv_pos_site_id
 _symmetry_equiv_pos_as_xyz
  1  'x, y, z'
loop_
 _atom_site_type_symbol
 _atom_site_label
 _atom_site_symmetry_multiplicity
 _atom_site_fract_x
 _atom_site_fract_y
 _atom_site_fract_z
 _atom_site_occupancy
  V  V0  1  0.23660609  0.12652813  0.37776611  1
  V  V1  1  0.61679863  0.87234835  0.24657087  1
  V  V2  1  0.48203433  -0.00731216  0.00492202  1
  V  V3  1  0.37279463  0.62107296  0.24822434  1
  V  V4  1  0.38148465  0.49966090  0.86212923  1
  V  V5  1  0.23823571  0.75956553  0.49969889  1
  V  V6  1  0.88410725  0.00854885  0.87406978  1
  V  V7  1  0.00590135  0.64695613  0.62520477  1
  V  V8  1  0.36954473  -0.00530330  0.86605782  1
  V  V9  1  0.76069712  0.59868007  0.86507140  1
  V  V10  1  0.87039949  0.86634775  0.50969410  1
  V  V11  1  0.75153826  0.63269715  0.38680565  1
  V  V12  1  0.49718212  0.47892128  0.50270244  1
  V  V13  1  0.61491954  0.62704835  0.50825818  1
  V  V14  1  0.87004977  0.62753896  0.25197200  1
  V  V15  1  0.12049452  0.36862772  0.24485988  1
  V  V16  1  0.63226789  0.52211547  0.13169039  1
  V  V17  1  0.75539330  0.36819083  0.62887939  1
  V  V18  1  0.24181958  0.63454873  0.37742342  1
  V  V19  1  0.61436082  0.62088495  -0.01569832  1
  V  V20  1  -0.00103557  0.74777060  0.24893137  1
  V  V21  1  -0.01170577  0.62891236  0.10895215  1
  V  V22  1  0.12865075  0.86967943  0.24924565  1
  V  V23  1  0.13590371  0.62508328  -0.01223824  1
  V  V24  1  0.49666269  0.73715614  0.23319527  1
  V  V25  1  0.00865331  0.51102866  0.50539923  1
  V  V26  1  0.38272731  0.38212511  -0.00314774  1
  V  V27  1  0.13592350  0.74667168  0.86840136  1
  V  V28  1  0.62092341  0.87088496  0.78527260  1
  V  V29  1  -0.01781597  0.23970227  0.72328353  1
  V  V30  1  0.63943988  0.36789445  0.25331021  1
  V  V31  1  0.87453112  0.62596939  0.73323786  1
  V  V32  1  0.38920616  0.88081030  0.48952917  1
  V  V33  1  0.37400729  0.49332065  0.38473819  1
  V  V34  1  0.49316492  0.11139441  0.65342756  1
  V  V35  1  0.38523105  0.76173534  0.62049758  1
  V  V36  1  0.25466872  0.12412250  0.87029218  1
  V  V37  1  0.12082500  0.50760908  0.12251449  1
  V  V38  1  0.61731001  0.74792847  0.37847040  1
  V  V39  1  0.11786078  0.25615189  0.87118745  1
  V  V40  1  0.88970961  0.86999808  0.00544002  1
  V  V41  1  0.60714906  0.10589965  0.50386237  1
  V  V42  1  0.75462171  0.85665403  0.12970839  1
  V  V43  1  0.51455522  0.35746538  0.86490052  1
  V  V44  1  0.25123264  0.39014395  0.12536127  1
  V  V45  1  0.11396600  0.00511070  0.11890188  1
  V  V46  1  0.63105364  0.49511297  0.63350617  1
  V  V47  1  0.00011266  0.87002791  0.85551736  1
  V  V48  1  0.15027640  0.88427504  0.74738191  1
  V  V49  1  0.37416770  0.61811452  0.72831288  1
  V  V50  1  0.72944065  0.12820346  0.88629677  1
  V  V51  1  0.25057677  0.24721668  0.00661786  1
  V  V52  1  0.75058300  0.13789520  0.38435896  1
  V  V53  1  0.00652148  0.87191470  0.37665539  1
  V  V54  1  0.26025942  0.86053785  0.11359001  1
  V  V55  1  0.87535049  0.36930757  0.50421097  1
  V  V56  1  0.38737956  0.00241762  0.36996528  1
  V  V57  1  0.25486395  0.00533269  0.24643743  1
  V  V58  1  -0.01585034  0.37687119  0.88019456  1
  V  V59  1  0.87848856  0.14171673  0.24210951  1
  V  V60  1  0.01000291  0.01572476  0.50715001  1
  V  V61  1  0.00127441  0.37134007  0.36725722  1
  V  V62  1  0.62894831  0.00242549  0.11187494  1
  V  V63  1  0.87490246  -0.00190694  0.37020642  1
  V  V64  1  0.74521791  0.75260972  -0.02055207  1
  V  V65  1  0.38489389  0.25583066  0.13818071  1
  V  V66  1  0.87325137  0.50647151  0.37361654  1
  V  V67  1  0.13500212  0.49816958  0.64306556  1
  V  V68  1  0.37804252  0.25554432  0.63269706  1
  V  V69  1  0.61007310  0.25791609  0.39535701  1
  Zn  Zn70  1  0.49831935  0.13037068  0.12995494  1
  Zn  Zn71  1  0.10818959  0.12482627  0.00533469  1
  Zn  Zn72  1  0.75246346  0.00507608  0.24401178  1
  Zn  Zn73  1  0.74253051  -0.00566691  0.75649697  1
  Zn  Zn74  1  0.25690352  0.24304232  0.49637339  1
  Zn  Zn75  1  0.50088223  0.75178656  0.77874797  1
  Zn  Zn76  1  0.18762130  0.18901901  0.18828528  1
  Zn  Zn77  1  0.20982730  0.20978254  0.69922915  1
  Zn  Zn78  1  0.18618720  0.68338905  0.18773280  1
  Zn  Zn79  1  0.19466359  0.68946813  0.68481232  1
  Zn  Zn80  1  0.65365770  0.16840612  0.21791771  1
  Zn  Zn81  1  0.71364187  0.17053841  0.68245493  1
  Zn  Zn82  1  0.68257419  0.68199918  0.18858050  1
  Zn  Zn83  1  0.67717149  0.68651683  0.70203716  1
  Zn  Zn84  1  0.30405753  0.31698349  0.31322185  1
  Zn  Zn85  1  0.31671036  0.30955050  0.81761236  1
  Zn  Zn86  1  0.31547761  0.81184400  0.31020098  1
  Zn  Zn87  1  0.32768389  0.80465175  0.82550045  1
  Zn  Zn88  1  0.80680302  0.31768754  0.31237468  1
  Zn  Zn89  1  0.80872362  0.29828507  0.79419157  1
  Zn  Zn90  1  0.81411769  0.80830549  0.31771622  1
  Zn  Zn91  1  0.81498523  0.81457406  0.79998380  1
  Zn  Zn92  1  0.18527941  0.44803572  0.42969235  1
  Zn  Zn93  1  0.18413860  0.44066198  0.93875264  1
  Zn  Zn94  1  0.19335857  0.93988883  0.43850067  1
  Zn  Zn95  1  0.18763313  0.93618488  0.93795750  1
  Zn  Zn96  1  0.69278866  0.44426214  0.44078413  1
  Zn  Zn97  1  0.69079727  0.43629420  0.94440176  1
  Zn  Zn98  1  0.68502498  0.93094162  0.42496774  1
  Zn  Zn99  1  0.69618612  0.94000748  0.93885362  1
  Zn  Zn100  1  0.31249474  0.06901624  0.07501831  1
  Zn  Zn101  1  0.34516336  0.09401250  0.53807593  1
  Zn  Zn102  1  0.32252216  0.57408604  0.05102433  1
  Zn  Zn103  1  0.30909168  0.56849576  0.55503158  1
  Zn  Zn104  1  0.81604027  0.05450036  0.06073696  1
  Zn  Zn105  1  0.77742330  0.01117678  0.52861434  1
  Zn  Zn106  1  0.79370805  0.58450966  0.07241558  1
  Zn  Zn107  1  0.81473462  0.56153861  0.56157273  1
  Zn  Zn108  1  0.46333735  0.45734122  0.20695346  1
  Zn  Zn109  1  0.44791142  0.43004657  0.68572502  1
  Zn  Zn110  1  0.43911057  0.93231828  0.18271945  1
  Zn  Zn111  1  0.44380625  0.93326469  0.68946057  1
  Zn  Zn112  1  0.93526311  0.44747501  0.18301003  1
  Zn  Zn113  1  0.94048478  0.43357068  0.69956793  1
  Zn  Zn114  1  0.93608653  0.93803933  0.18867530  1
  Zn  Zn115  1  0.93872685  0.95143329  0.68457834  1
  Zn  Zn116  1  0.05813534  0.06199004  0.30370086  1
  Zn  Zn117  1  0.06602315  0.06598219  0.81641437  1
  Zn  Zn118  1  0.06061186  0.55946401  0.30812248  1
  Zn  Zn119  1  0.04951145  0.56175299  0.80877198  1
  Zn  Zn120  1  0.56238560  0.06647163  0.31085950  1
  Zn  Zn121  1  0.56441340  0.05704442  0.82665033  1
  Zn  Zn122  1  0.56076822  0.55185338  0.31814086  1
  Zn  Zn123  1  0.55429395  0.56485396  0.81299514  1
  Zn  Zn124  1  0.43706157  0.18996447  0.43035330  1
  Zn  Zn125  1  0.44876173  0.17756257  0.94416749  1
  Zn  Zn126  1  0.43395923  0.68822437  0.43289812  1
  Zn  Zn127  1  0.41417686  0.69099227  0.94449389  1
  Zn  Zn128  1  0.94026627  0.18799461  0.43265588  1
  Zn  Zn129  1  0.88365157  0.22208368  0.91896318  1
  Zn  Zn130  1  0.94130532  0.69371439  0.44038505  1
  Zn  Zn131  1  0.93105699  0.69575446  0.92463132  1
  Zn  Zn132  1  0.07227606  0.33543272  0.03943085  1
  Zn  Zn133  1  0.06786214  0.32340188  0.56442881  1
  Zn  Zn134  1  0.07686710  0.80457091  0.06690309  1
  Zn  Zn135  1  0.06781679  0.83320168  0.56694576  1
  Zn  Zn136  1  0.54895791  0.35955019  0.08858012  1
  Zn  Zn137  1  0.58776942  0.27786237  0.60641353  1
  Zn  Zn138  1  0.56155151  0.80744653  0.05201376  1
  Zn  Zn139  1  0.56075677  0.81596053  0.56002634  1
  O  O140  1  0.13030345  0.10985178  0.12737575  1
  O  O141  1  0.13756710  0.10624454  0.63407218  1
  O  O142  1  0.11666180  0.62405316  0.10894128  1
  O  O143  1  0.10909527  0.62381767  0.63082268  1
  O  O144  1  0.64786444  0.10062751  0.12226935  1
  O  O145  1  0.60975068  0.11912289  0.60759780  1
  O  O146  1  0.62790218  0.62647243  0.10090542  1
  O  O147  1  0.63409995  0.61895549  0.61192031  1
  O  O148  1  0.36081779  0.39454180  0.37698890  1
  O  O149  1  0.38583407  0.37420938  0.88481188  1
  O  O150  1  0.37559845  0.88414850  0.38079607  1
  O  O151  1  0.35414015  0.90046874  0.89144672  1
  O  O152  1  0.88646805  0.38708957  0.37704654  1
  O  O153  1  0.88570937  0.33946702  0.87624687  1
  O  O154  1  0.88546004  0.88077934  0.37492389  1
  O  O155  1  0.89011022  0.87208235  0.88317956  1
  O  O156  1  0.25214208  0.00462725  0.35976106  1
  O  O157  1  0.25570765  0.01781844  0.88978139  1
  O  O158  1  0.26525670  0.51883398  0.38993967  1
  O  O159  1  0.26412115  0.46513444  0.85206394  1
  O  O160  1  0.76244755  0.00136391  0.36940616  1
  O  O161  1  0.76748489  0.00710157  0.88067937  1
  O  O162  1  0.76435016  0.51745121  0.38329108  1
  O  O163  1  0.76354133  0.50070804  0.88052044  1
  O  O164  1  0.24117727  0.49492025  0.11166844  1
  O  O165  1  0.23137664  0.51413731  0.61439361  1
  O  O166  1  0.24667516  0.99136957  0.13779481  1
  O  O167  1  0.17851282  1.04663652  0.62511519  1
  O  O168  1  0.73392101  0.50199073  0.11761752  1
  O  O169  1  0.73684667  0.49561752  0.61481982  1
  O  O170  1  0.74100057  0.97731258  0.12524282  1
  O  O171  1  0.77973768  1.02496266  0.64322420  1
  O  O172  1  0.00421263  0.38430954  0.25584008  1
  O  O173  1  -0.00824079  0.34705672  0.75911700  1
  O  O174  1  0.00526903  0.86764863  0.25491236  1
  O  O175  1  0.00332402  0.87394588  0.75607781  1
  O  O176  1  0.55064238  0.41788244  0.27636779  1
  O  O177  1  0.50393594  0.36729605  0.76459899  1
  O  O178  1  0.51234229  0.85914771  0.24293499  1
  O  O179  1  0.51668795  0.86683226  0.74730700  1
  O  O180  1  0.54075797  0.14074422  0.23183325  1
  O  O181  1  0.50758683  0.12168395  0.75131894  1
  O  O182  1  0.49148607  0.63247878  0.25543732  1
  O  O183  1  0.47762726  0.63717417  0.76366817  1
  O  O184  1  0.97893461  0.12927412  0.25712123  1
  O  O185  1  1.01787791  0.14618104  0.75179552  1
  O  O186  1  0.99306384  0.63389019  0.24684699  1
  O  O187  1  0.98824485  0.63070474  0.73412042  1
  O  O188  1  0.36278133  0.26464157  0.00711083  1
  O  O189  1  0.36956493  0.21669158  0.51459029  1
  O  O190  1  0.35917953  0.68188974  0.03737660  1
  O  O191  1  0.37492515  0.76372025  0.50004595  1
  O  O192  1  0.89995131  0.23688951  0.03542903  1
  O  O193  1  0.88713463  0.27081067  0.49326534  1
  O  O194  1  0.86044610  0.76250323  -0.00591002  1
  O  O195  1  0.87025583  0.76699888  0.49135205  1
  O  O196  1  0.14622358  0.29739520  0.48181121  1
  O  O197  1  0.13769207  0.24932891  1.00168402  1
  O  O198  1  0.13884301  0.76578173  0.50124349  1
  O  O199  1  0.12037734  0.73292003  0.98964466  1
  O  O200  1  0.61877310  0.22811042  0.49662743  1
  O  O201  1  0.64927503  0.26899675  1.01206438  1
  O  O202  1  0.62024032  0.74344443  0.48524434  1
  O  O203  1  0.63833822  0.73774479  0.99767282  1
  O  O204  1  0.48641032  0.26471066  0.11838109  1
  O  O205  1  0.48625572  0.22514345  0.62118868  1
  O  O206  1  0.50625982  0.74327294  0.13482703  1
  O  O207  1  0.48694960  0.75096688  0.61819523  1
  O  O208  1  0.97067216  0.20798571  0.05892705  1
  O  O209  1  1.01102063  0.24877186  0.62576582  1
  O  O210  1  1.00476497  0.73499441  0.13381778  1
  O  O211  1  1.00634701  0.74471810  0.61433470  1
  O  O212  1  0.00183151  0.27353330  0.37629316  1
  O  O213  1  0.01465679  0.24942008  0.87852058  1
  O  O214  1  0.00014933  0.76380343  0.36652515  1
  O  O215  1  0.00808467  0.76530337  0.87629281  1
  O  O216  1  0.51157048  0.25170541  0.37478430  1
  O  O217  1  0.49908178  0.25904961  0.88562726  1
  O  O218  1  0.51430490  0.74506993  0.36373896  1
  O  O219  1  0.42909278  0.76535007  0.86720661  1
  O  O220  1  0.24245537  0.11415984  0.48020828  1
  O  O221  1  0.25125003  0.14250766  1.00748584  1
  O  O222  1  0.25251583  0.64348604  0.48491311  1
  O  O223  1  0.23312152  0.61603381  0.98294499  1
  O  O224  1  0.74462864  0.11372583  0.48510839  1
  O  O225  1  0.76327904  0.11675037  0.98430757  1
  O  O226  1  0.74016635  0.62696214  0.49216996  1
  O  O227  1  0.75395748  0.63683121  0.98048496  1
  O  O228  1  0.25131956  0.36786680  0.00803097  1
  O  O229  1  0.21074929  0.35497114  0.49158862  1
  O  O230  1  0.24377210  0.87423354  0.01541696  1
  O  O231  1  0.26328781  0.86437831  0.49011611  1
  O  O232  1  0.78150222  0.37269381  0.01112926  1
  O  O233  1  0.77169468  0.38353907  0.50022319  1
  O  O234  1  0.74994996  0.86144864  0.01075006  1
  O  O235  1  0.76837579  0.89573696  0.49993121  1
  O  O236  1  0.12104820  0.49882943  0.22795861  1
  O  O237  1  0.12829777  0.51316978  0.74231139  1
  O  O238  1  0.13475423  0.99021717  0.24122247  1
  O  O239  1  0.12946550  0.98219016  0.76937674  1
  O  O240  1  0.63331429  0.54723712  0.23050673  1
  O  O241  1  0.61806731  0.50935788  0.73054923  1
  O  O242  1  0.62773272  0.97861158  0.24590088  1
  O  O243  1  0.62122249  0.97804896  0.76601878  1
  O  O244  1  0.36308318  -0.01119934  0.25729315  1
  O  O245  1  0.37869026  -0.00844170  0.76766809  1
  O  O246  1  0.38736150  0.50939635  0.27328496  1
  O  O247  1  0.38239419  0.50809556  0.74767755  1
  O  O248  1  0.87289203  0.00261616  0.25929003  1
  O  O249  1  0.87495202  -0.01124648  0.77143844  1
  O  O250  1  0.88394793  0.51506776  0.26333165  1
  O  O251  1  0.87749917  0.52135526  0.73839180  1
  O  O252  1  0.11326615  0.39237356  0.35258384  1
  O  O253  1  0.11268329  0.36183584  0.89018639  1
  O  O254  1  0.11304600  0.88198815  0.36301992  1
  O  O255  1  0.11713814  0.86433150  0.87244502  1
  O  O256  1  0.63052240  0.35710953  0.40133357  1
  O  O257  1  0.61229637  0.37683057  0.88987554  1
  O  O258  1  0.63185042  0.85767533  0.35679812  1
  O  O259  1  0.61945439  0.87090850  0.88554980  1
  O  O260  1  0.37413786  0.15159535  0.13209428  1
  O  O261  1  0.38644016  0.11754693  0.64065547  1
  O  O262  1  0.37525222  0.59515563  0.15302619  1
  O  O263  1  0.38003820  0.63078765  0.62545071  1
  O  O264  1  0.86016674  0.11362395  0.14657007  1
  O  O265  1  0.80006895  0.10370372  0.63847292  1
  O  O266  1  0.88308873  0.62068912  0.13335868  1
  O  O267  1  0.88358270  0.63007245  0.62511511  1
  O  O268  1  0.25604322  0.26392305  0.11992224  1
  O  O269  1  0.26566384  0.24223747  0.61260516  1
  O  O270  1  0.24077177  0.76206299  0.12846437  1
  O  O271  1  0.26290750  0.74357356  0.60341940  1
  O  O272  1  0.69982231  0.24185836  0.05700068  1
  O  O273  1  0.75087235  0.26916537  0.61486044  1
  O  O274  1  0.74876641  0.75410822  0.11729858  1
  O  O275  1  0.71205833  0.78118939  0.62029264  1
  O  O276  1  0.26065777  0.22912503  0.37046299  1
  O  O277  1  0.24593917  0.24462562  0.89144343  1
  O  O278  1  0.25306222  0.74375142  0.38174649  1
  O  O279  1  0.23404602  0.75130107  0.88122679  1
  O  O280  1  0.75177449  0.23907623  0.38634158  1
  O  O281  1  0.76993157  0.22758067  0.87641193  1
  O  O282  1  0.73534200  0.74100418  0.36903823  1
  O  O283  1  0.74794936  0.75455788  0.88125703  1
  O  O284  1  -0.01061521  0.13852545  0.02188937  1
  O  O285  1  0.00713254  0.11373932  0.48293399  1
  O  O286  1  -0.01282985  0.63313294  0.00913477  1
  O  O287  1  -0.00614340  0.61927720  0.51076645  1
  O  O288  1  0.49766450  0.10644671  0.01839856  1
  O  O289  1  0.50787746  0.10858033  0.48530598  1
  O  O290  1  0.51739830  0.63423440  -0.02774201  1
  O  O291  1  0.51413158  0.63073043  0.50058022  1
  O  O292  1  0.49996904  0.38383791  0.49658572  1
  O  O293  1  0.48476993  0.37734257  0.99416326  1
  O  O294  1  0.49002822  0.87769270  0.49535558  1
  O  O295  1  0.49898085  0.89174240  1.01201835  1
  O  O296  1  0.99508188  0.39141815  0.48674719  1
  O  O297  1  0.98861411  0.37919723  0.98411018  1
  O  O298  1  0.99384585  0.87789250  0.48528700  1
  O  O299  1  0.98957309  0.86273181  1.01006880  1
  O  O300  1  0.48755000  0.50946984  0.39468873  1
  O  O301  1  0.48591523  0.48539663  0.86894106  1
  O  O302  1  0.48651144  0.99944313  0.35925547  1
  O  O303  1  0.47886232  1.00856482  0.89578057  1
  O  O304  1  0.99270683  0.50336496  0.38452836  1
  O  O305  1  0.99009150  0.47464606  0.85495537  1
  O  O306  1  0.99347123  0.98768422  0.37137746  1
  O  O307  1  0.99614380  0.98129074  0.87781202  1
  O  O308  1  0.01486149  -0.00437320  0.13109336  1
  O  O309  1  -0.00319202  0.00953704  0.60710041  1
  O  O310  1  0.00475933  0.52066166  0.12346107  1
  O  O311  1  0.00764253  0.50554412  0.61278807  1
  O  O312  1  0.51655990  -0.00209521  0.12559440  1
  O  O313  1  0.50022547  0.01155362  0.63000221  1
  O  O314  1  0.53260743  0.47571479  0.12034474  1
  O  O315  1  0.51639420  0.49285501  0.61125370  1
  O  O316  1  0.23232821  0.37823266  0.23826896  1
  O  O317  1  0.25411118  0.40902078  0.79350416  1
  O  O318  1  0.24194232  0.88013699  0.24779646  1
  O  O319  1  0.24853148  0.87002657  0.76229627  1
  O  O320  1  0.73240987  0.39986637  0.28405656  1
  O  O321  1  0.76538441  0.37894823  0.72835781  1
  O  O322  1  0.74436266  0.86382881  0.23744071  1
  O  O323  1  0.73035414  0.87689787  0.76021471  1
  O  O324  1  0.25046605  0.10966559  0.25097038  1
  O  O325  1  0.24415558  0.12656799  0.77246379  1
  O  O326  1  0.26427436  0.63585044  0.26095538  1
  O  O327  1  0.27546422  0.63317962  0.74809328  1
  O  O328  1  0.75124100  0.12217323  0.26859494  1
  O  O329  1  0.73598479  0.10918837  0.77787075  1
  O  O330  1  0.76578789  0.63598864  0.25750936  1
  O  O331  1  0.75335374  0.61901551  0.75942933  1
  O  O332  1  0.36623085  0.10537391  0.37495416  1
  O  O333  1  0.35998841  0.12284122  0.88579979  1
  O  O334  1  0.36652462  0.62014019  0.36893710  1
  O  O335  1  0.36674313  0.59692257  0.87520084  1
  O  O336  1  0.86485983  0.12036353  0.36885139  1
  O  O337  1  0.89636171  0.10682377  0.88352073  1
  O  O338  1  0.87109517  0.62594469  0.37200979  1
  O  O339  1  0.86462255  0.62425269  0.86430573  1
  O  O340  1  0.12633642  0.38613182  0.12751297  1
  O  O341  1  0.12047114  0.39859799  0.63164411  1
  O  O342  1  0.13319084  0.88429522  0.13296799  1
  O  O343  1  0.13175233  0.87543719  0.64792030  1
  O  O344  1  0.64513078  0.37170806  0.15077707  1
  O  O345  1  0.64059508  0.38681698  0.61479438  1
  O  O346  1  0.63478603  0.87034491  0.13382886  1
  O  O347  1  0.66267556  0.83996235  0.61735117  1
  O  O348  1  0.11926880  0.26912685  0.23766931  1
  O  O349  1  0.13701130  0.25715284  0.77204825  1
  O  O350  1  0.11423479  0.75981146  0.24520042  1
  O  O351  1  0.13201061  0.75659329  0.76321447  1
  O  O352  1  0.63825852  0.26485647  0.27769027  1
  O  O353  1  0.63648021  0.24741053  0.70683220  1
  O  O354  1  0.61461908  0.74966616  0.25415896  1
  O  O355  1  0.61823287  0.75910821  0.76334163  1
  O  O356  1  0.37677442  0.27686043  0.23508163  1
  O  O357  1  0.35961843  0.24933642  0.73478711  1
  O  O358  1  0.38926846  0.73919230  0.25287035  1
  O  O359  1  0.37030201  0.74948693  0.72268930  1
  O  O360  1  0.86356770  0.24255706  0.24984841  1
  O  O361  1  0.88091671  0.23119998  0.72826941  1
  O  O362  1  0.88816420  0.74296939  0.25374459  1
  O  O363  1  0.86389069  0.72988838  0.74706253  1
  O  O364  1  0.38770205  0.50390403  0.49762495  1
  O  O365  1  0.36041219  0.48531004  0.98224116  1
  O  O366  1  0.37085086  0.98975481  0.48343155  1
  O  O367  1  0.38050664  0.99902414  1.01643525  1
  O  O368  1  0.88693079  0.49817489  0.49028511  1
  O  O369  1  0.83873475  0.41421827  1.04510215  1
  O  O370  1  0.89142068  0.99228372  0.48394177  1
  O  O371  1  0.87342918  0.97580141  0.99050314  1
  O  O372  1  0.12627865  0.00178834  0.01544710  1
  O  O373  1  0.10820641  -0.01216840  0.49499712  1
  O  O374  1  0.11976231  0.51289846  0.00469724  1
  O  O375  1  0.10973483  0.50552028  0.49715722  1
  O  O376  1  0.62050782  -0.00862934  0.01153493  1
  O  O377  1  0.63148033  0.00559613  0.49147110  1
  O  O378  1  0.62895893  0.51698678  0.00382555  1
  O  O379  1  0.61400167  0.51316765  0.49838097  1
  O  O380  1  0.36815291  0.37852746  0.11161927  1
  O  O381  1  0.39021847  0.35468108  0.61967894  1
  O  O382  1  0.36003430  0.87088276  0.13143425  1
  O  O383  1  0.37833342  0.86936314  0.60864883  1
  O  O384  1  0.86505542  0.38080085  0.11422641  1
  O  O385  1  0.87251515  0.38595164  0.60994585  1
  O  O386  1  0.86388980  0.87551770  0.11658896  1
  O  O387  1  0.88814220  0.87918821  0.60728365  1
  O  O388  1  0.13765100  0.12306073  0.35947927  1
  O  O389  1  0.13539727  0.13626971  0.89019062  1
  O  O390  1  0.14333240  0.61958387  0.36186733  1
  O  O391  1  0.10887692  0.63403138  0.88088272  1
  O  O392  1  0.63515317  0.13246668  0.38087145  1
  O  O393  1  0.62892030  0.12457970  0.89565451  1
  O  O394  1  0.63103359  0.63167889  0.38426520  1
  O  O395  1  0.64399872  0.61278159  0.87820589  1
