# generated using pymatgen
data_V35Zn35O128
_symmetry_space_group_name_H-M   'P 1'
_cell_length_a   16.87900293
_cell_length_b   16.84959215
_cell_length_c   16.83880694
_cell_angle_alpha   90.15690995
_cell_angle_beta   89.98517103
_cell_angle_gamma   89.93072797
_symmetry_Int_Tables_number   1
_chemical_formula_structural   V35Zn35O128
_chemical_formula_sum   'V70 Zn70 O256'
_cell_volume   4789.00773193
_cell_formula_units_Z   2
loop_
 _symmetry_equiv_pos_site_id
 _symmetry_equiv_pos_as_xyz
  1  'x, y, z'
loop_
 _atom_site_type_symbol
 _atom_site_label
 _atom_site_symmetry_multiplicity
 _atom_site_fract_x
 _atom_site_fract_y
 _atom_site_fract_z
 _atom_site_occupancy
  V  V0  1  0.25168279  0.50046850  0.24245898  1
  V  V1  1  0.00636667  0.62194370  0.61785615  1
  V  V2  1  0.50443592  0.24215529  0.24419721  1
  V  V3  1  0.37893140  0.01000654  0.88009163  1
  V  V4  1  0.36911670  0.64209866  0.24839206  1
  V  V5  1  0.37324683  0.01018145  0.37690002  1
  V  V6  1  0.25000501  0.24230742  0.46778691  1
  V  V7  1  0.64332689  0.24991581  0.88265414  1
  V  V8  1  0.49807806  0.86345873  0.84976332  1
  V  V9  1  0.24295140  0.64007150  0.87365928  1
  V  V10  1  0.12226296  0.48937025  0.11308405  1
  V  V11  1  0.88834527  0.49110202  0.88632480  1
  V  V12  1  0.36955402  0.50509275  0.37513172  1
  V  V13  1  0.75015464  -0.00992560  0.26775480  1
  V  V14  1  0.14263553  0.62967607  0.49692466  1
  V  V15  1  0.38551359  0.86320573  0.00165796  1
  V  V16  1  0.76239384  0.88236858  0.11707713  1
  V  V17  1  -0.00712168  0.00337283  0.51086083  1
  V  V18  1  0.35887337  0.86907967  0.50600649  1
  V  V19  1  0.50550127  0.50035647  0.50237167  1
  V  V20  1  0.13031123  0.88957451  0.77095369  1
  V  V21  1  0.88108865  0.12115358  0.25594039  1
  V  V22  1  0.63119587  0.74459370  0.36843819  1
  V  V23  1  0.86576462  0.37337077  0.49629420  1
  V  V24  1  0.36766229  0.37824562  0.01720082  1
  V  V25  1  0.63204823  0.50083203  0.12488387  1
  V  V26  1  -0.00325021  0.63595860  0.12541970  1
  V  V27  1  0.62548914  0.63599548  -0.00565810  1
  V  V28  1  0.86480572  0.12711449  0.76706892  1
  V  V29  1  -0.01711320  0.86906271  0.88348213  1
  V  V30  1  0.63339486  0.39172115  0.73976922  1
  V  V31  1  0.12892022  0.37842112  0.26997736  1
  V  V32  1  0.49096606  0.63864904  0.12533880  1
  V  V33  1  0.38126177  0.22237760  0.12875018  1
  V  V34  1  0.75337518  0.61995899  0.86440939  1
  V  V35  1  0.49600760  0.62546757  0.62223946  1
  V  V36  1  0.24651341  0.86000897  0.11632551  1
  V  V37  1  0.62745222  0.11658640  0.01736059  1
  V  V38  1  -0.01533138  0.87659014  0.38005682  1
  V  V39  1  0.35926402  0.49214818  0.86469011  1
  V  V40  1  0.13413847  0.35825708  0.74305603  1
  V  V41  1  -0.01843010  0.01069627  0.00245488  1
  V  V42  1  0.00063333  0.49501307  0.47663845  1
  V  V43  1  0.62801286  0.14508518  0.49608865  1
  V  V44  1  0.13415622  0.75201162  0.38409763  1
  V  V45  1  0.71164574  0.86657930  0.64089030  1
  V  V46  1  0.00575433  0.36312795  0.89071222  1
  V  V47  1  0.90244202  0.61806383  0.75274138  1
  V  V48  1  0.49505815  0.37220727  0.37358294  1
  V  V49  1  0.12760635  0.64097645  -0.00052030  1
  V  V50  1  0.49649640  0.50258555  -0.00218357  1
  V  V51  1  0.50769931  -0.00572709  0.49492405  1
  V  V52  1  0.12017924  0.86755197  0.25076594  1
  V  V53  1  0.63187520  0.37823805  0.25050781  1
  V  V54  1  0.12782157  0.11813021  0.45957107  1
  V  V55  1  0.49797639  0.37454117  0.87300043  1
  V  V56  1  0.25090537  0.00994841  0.25474603  1
  V  V57  1  0.00292878  0.26396691  0.26377794  1
  V  V58  1  0.87558823  0.25788862  0.12576734  1
  V  V59  1  0.24211064  0.24091021  0.01231904  1
  V  V60  1  0.36918986  0.63569243  0.74385875  1
  V  V61  1  0.88098420  0.61737515  0.26150918  1
  V  V62  1  0.22839783  0.12576445  0.88402506  1
  V  V63  1  0.49909507  0.12357958  0.62518697  1
  V  V64  1  0.77145673  0.75383699  -0.00100898  1
  V  V65  1  0.87321140  0.76332011  0.62117189  1
  V  V66  1  0.74708446  0.15193450  0.37821105  1
  V  V67  1  0.12155869  0.01466421  0.12050200  1
  V  V68  1  0.49393353  0.25009920  0.74815920  1
  V  V69  1  0.36223689  0.25794990  0.61860074  1
  Zn  Zn70  1  0.62357236  -0.00289836  0.13233003  1
  Zn  Zn71  1  0.76098477  0.37102023  0.10127634  1
  Zn  Zn72  1  0.14100164  0.48806998  0.63438051  1
  Zn  Zn73  1  0.00031986  0.24165614  0.76024723  1
  Zn  Zn74  1  0.24680697  0.01103359  0.73611364  1
  Zn  Zn75  1  0.65720218  0.78833488  0.80771432  1
  Zn  Zn76  1  0.18816923  0.19337153  0.19603812  1
  Zn  Zn77  1  0.19053966  0.17196842  0.68927081  1
  Zn  Zn78  1  0.18289182  0.68480201  0.18964762  1
  Zn  Zn79  1  0.19638992  0.69250337  0.68070987  1
  Zn  Zn80  1  0.69364160  0.18648745  0.18940373  1
  Zn  Zn81  1  0.67034697  0.17963864  0.70286703  1
  Zn  Zn82  1  0.69766984  0.68642390  0.17640635  1
  Zn  Zn83  1  0.70245044  0.65967218  0.66004406  1
  Zn  Zn84  1  0.31766545  0.31693020  0.29888155  1
  Zn  Zn85  1  0.31088877  0.29522834  0.81814109  1
  Zn  Zn86  1  0.30829903  0.82493184  0.32398711  1
  Zn  Zn87  1  0.31111983  0.82021321  0.80870049  1
  Zn  Zn88  1  0.81980690  0.32493880  0.31242125  1
  Zn  Zn89  1  0.81883101  0.31636589  0.79899375  1
  Zn  Zn90  1  0.82247626  0.80459102  0.29395181  1
  Zn  Zn91  1  0.82572754  0.80362812  0.80242223  1
  Zn  Zn92  1  0.20786933  0.44980324  0.46214047  1
  Zn  Zn93  1  0.18431474  0.42443582  0.93567885  1
  Zn  Zn94  1  0.18887130  0.93753863  0.44043612  1
  Zn  Zn95  1  0.18756270  0.94117611  0.93997256  1
  Zn  Zn96  1  0.68006444  0.42000310  0.44732865  1
  Zn  Zn97  1  0.68671560  0.44503104  0.92791324  1
  Zn  Zn98  1  0.69962118  0.94173529  0.46114948  1
  Zn  Zn99  1  0.67036509  0.92323169  0.95029134  1
  Zn  Zn100  1  0.31156779  0.04906263  0.06185786  1
  Zn  Zn101  1  0.30575964  0.07070813  0.55970724  1
  Zn  Zn102  1  0.30717916  0.56872881  0.06168872  1
  Zn  Zn103  1  0.31145319  0.55554836  0.56451150  1
  Zn  Zn104  1  0.80492609  0.07696467  0.06601812  1
  Zn  Zn105  1  0.82282155  0.01235122  0.61065699  1
  Zn  Zn106  1  0.81498198  0.56262038  0.05869756  1
  Zn  Zn107  1  0.82744481  0.51029743  0.59899317  1
  Zn  Zn108  1  0.44364830  0.44486194  0.19076692  1
  Zn  Zn109  1  0.43177462  0.43346879  0.68571863  1
  Zn  Zn110  1  0.40714398  0.90136826  0.20803413  1
  Zn  Zn111  1  0.41942977  0.95879342  0.68867726  1
  Zn  Zn112  1  0.94299213  0.44371089  0.18731911  1
  Zn  Zn113  1  0.95710108  0.42916558  0.68627766  1
  Zn  Zn114  1  0.93738296  0.93911141  0.18491796  1
  Zn  Zn115  1  0.95618525  0.94881373  0.69854113  1
  Zn  Zn116  1  0.05374389  0.04901002  0.30881219  1
  Zn  Zn117  1  0.05043787  0.06123326  0.82151727  1
  Zn  Zn118  1  0.06458290  0.56986314  0.30797622  1
  Zn  Zn119  1  0.07384680  0.54501242  0.81501123  1
  Zn  Zn120  1  0.56616801  0.05812443  0.31638916  1
  Zn  Zn121  1  0.54529573  0.07653021  0.83899967  1
  Zn  Zn122  1  0.55274239  0.55948292  0.30614947  1
  Zn  Zn123  1  0.58523830  0.60052929  0.77795325  1
  Zn  Zn124  1  0.43623961  0.18808022  0.43701443  1
  Zn  Zn125  1  0.44389727  0.19251710  0.94909558  1
  Zn  Zn126  1  0.43297100  0.68736734  0.44081882  1
  Zn  Zn127  1  0.43299205  0.68744149  0.93041364  1
  Zn  Zn128  1  0.93767004  0.18997553  0.44239020  1
  Zn  Zn129  1  0.92662697  0.17935753  0.93843533  1
  Zn  Zn130  1  0.94268875  0.69582751  0.43970665  1
  Zn  Zn131  1  0.94921562  0.68290008  0.93798984  1
  Zn  Zn132  1  0.05381030  0.30598104  0.07500821  1
  Zn  Zn133  1  0.09862066  0.32257293  0.53379621  1
  Zn  Zn134  1  0.05725081  0.81887743  0.05824169  1
  Zn  Zn135  1  0.05172643  0.81189827  0.56339717  1
  Zn  Zn136  1  0.56260270  0.31302247  0.06156292  1
  Zn  Zn137  1  0.55865031  0.31693361  0.56420716  1
  Zn  Zn138  1  0.56860303  0.81823298  0.06804740  1
  Zn  Zn139  1  0.50200804  0.83425036  0.62720498  1
  O  O140  1  0.12565467  0.11288488  0.13842661  1
  O  O141  1  0.06165740  0.15244264  0.62523553  1
  O  O142  1  0.12445914  0.61864139  0.11361233  1
  O  O143  1  0.12314516  0.63218522  0.61074632  1
  O  O144  1  0.62552032  0.11967862  0.12406402  1
  O  O145  1  0.61432775  0.13553692  0.60916562  1
  O  O146  1  0.61463358  0.61772712  0.11816206  1
  O  O147  1  0.59282869  0.60718993  0.63184830  1
  O  O148  1  0.38715869  0.39167391  0.35910068  1
  O  O149  1  0.37753723  0.38107852  0.88261589  1
  O  O150  1  0.37189224  0.89193190  0.39208563  1
  O  O151  1  0.38384268  0.87916503  0.88264910  1
  O  O152  1  0.87382221  0.38173743  0.39283246  1
  O  O153  1  0.88558535  0.38645651  0.86793998  1
  O  O154  1  0.88637906  0.86314833  0.36881696  1
  O  O155  1  0.88284742  0.87486172  0.87059371  1
  O  O156  1  0.25614696  -0.00170957  0.36327003  1
  O  O157  1  0.25758391  0.01834726  0.88740822  1
  O  O158  1  0.26456692  0.49852108  0.36561043  1
  O  O159  1  0.25942496  0.49686048  0.88131757  1
  O  O160  1  0.75276472  -0.01568831  0.36920247  1
  O  O161  1  0.73170142  -0.00861270  0.84785399  1
  O  O162  1  0.74325090  0.51737273  0.38497621  1
  O  O163  1  0.76846541  0.51501200  0.87989730  1
  O  O164  1  0.23921812  0.50655035  0.13453284  1
  O  O165  1  0.23495249  0.47772915  0.57432869  1
  O  O166  1  0.24043950  0.99049256  0.13610115  1
  O  O167  1  0.22779401  1.07000775  0.64142449  1
  O  O168  1  0.73332400  0.50254941  0.11749894  1
  O  O169  1  0.74441931  0.57998334  0.59226221  1
  O  O170  1  0.75323510  0.99104705  0.13210543  1
  O  O171  1  0.72323658  0.97176102  0.63908031  1
  O  O172  1  0.01291575  0.37199865  0.25587477  1
  O  O173  1  0.00978873  0.36114936  0.76044792  1
  O  O174  1  0.01364776  0.88478772  0.26020424  1
  O  O175  1  0.01269609  0.88905664  0.77601773  1
  O  O176  1  0.50729474  0.37209068  0.25542115  1
  O  O177  1  0.50104763  0.37000053  0.75772516  1
  O  O178  1  0.51974897  0.89807922  0.21381535  1
  O  O179  1  0.48821193  0.87400337  0.74835894  1
  O  O180  1  0.51319782  0.14474167  0.25756097  1
  O  O181  1  0.51286117  0.13313887  0.73477781  1
  O  O182  1  0.48683655  0.62214666  0.23262147  1
  O  O183  1  0.47542702  0.61262982  0.73879383  1
  O  O184  1  0.98462711  0.12958060  0.25996683  1
  O  O185  1  0.98173847  0.12776273  0.76336313  1
  O  O186  1  0.99646900  0.62739375  0.23451630  1
  O  O187  1  1.00775927  0.61893382  0.74444699  1
  O  O188  1  0.37793101  0.26037856  0.01931945  1
  O  O189  1  0.35710368  0.24255359  0.50421712  1
  O  O190  1  0.37074762  0.76342471  -0.00784163  1
  O  O191  1  0.37592240  0.77047100  0.48797651  1
  O  O192  1  0.88272827  0.23872151  0.02785615  1
  O  O193  1  0.89872498  0.27537803  0.50714510  1
  O  O194  1  0.86877432  0.74274049  0.00114719  1
  O  O195  1  0.88024033  0.74736625  0.52076937  1
  O  O196  1  0.13274226  0.22348165  0.49052850  1
  O  O197  1  0.14501687  0.25358296  1.02429389  1
  O  O198  1  0.12277512  0.74499954  0.49346452  1
  O  O199  1  0.12921808  0.73926117  1.00254333  1
  O  O200  1  0.61771979  0.24509621  0.49354312  1
  O  O201  1  0.62459090  0.25334142  0.98700223  1
  O  O202  1  0.64071580  0.72676029  0.47044531  1
  O  O203  1  0.62318951  0.73787579  0.99640657  1
  O  O204  1  0.49157238  0.25228220  0.13318441  1
  O  O205  1  0.49259271  0.24535953  0.62942330  1
  O  O206  1  0.50376038  0.73714282  0.12126270  1
  O  O207  1  0.48681954  0.72399540  0.61324404  1
  O  O208  1  0.98887345  0.24904518  0.14831996  1
  O  O209  1  1.01704124  0.21085976  0.61720156  1
  O  O210  1  1.00798623  0.73620046  0.11965370  1
  O  O211  1  0.99263737  0.72903449  0.62185031  1
  O  O212  1  0.00345767  0.24890154  0.36231737  1
  O  O213  1  -0.01248317  0.26102907  0.88313449  1
  O  O214  1  0.01512703  0.77098086  0.38293864  1
  O  O215  1  0.00078296  0.76826997  0.88479102  1
  O  O216  1  0.48730873  0.26492257  0.36058018  1
  O  O217  1  0.49220020  0.26237847  0.86735260  1
  O  O218  1  0.52660003  0.74590075  0.37375473  1
  O  O219  1  0.49135011  0.76307299  0.86585575  1
  O  O220  1  0.23848443  0.12927252  0.48209169  1
  O  O221  1  0.25455654  0.13402059  1.00338827  1
  O  O222  1  0.24100951  0.62956971  0.49699874  1
  O  O223  1  0.24221399  0.62367563  0.98596101  1
  O  O224  1  0.73589764  0.13018857  0.48665440  1
  O  O225  1  0.72952463  0.13326054  1.00263062  1
  O  O226  1  0.76400962  0.56762471  0.43486618  1
  O  O227  1  0.74486540  0.63748005  0.99812672  1
  O  O228  1  0.26446063  0.36115016  0.00013681  1
  O  O229  1  0.22241071  0.33916390  0.49153056  1
  O  O230  1  0.24804803  0.87342667  0.01361677  1
  O  O231  1  0.25879842  0.88403125  0.51226273  1
  O  O232  1  0.74604492  0.37926107  -0.00716848  1
  O  O233  1  0.76259289  0.37457062  0.50344274  1
  O  O234  1  0.75720886  0.86403552  -0.00162263  1
  O  O235  1  0.74107757  0.87091735  0.53454997  1
  O  O236  1  0.13398496  0.49481896  0.24669543  1
  O  O237  1  0.12837747  0.47295282  0.74878909  1
  O  O238  1  0.13420014  0.98936068  0.24414745  1
  O  O239  1  0.12630787  0.99458556  0.76037332  1
  O  O240  1  0.61561401  0.49449585  0.23307242  1
  O  O241  1  0.61559507  0.48976809  0.75972348  1
  O  O242  1  0.64815490  1.00589772  0.25391582  1
  O  O243  1  0.68363601  1.00785499  0.79462839  1
  O  O244  1  0.36194620  -0.01041412  0.26296813  1
  O  O245  1  0.35894331  0.00031184  0.77244194  1
  O  O246  1  0.36761964  0.50938796  0.25173090  1
  O  O247  1  0.36875497  0.49465151  0.76331235  1
  O  O248  1  0.86809749  0.01460138  0.25009434  1
  O  O249  1  0.87853072  0.03186791  0.70961576  1
  O  O250  1  0.87973112  0.51586692  0.24655533  1
  O  O251  1  0.88709692  0.51280439  0.76061764  1
  O  O252  1  0.13191364  0.38505267  0.36680380  1
  O  O253  1  0.11180493  0.36855104  0.86889885  1
  O  O254  1  0.12614779  0.87119081  0.36415210  1
  O  O255  1  0.12637518  0.87111066  0.87307201  1
  O  O256  1  0.61017469  0.38540450  0.35939013  1
  O  O257  1  0.61106654  0.37027732  0.87030073  1
  O  O258  1  0.62833063  0.84832957  0.38118556  1
  O  O259  1  0.60427398  0.87131760  0.87082557  1
  O  O260  1  0.38516748  0.12385400  0.12040749  1
  O  O261  1  0.39442924  0.13761512  0.61612519  1
  O  O262  1  0.38190114  0.62796217  0.13058887  1
  O  O263  1  0.36810540  0.61559638  0.63934800  1
  O  O264  1  0.86273249  0.13961457  0.15213493  1
  O  O265  1  0.80679294  0.21514410  0.59663382  1
  O  O266  1  0.89703672  0.61783832  0.11539507  1
  O  O267  1  0.89725927  0.61213467  0.63887550  1
  O  O268  1  0.27144769  0.24017109  0.12385118  1
  O  O269  1  0.26382000  0.24219104  0.62830760  1
  O  O270  1  0.24405832  0.76125657  0.12918980  1
  O  O271  1  0.27449453  0.75775423  0.63685342  1
  O  O272  1  0.76717175  0.25986950  0.14331118  1
  O  O273  1  0.75807292  0.26222986  0.62356003  1
  O  O274  1  0.74607738  0.76244884  0.10571656  1
  O  O275  1  0.76597251  0.75749006  0.63092025  1
  O  O276  1  0.26290655  0.24462233  0.36854301  1
  O  O277  1  0.25897060  0.23702574  0.90311152  1
  O  O278  1  0.23392481  0.75762776  0.37837244  1
  O  O279  1  0.24923901  0.73845396  0.87196095  1
  O  O280  1  0.74346201  0.24990605  0.36834057  1
  O  O281  1  0.74022370  0.26084068  0.87070688  1
  O  O282  1  0.73563544  0.74794040  0.36310167  1
  O  O283  1  0.75558241  0.73701857  0.88464743  1
  O  O284  1  -0.00027205  0.11031066  -0.00199178  1
  O  O285  1  0.01421326  0.11219782  0.48220318  1
  O  O286  1  0.02105002  0.62188586  0.00540722  1
  O  O287  1  0.00413127  0.61731996  0.50794978  1
  O  O288  1  0.52632914  0.13298619  -0.00660733  1
  O  O289  1  0.51009695  0.12513138  0.50389509  1
  O  O290  1  0.50091600  0.62123718  0.00355937  1
  O  O291  1  0.48784450  0.60901107  0.50556816  1
  O  O292  1  0.49946067  0.38034951  0.48046235  1
  O  O293  1  0.48727820  0.38136240  0.99507971  1
  O  O294  1  0.50094827  0.89548210  0.50497007  1
  O  O295  1  0.48717741  0.87148738  1.00410026  1
  O  O296  1  1.01946953  0.39557145  0.49673374  1
  O  O297  1  1.00794687  0.37105067  0.99140901  1
  O  O298  1  1.00474229  0.88824658  0.49060070  1
  O  O299  1  0.99954858  0.88819302  0.99315924  1
  O  O300  1  0.49164688  0.49419883  0.37831765  1
  O  O301  1  0.48275552  0.49200755  0.88775621  1
  O  O302  1  0.48819435  1.00356342  0.38386619  1
  O  O303  1  0.48666465  0.98521633  0.86809580  1
  O  O304  1  1.00304915  0.50353101  0.37673287  1
  O  O305  1  0.99458035  0.48825960  0.87838440  1
  O  O306  1  0.99629954  0.98436501  0.38355280  1
  O  O307  1  0.99871643  0.99094818  0.89649560  1
  O  O308  1  0.01359538  -0.00535727  0.11793608  1
  O  O309  1  0.01974701  -0.00928895  0.60718426  1
  O  O310  1  0.02013130  0.51119182  0.12781073  1
  O  O311  1  0.02039990  0.51272687  0.61911879  1
  O  O312  1  0.51739528  -0.02501381  0.18827531  1
  O  O313  1  0.49532206  0.01737027  0.61379553  1
  O  O314  1  0.50397083  0.50956549  0.11171048  1
  O  O315  1  0.48086402  0.49726023  0.60451633  1
  O  O316  1  0.23896790  0.38557098  0.24895916  1
  O  O317  1  0.23448772  0.35511777  0.76173723  1
  O  O318  1  0.24075618  0.88057425  0.24118495  1
  O  O319  1  0.23695995  0.88869440  0.75813150  1
  O  O320  1  0.73167759  0.37903638  0.25590431  1
  O  O321  1  0.73310550  0.37830468  0.75245995  1
  O  O322  1  0.75858553  0.88488405  0.23800503  1
  O  O323  1  0.73697098  0.85198224  0.74833733  1
  O  O324  1  0.25177202  0.10863335  0.24507135  1
  O  O325  1  0.25244770  0.13840440  0.78553436  1
  O  O326  1  0.26290155  0.61938086  0.24576306  1
  O  O327  1  0.25378855  0.62242350  0.76319562  1
  O  O328  1  0.75385563  0.11723197  0.26873879  1
  O  O329  1  0.76578828  0.13314530  0.73288450  1
  O  O330  1  0.77402994  0.63144899  0.23703170  1
  O  O331  1  0.76874608  0.62174629  0.76498329  1
  O  O332  1  0.37560746  0.11077159  0.37489762  1
  O  O333  1  0.38716757  0.11100470  0.88942552  1
  O  O334  1  0.38702243  0.61610397  0.35705817  1
  O  O335  1  0.36288558  0.61190065  0.86813478  1
  O  O336  1  0.85826921  0.13653109  0.36978673  1
  O  O337  1  0.85840963  0.11830718  0.86768800  1
  O  O338  1  0.89118596  0.63345358  0.36075957  1
  O  O339  1  0.88020949  0.61764842  0.86878022  1
  O  O340  1  0.12112566  0.38836711  0.13198491  1
  O  O341  1  0.12048217  0.36432667  0.63825492  1
  O  O342  1  0.13015477  0.87746003  0.13659757  1
  O  O343  1  0.11699416  0.84255126  0.66021368  1
  O  O344  1  0.62207505  0.38920808  0.12994180  1
  O  O345  1  0.61724846  0.37698049  0.63959437  1
  O  O346  1  0.64729735  0.88374222  0.11132697  1
  O  O347  1  0.61374522  0.84953330  0.63886693  1
  O  O348  1  0.11868766  0.26831606  0.24746595  1
  O  O349  1  0.11874682  0.24790563  0.74445548  1
  O  O350  1  0.12605086  0.76177146  0.25981655  1
  O  O351  1  0.11999404  0.78197046  0.71954211  1
  O  O352  1  0.61333329  0.26808575  0.23709200  1
  O  O353  1  0.61185606  0.26292984  0.76194582  1
  O  O354  1  0.63175560  0.75094510  0.26233892  1
  O  O355  1  0.63290462  0.70014894  0.74468822  1
  O  O356  1  0.38776812  0.25012017  0.23463429  1
  O  O357  1  0.38656497  0.25140538  0.73918122  1
  O  O358  1  0.36873890  0.74200910  0.25871443  1
  O  O359  1  0.37068480  0.73507136  0.75244972  1
  O  O360  1  0.88860022  0.24987167  0.25398093  1
  O  O361  1  0.88062937  0.23541789  0.74652648  1
  O  O362  1  0.86808089  0.72663068  0.23058674  1
  O  O363  1  0.88236120  0.72536031  0.73766137  1
  O  O364  1  0.37806747  0.50426374  0.47740138  1
  O  O365  1  0.37498326  0.49090992  0.99724331  1
  O  O366  1  0.37885628  1.00080060  0.49247520  1
  O  O367  1  0.36879580  0.98164491  0.98750441  1
  O  O368  1  0.89706793  0.49444077  0.49573028  1
  O  O369  1  0.87946162  0.50058749  0.98632904  1
  O  O370  1  0.89183391  1.01570751  0.52017559  1
  O  O371  1  0.88194274  1.00788302  1.01522417  1
  O  O372  1  0.12930436  0.00284835  0.01934691  1
  O  O373  1  0.12275459  0.01603356  0.48915900  1
  O  O374  1  0.13598054  0.49900172  0.01159769  1
  O  O375  1  0.11764487  0.52618002  0.48187706  1
  O  O376  1  0.62558314  0.01151393  0.00448340  1
  O  O377  1  0.61092078  0.01152055  0.48951862  1
  O  O378  1  0.61373695  0.50935165  0.00616156  1
  O  O379  1  0.60509036  0.49477337  0.49523073  1
  O  O380  1  0.37610923  0.38289038  0.11704598  1
  O  O381  1  0.37627825  0.35748284  0.61932688  1
  O  O382  1  0.35855654  0.87466192  0.11232026  1
  O  O383  1  0.39342995  0.88077756  0.60867526  1
  O  O384  1  0.87705356  0.36596794  0.13417462  1
  O  O385  1  0.87346242  0.40712503  0.61192977  1
  O  O386  1  0.86367279  0.87501689  0.12497671  1
  O  O387  1  0.88994896  0.86159751  0.64048323  1
  O  O388  1  0.12772590  0.12207320  0.35999087  1
  O  O389  1  0.12995406  0.12191530  0.88676188  1
  O  O390  1  0.12015804  0.64454214  0.38079963  1
  O  O391  1  0.13538038  0.61881736  0.88446429  1
  O  O392  1  0.63516065  0.12803270  0.38273248  1
  O  O393  1  0.62721921  0.14620691  0.87008604  1
  O  O394  1  0.62657001  0.64006719  0.35433122  1
  O  O395  1  0.64494913  0.61252902  0.88350965  1
