# generated using pymatgen
data_V35Zn35O128
_symmetry_space_group_name_H-M   'P 1'
_cell_length_a   16.83995742
_cell_length_b   16.86148066
_cell_length_c   16.84892325
_cell_angle_alpha   90.14816129
_cell_angle_beta   90.07043443
_cell_angle_gamma   89.93668819
_symmetry_Int_Tables_number   1
_chemical_formula_structural   V35Zn35O128
_chemical_formula_sum   'V70 Zn70 O256'
_cell_volume   4784.17223181
_cell_formula_units_Z   2
loop_
 _symmetry_equiv_pos_site_id
 _symmetry_equiv_pos_as_xyz
  1  'x, y, z'
loop_
 _atom_site_type_symbol
 _atom_site_label
 _atom_site_symmetry_multiplicity
 _atom_site_fract_x
 _atom_site_fract_y
 _atom_site_fract_z
 _atom_site_occupancy
  V  V0  1  0.23053879  0.49703056  0.25626518  1
  V  V1  1  0.75205758  0.86383314  0.11834498  1
  V  V2  1  0.74453390  0.63199681  0.89648084  1
  V  V3  1  0.23768558  0.63478817  0.38525374  1
  V  V4  1  0.89306332  0.12435821  0.75116322  1
  V  V5  1  0.63051745  0.37504653  0.24364975  1
  V  V6  1  0.38718943  0.49816099  0.38430219  1
  V  V7  1  0.06263970  0.04798938  0.07985523  1
  V  V8  1  0.88100873  0.50075292  0.85659326  1
  V  V9  1  0.37353077  0.12773638  0.74095557  1
  V  V10  1  0.49467405  0.74729396  0.25367981  1
  V  V11  1  0.75271334  0.25758148  0.49936167  1
  V  V12  1  0.25910195  0.36980510  0.61324454  1
  V  V13  1  0.49869521  0.13346883  0.62052789  1
  V  V14  1  0.12208059  0.62344288  0.52046548  1
  V  V15  1  0.76118993  0.85578539  0.62202583  1
  V  V16  1  0.25894120  0.87222687  0.62255297  1
  V  V17  1  0.13126376  0.24356169  0.86263534  1
  V  V18  1  -0.00629172  0.75471384  0.74507242  1
  V  V19  1  0.36906908  0.62130301  0.24987311  1
  V  V20  1  0.38421161  0.63561986  0.74981181  1
  V  V21  1  0.22631774  0.38485047  0.12739934  1
  V  V22  1  0.87266360  0.85990776  -0.00053311  1
  V  V23  1  0.50490776  0.62225190  0.12213122  1
  V  V24  1  0.49451750  0.38003977  0.87290609  1
  V  V25  1  0.40297106  -0.01391598  0.87222129  1
  V  V26  1  0.62025675  0.25143377  0.87001659  1
  V  V27  1  -0.01561701  0.62386461  0.63484335  1
  V  V28  1  0.48790129  0.00421945  0.50026285  1
  V  V29  1  0.63540549  0.12038660  0.49587097  1
  V  V30  1  0.23298290  0.75630841  -0.01286645  1
  V  V31  1  0.51457949  0.50374005  0.00118054  1
  V  V32  1  0.39642928  0.36197544  0.49254898  1
  V  V33  1  0.25198129  0.10901189  0.86629461  1
  V  V34  1  0.87487409  0.00499117  0.88491241  1
  V  V35  1  0.12292220  0.38460066  0.74165969  1
  V  V36  1  0.13848051  0.87642461  0.75128058  1
  V  V37  1  0.87741911  0.24653678  0.11881424  1
  V  V38  1  0.74271573  0.36253232  0.64765995  1
  V  V39  1  0.37695772  0.24676833  0.12982731  1
  V  V40  1  0.25839621  0.10051618  0.37219529  1
  V  V41  1  0.49984148  0.63234546  0.61214808  1
  V  V42  1  0.07989255  0.58770124  0.00233240  1
  V  V43  1  0.59752668  0.12229050  0.00295143  1
  V  V44  1  0.26323428  0.50321134  0.75871611  1
  V  V45  1  0.36316221  0.39858956  0.00378422  1
  V  V46  1  0.88261270  0.12471521  0.25296843  1
  V  V47  1  0.14021039  0.25934147  0.38449712  1
  V  V48  1  0.63313916  0.74177872  0.38268455  1
  V  V49  1  0.73293140  0.50574909  0.76145553  1
  V  V50  1  -0.00789644  0.28111694  0.25901672  1
  V  V51  1  0.49565126  0.88199001  0.37745141  1
  V  V52  1  0.03416880  0.88076171  0.36347539  1
  V  V53  1  0.62499234  0.88027733  0.24933997  1
  V  V54  1  0.62028782  0.85916163  0.75903910  1
  V  V55  1  0.61716164  0.49674457  0.62054704  1
  V  V56  1  0.37550231  0.85574601  0.50253769  1
  V  V57  1  0.75100838  0.00367260  0.25273021  1
  V  V58  1  -0.01993385  0.75532084  0.23690766  1
  V  V59  1  0.75076825  0.23498765  -0.00452148  1
  V  V60  1  0.36467188  0.75529001  0.11609027  1
  V  V61  1  0.88477151  0.88130957  0.47807465  1
  V  V62  1  0.74742678  0.00914027  0.74776352  1
  V  V63  1  0.23878383  0.89187550  0.13839093  1
  V  V64  1  0.86710444  0.37897478  -0.00554424  1
  V  V65  1  0.88804523  0.24487066  0.63251266  1
  V  V66  1  0.23766710  0.21968840  0.01963064  1
  V  V67  1  0.00249590  0.36728762  0.87581700  1
  V  V68  1  0.11592734  0.00510989  0.61986984  1
  V  V69  1  0.01114422  0.87355646  0.88176966  1
  Zn  Zn70  1  0.62034038  0.00584433  0.11857677  1
  Zn  Zn71  1  0.62430199  -0.00530261  0.62660862  1
  Zn  Zn72  1  0.75113523  0.13051112  0.37016198  1
  Zn  Zn73  1  -0.00436798  0.38921280  0.41968809  1
  Zn  Zn74  1  0.49602116  0.26064797  0.73749260  1
  Zn  Zn75  1  0.11339752  0.11527048  0.49092691  1
  Zn  Zn76  1  0.22361437  0.09389072  0.17617309  1
  Zn  Zn77  1  0.19244100  0.18881556  0.68014968  1
  Zn  Zn78  1  0.17675349  0.67702375  0.17230264  1
  Zn  Zn79  1  0.19189881  0.69308879  0.69479370  1
  Zn  Zn80  1  0.69171367  0.18596200  0.17435592  1
  Zn  Zn81  1  0.68297121  0.17924831  0.69166981  1
  Zn  Zn82  1  0.68202040  0.69197468  0.18937428  1
  Zn  Zn83  1  0.68086426  0.68433517  0.68927715  1
  Zn  Zn84  1  0.31385684  0.31541855  0.30876478  1
  Zn  Zn85  1  0.31047401  0.31125723  0.81443217  1
  Zn  Zn86  1  0.30683142  0.81651325  0.31624092  1
  Zn  Zn87  1  0.32262599  0.81066063  0.80983386  1
  Zn  Zn88  1  0.82803355  0.31979466  0.31922908  1
  Zn  Zn89  1  0.81142815  0.30545290  0.81431671  1
  Zn  Zn90  1  0.81686953  0.80609074  0.31161190  1
  Zn  Zn91  1  0.80581047  0.81411513  0.81196319  1
  Zn  Zn92  1  0.18071539  0.44562619  0.44287402  1
  Zn  Zn93  1  0.17833494  0.44387413  0.93287912  1
  Zn  Zn94  1  0.19093049  0.93734366  0.43906691  1
  Zn  Zn95  1  0.19750613  0.93824606  0.95231289  1
  Zn  Zn96  1  0.74719706  0.45823158  0.45551155  1
  Zn  Zn97  1  0.68606970  0.43438661  0.93923024  1
  Zn  Zn98  1  0.69157966  0.93133239  0.44095311  1
  Zn  Zn99  1  0.68657280  0.94278165  0.93335334  1
  Zn  Zn100  1  0.33809142  0.05450958  0.05143305  1
  Zn  Zn101  1  0.29783963  0.06250945  0.56042160  1
  Zn  Zn102  1  0.26888539  0.57705073  0.06952641  1
  Zn  Zn103  1  0.30884601  0.55641977  0.56868685  1
  Zn  Zn104  1  0.81166973  0.05867015  0.07038859  1
  Zn  Zn105  1  0.82571657  0.05698014  0.56524381  1
  Zn  Zn106  1  0.86954134  0.58501699  0.04167729  1
  Zn  Zn107  1  0.82115577  0.55767402  0.61166535  1
  Zn  Zn108  1  0.43271072  0.44122220  0.18701874  1
  Zn  Zn109  1  0.43085568  0.43922916  0.68171019  1
  Zn  Zn110  1  0.43119821  0.93277035  0.18703297  1
  Zn  Zn111  1  0.43810087  0.94237441  0.69000771  1
  Zn  Zn112  1  1.00809789  0.39196877  0.11804145  1
  Zn  Zn113  1  0.95415244  0.41987726  0.63041229  1
  Zn  Zn114  1  0.93786399  0.93674408  0.18990823  1
  Zn  Zn115  1  0.93819726  0.93737202  0.69043635  1
  Zn  Zn116  1  0.07742992  0.07442416  0.29170098  1
  Zn  Zn117  1  0.06512968  0.05201938  0.81243598  1
  Zn  Zn118  1  0.05167958  0.56433638  0.32047500  1
  Zn  Zn119  1  0.06787362  0.56527772  0.81153704  1
  Zn  Zn120  1  0.55755952  0.07212405  0.31146120  1
  Zn  Zn121  1  0.56280410  0.06945548  0.81009380  1
  Zn  Zn122  1  0.58591856  0.54713074  0.42819940  1
  Zn  Zn123  1  0.55958622  0.57419321  0.81517736  1
  Zn  Zn124  1  0.44378862  0.18255754  0.41276631  1
  Zn  Zn125  1  0.42179672  0.19602388  0.93889451  1
  Zn  Zn126  1  0.44433264  0.67905666  0.43681310  1
  Zn  Zn127  1  0.38514662  0.64721946  0.95871589  1
  Zn  Zn128  1  0.93733437  0.19314194  0.43475839  1
  Zn  Zn129  1  0.95174459  0.17937187  0.94366910  1
  Zn  Zn130  1  0.98318240  0.72241525  0.45666417  1
  Zn  Zn131  1  0.93987722  0.68841828  0.92050047  1
  Zn  Zn132  1  0.07765384  0.22265189  0.07575205  1
  Zn  Zn133  1  0.06973794  0.30734904  0.56311806  1
  Zn  Zn134  1  0.06478015  0.82235456  0.06885325  1
  Zn  Zn135  1  0.06724490  0.81710922  0.55992091  1
  Zn  Zn136  1  0.55594583  0.30987950  0.05711693  1
  Zn  Zn137  1  0.57086079  0.31227950  0.55594036  1
  Zn  Zn138  1  0.54964367  0.81943261  0.07122030  1
  Zn  Zn139  1  0.57169276  0.81521240  0.56757428  1
  O  O140  1  0.17976322  0.16465088  0.09037223  1
  O  O141  1  0.13333925  0.10847176  0.62785062  1
  O  O142  1  0.14506127  0.61122422  0.08305604  1
  O  O143  1  0.12651690  0.62608656  0.62297617  1
  O  O144  1  0.61792048  0.12765177  0.10913737  1
  O  O145  1  0.61638499  0.11992315  0.61682490  1
  O  O146  1  0.60364042  0.63654088  0.12464852  1
  O  O147  1  0.61510167  0.60623176  0.63184889  1
  O  O148  1  0.37241968  0.38821318  0.38197278  1
  O  O149  1  0.38328023  0.37018437  0.89537220  1
  O  O150  1  0.38329856  0.86992084  0.39022064  1
  O  O151  1  0.39407374  0.88820363  0.84626388  1
  O  O152  1  0.85341417  0.42399807  0.37459475  1
  O  O153  1  0.88262473  0.37448854  0.87377885  1
  O  O154  1  0.86785074  0.88518468  0.37724748  1
  O  O155  1  0.87934750  0.88181189  0.88656216  1
  O  O156  1  0.24190556  0.00039173  0.36007040  1
  O  O157  1  0.24210486  0.00928730  0.86929926  1
  O  O158  1  0.25377626  0.50727173  0.36504875  1
  O  O159  1  0.24795497  0.49862391  0.85959162  1
  O  O160  1  0.74285237  -0.00295221  0.35585557  1
  O  O161  1  0.76828975  -0.00849096  0.86076066  1
  O  O162  1  0.68386664  0.50447159  0.37696852  1
  O  O163  1  0.75371318  0.49908683  0.86980870  1
  O  O164  1  0.25044525  0.49490206  0.14355735  1
  O  O165  1  0.25562505  0.48143433  0.63974774  1
  O  O166  1  0.26619155  0.99394492  0.12580518  1
  O  O167  1  0.23963324  0.98223727  0.62346412  1
  O  O168  1  0.78393611  0.56008324  0.19059683  1
  O  O169  1  0.74215143  0.48436000  0.64575790  1
  O  O170  1  0.74287681  0.99128830  0.13474877  1
  O  O171  1  0.75438652  0.99639446  0.64120562  1
  O  O172  1  -0.01104322  0.37900410  0.24116229  1
  O  O173  1  0.01943468  0.37467711  0.75181441  1
  O  O174  1  -0.00260835  0.86553714  0.25356129  1
  O  O175  1  0.00946916  0.86989567  0.76072272  1
  O  O176  1  0.52451608  0.38040051  0.23471029  1
  O  O177  1  0.48529288  0.37627531  0.76932689  1
  O  O178  1  0.50190630  0.87001558  0.25700045  1
  O  O179  1  0.52425616  0.88375380  0.73392781  1
  O  O180  1  0.46082202  0.08228577  0.22295080  1
  O  O181  1  0.49361993  0.12956910  0.73654201  1
  O  O182  1  0.48610117  0.63302627  0.23659593  1
  O  O183  1  0.49282112  0.61744699  0.73249715  1
  O  O184  1  0.98252844  0.14177816  0.25504578  1
  O  O185  1  0.99201955  0.12099318  0.75239075  1
  O  O186  1  1.02556047  0.64723522  0.24037627  1
  O  O187  1  1.01565434  0.64589381  0.74683094  1
  O  O188  1  0.34542882  0.25961027  0.00594996  1
  O  O189  1  0.39025765  0.26304631  0.47661131  1
  O  O190  1  0.37886706  0.75497519  0.01608616  1
  O  O191  1  0.38324442  0.75752594  0.50246911  1
  O  O192  1  0.86753765  0.24955175  -0.00510390  1
  O  O193  1  0.85964538  0.23546845  0.52468874  1
  O  O194  1  0.87330277  0.76214074  -0.00693722  1
  O  O195  1  0.89313452  0.78096488  0.50448879  1
  O  O196  1  0.11453900  0.23931663  0.48596535  1
  O  O197  1  0.14598660  0.26182680  0.98304518  1
  O  O198  1  0.10575537  0.72821320  0.49487980  1
  O  O199  1  0.13280435  0.75376719  1.00167382  1
  O  O200  1  0.64226179  0.23533128  0.50488500  1
  O  O201  1  0.63295595  0.24068598  0.99834212  1
  O  O202  1  0.62739168  0.76204673  0.48180861  1
  O  O203  1  0.58637060  0.75940313  0.97006645  1
  O  O204  1  0.47534110  0.24757471  0.10546565  1
  O  O205  1  0.50689515  0.23927550  0.62077805  1
  O  O206  1  0.48510175  0.74402666  0.13277440  1
  O  O207  1  0.50862544  0.73170347  0.61568223  1
  O  O208  1  0.99361801  0.26361257  0.14018053  1
  O  O209  1  0.98609173  0.25031396  0.63100110  1
  O  O210  1  0.99271116  0.76620084  0.13541438  1
  O  O211  1  1.00515957  0.75196012  0.64035334  1
  O  O212  1  -0.04821361  0.28698880  0.36418259  1
  O  O213  1  0.02188877  0.24957693  0.87810294  1
  O  O214  1  -0.00316302  0.76756932  0.35336435  1
  O  O215  1  0.00481137  0.76693737  0.86789491  1
  O  O216  1  0.50827527  0.17448784  0.32211439  1
  O  O217  1  0.50402245  0.26560812  0.88596464  1
  O  O218  1  0.50209780  0.76077145  0.36813554  1
  O  O219  1  0.53508324  0.75633640  0.91574639  1
  O  O220  1  0.23249675  0.11323241  0.48255272  1
  O  O221  1  0.26172462  0.12315050  0.97552441  1
  O  O222  1  0.23947713  0.62140703  0.49408262  1
  O  O223  1  0.27155143  0.65176731  0.98701054  1
  O  O224  1  0.74416222  0.12506293  0.50650950  1
  O  O225  1  0.75240369  0.13448106  0.99532002  1
  O  O226  1  0.77761879  0.65320182  0.48607698  1
  O  O227  1  0.76923970  0.61926605  0.99617829  1
  O  O228  1  0.25376002  0.40045711  0.01349351  1
  O  O229  1  0.25001587  0.38065848  0.51143432  1
  O  O230  1  0.24948457  0.86274413  0.02168644  1
  O  O231  1  0.26827713  0.87528441  0.50611414  1
  O  O232  1  0.76261974  0.36256849  -0.00994280  1
  O  O233  1  0.75263771  0.36106779  0.51925383  1
  O  O234  1  0.75601802  0.87817186  0.00853811  1
  O  O235  1  0.76441196  0.87931265  0.51413795  1
  O  O236  1  0.13132908  0.50198533  0.25878386  1
  O  O237  1  0.13550840  0.48922974  0.75267759  1
  O  O238  1  0.10583744  1.06126040  0.17676650  1
  O  O239  1  0.12490084  0.98415545  0.74193551  1
  O  O240  1  0.64226885  0.47618590  0.23659537  1
  O  O241  1  0.62995843  0.49544432  0.74952156  1
  O  O242  1  0.62427789  0.99385816  0.24565918  1
  O  O243  1  0.64073801  1.00472449  0.75203127  1
  O  O244  1  0.40117802  0.03561414  0.23728669  1
  O  O245  1  0.38345793  0.01828272  0.75968176  1
  O  O246  1  0.37033280  0.50705451  0.26013601  1
  O  O247  1  0.36805580  0.50324156  0.75275462  1
  O  O248  1  0.86824914  0.01806062  0.23935093  1
  O  O249  1  0.87069191  0.01111932  0.75685810  1
  O  O250  1  0.88999395  0.48648570  0.33554311  1
  O  O251  1  0.85401782  0.48918452  0.75840286  1
  O  O252  1  0.11174197  0.36475191  0.39328372  1
  O  O253  1  0.12196515  0.36556932  0.86335531  1
  O  O254  1  0.13211642  0.86093729  0.37240408  1
  O  O255  1  0.11612327  0.88940051  0.86953935  1
  O  O256  1  0.61405836  0.37048285  0.34501601  1
  O  O257  1  0.60747251  0.36421567  0.88639662  1
  O  O258  1  0.61696872  0.87018798  0.36424328  1
  O  O259  1  0.63158534  0.87900486  0.85906429  1
  O  O260  1  0.34270304  0.14723688  0.11752654  1
  O  O261  1  0.37859553  0.12092124  0.63390385  1
  O  O262  1  0.37065533  0.63629415  0.13500522  1
  O  O263  1  0.39348184  0.61320476  0.62584236  1
  O  O264  1  0.87250077  0.13856961  0.13249031  1
  O  O265  1  0.87366506  0.13172306  0.64220000  1
  O  O266  1  0.92332808  0.54129808  0.14383526  1
  O  O267  1  0.88488675  0.64333745  0.63764582  1
  O  O268  1  0.25653978  0.28333151  0.11808578  1
  O  O269  1  0.25494080  0.26906323  0.62982246  1
  O  O270  1  0.25515484  0.75094925  0.12213201  1
  O  O271  1  0.24299987  0.77202756  0.62452246  1
  O  O272  1  0.76153441  0.25075684  0.10366219  1
  O  O273  1  0.74637592  0.25584789  0.63044491  1
  O  O274  1  0.74639915  0.76409685  0.12774884  1
  O  O275  1  0.74753252  0.75612496  0.62849505  1
  O  O276  1  0.23992248  0.26449494  0.37829354  1
  O  O277  1  0.24264813  0.23798427  0.87926203  1
  O  O278  1  0.25425516  0.73239720  0.37273452  1
  O  O279  1  0.24934091  0.77499033  0.88947456  1
  O  O280  1  0.76457263  0.25717671  0.39668890  1
  O  O281  1  0.73101454  0.25526630  0.88369073  1
  O  O282  1  0.73106083  0.74609701  0.35373084  1
  O  O283  1  0.76036004  0.72912461  0.87413853  1
  O  O284  1  0.01864670  0.13237041  0.02670158  1
  O  O285  1  -0.00001840  0.12262124  0.49099553  1
  O  O286  1  -0.02256359  0.62142830  0.00773776  1
  O  O287  1  0.00199240  0.62760173  0.52734375  1
  O  O288  1  0.49763371  0.12666627  -0.00104530  1
  O  O289  1  0.51201828  0.12091797  0.50129685  1
  O  O290  1  0.48843554  0.61381410  0.01007068  1
  O  O291  1  0.50776356  0.61295735  0.50730814  1
  O  O292  1  0.49577181  0.37597738  0.49749155  1
  O  O293  1  0.48939302  0.39182815  1.00041109  1
  O  O294  1  0.49141371  0.88208605  0.49872591  1
  O  O295  1  0.49921939  0.91767190  1.03614390  1
  O  O296  1  0.99114178  0.38151295  0.53100166  1
  O  O297  1  0.98749286  0.36645235  0.98030150  1
  O  O298  1  1.00344842  0.87672002  0.47098312  1
  O  O299  1  0.98884619  0.87097717  0.98858413  1
  O  O300  1  0.48611030  0.50703292  0.37732047  1
  O  O301  1  0.50620031  0.49090144  0.88880704  1
  O  O302  1  0.50685124  0.98799814  0.38358934  1
  O  O303  1  0.50193662  1.00246320  0.87719194  1
  O  O304  1  0.96980886  0.49501219  0.36856438  1
  O  O305  1  0.98564416  0.48751727  0.85699523  1
  O  O306  1  1.03212469  0.98235942  0.34504575  1
  O  O307  1  0.98593847  0.98496840  0.87012367  1
  O  O308  1  -0.01566952  -0.01106211  0.10042050  1
  O  O309  1  0.01543892  -0.00613080  0.63125419  1
  O  O310  1  -0.00585650  0.51290489  0.12899271  1
  O  O311  1  -0.01304617  0.52401648  0.65194637  1
  O  O312  1  0.50069768  -0.02759027  0.09829024  1
  O  O313  1  0.50217048  0.01313874  0.61478514  1
  O  O314  1  0.49412919  0.51432490  0.11800406  1
  O  O315  1  0.51541738  0.49025057  0.62441122  1
  O  O316  1  0.24650164  0.38909680  0.24016739  1
  O  O317  1  0.24816911  0.38345763  0.74757447  1
  O  O318  1  0.25346071  0.87572704  0.23817142  1
  O  O319  1  0.24425432  0.87441535  0.74216243  1
  O  O320  1  0.73590195  0.37099311  0.25099506  1
  O  O321  1  0.74136726  0.37500349  0.75090187  1
  O  O322  1  0.74367419  0.88118880  0.23854831  1
  O  O323  1  0.74185864  0.88148433  0.74228699  1
  O  O324  1  0.25064594  0.13827461  0.27429744  1
  O  O325  1  0.26415929  0.12817337  0.75484786  1
  O  O326  1  0.25126647  0.61486901  0.25541127  1
  O  O327  1  0.26480970  0.61228591  0.73789216  1
  O  O328  1  0.75297413  0.12081393  0.24701648  1
  O  O329  1  0.75713446  0.11316224  0.75347431  1
  O  O330  1  0.75031139  0.60624380  0.23934402  1
  O  O331  1  0.74481373  0.60733044  0.75496386  1
  O  O332  1  0.35799597  0.11187322  0.38937874  1
  O  O333  1  0.36727869  0.11622883  0.86449188  1
  O  O334  1  0.36507206  0.61604158  0.37038230  1
  O  O335  1  0.39449691  0.62764479  0.85007288  1
  O  O336  1  0.86657036  0.13504928  0.35637333  1
  O  O337  1  0.88636640  0.11261117  0.87014884  1
  O  O338  1  0.82715306  0.60755368  0.45505872  1
  O  O339  1  0.86833138  0.60480935  0.87173937  1
  O  O340  1  0.12715600  0.37836664  0.11963557  1
  O  O341  1  0.13698388  0.36934262  0.63798366  1
  O  O342  1  0.13795918  0.88463554  0.13253274  1
  O  O343  1  0.13272826  0.88125949  0.63445369  1
  O  O344  1  0.62606345  0.36587029  0.13584304  1
  O  O345  1  0.63643011  0.37824475  0.62927653  1
  O  O346  1  0.63349870  0.87522361  0.13227596  1
  O  O347  1  0.64320464  0.87857889  0.63233509  1
  O  O348  1  0.09065108  0.25933612  0.28137966  1
  O  O349  1  0.13746503  0.26075114  0.75918642  1
  O  O350  1  0.09152822  0.70421393  0.24488044  1
  O  O351  1  0.12194889  0.77047669  0.75289236  1
  O  O352  1  0.63734637  0.26769285  0.23899736  1
  O  O353  1  0.61637087  0.24452516  0.76634683  1
  O  O354  1  0.60986119  0.76112462  0.25117480  1
  O  O355  1  0.62433424  0.75785969  0.75441769  1
  O  O356  1  0.37584695  0.26621696  0.22963549  1
  O  O357  1  0.38163213  0.23416517  0.76001885  1
  O  O358  1  0.37961851  0.74175473  0.25059381  1
  O  O359  1  0.36866335  0.73451759  0.73813078  1
  O  O360  1  0.87292136  0.24940794  0.23567831  1
  O  O361  1  0.87149291  0.23233556  0.74910060  1
  O  O362  1  0.87966152  0.73749273  0.24457240  1
  O  O363  1  0.89473146  0.75727003  0.75973031  1
  O  O364  1  0.36959797  0.49451280  0.48668816  1
  O  O365  1  0.37716614  0.49853917  1.00251094  1
  O  O366  1  0.38662635  0.99793294  0.50544692  1
  O  O367  1  0.36857421  0.98896113  0.96907923  1
  O  O368  1  0.83288541  0.52528530  0.50065096  1
  O  O369  1  0.86997876  0.48192249  0.97965106  1
  O  O370  1  0.88755151  0.97898491  0.51567307  1
  O  O371  1  0.86729492  0.99805356  0.98710416  1
  O  O372  1  0.12281994  0.00218638  0.01266182  1
  O  O373  1  0.12334925  -0.00790446  0.51544758  1
  O  O374  1  0.09192509  0.48662958  -0.00372961  1
  O  O375  1  0.11249689  0.52331523  0.49265045  1
  O  O376  1  0.62950553  0.02197372  -0.00555361  1
  O  O377  1  0.62097494  0.00826896  0.50317936  1
  O  O378  1  0.61372625  0.49615137  0.00753549  1
  O  O379  1  0.63986118  0.49450565  0.52092733  1
  O  O380  1  0.37435781  0.37552473  0.11021951  1
  O  O381  1  0.37250102  0.37471225  0.60376022  1
  O  O382  1  0.36475439  0.85849081  0.13424396  1
  O  O383  1  0.36906417  0.87874671  0.61670972  1
  O  O384  1  0.88562832  0.36636315  0.09781549  1
  O  O385  1  0.85873678  0.35384817  0.64287159  1
  O  O386  1  0.86178082  0.87911692  0.11125918  1
  O  O387  1  0.86069417  0.87102471  0.64084383  1
  O  O388  1  0.13141813  0.14152283  0.37031259  1
  O  O389  1  0.13756473  0.13301963  0.86074851  1
  O  O390  1  0.13577169  0.62367276  0.37852212  1
  O  O391  1  0.10783725  0.61528328  0.90812630  1
  O  O392  1  0.63613440  0.11887761  0.39245829  1
  O  O393  1  0.61124682  0.14436687  0.88845971  1
  O  O394  1  0.60684492  0.64526964  0.37081391  1
  O  O395  1  0.64362398  0.61580765  0.88389213  1
