# generated using pymatgen
data_V35Zn35O128
_symmetry_space_group_name_H-M   'P 1'
_cell_length_a   16.85364340
_cell_length_b   16.88584480
_cell_length_c   16.85661806
_cell_angle_alpha   89.96334284
_cell_angle_beta   90.17897883
_cell_angle_gamma   89.73176189
_symmetry_Int_Tables_number   1
_chemical_formula_structural   V35Zn35O128
_chemical_formula_sum   'V70 Zn70 O256'
_cell_volume   4797.11433111
_cell_formula_units_Z   2
loop_
 _symmetry_equiv_pos_site_id
 _symmetry_equiv_pos_as_xyz
  1  'x, y, z'
loop_
 _atom_site_type_symbol
 _atom_site_label
 _atom_site_symmetry_multiplicity
 _atom_site_fract_x
 _atom_site_fract_y
 _atom_site_fract_z
 _atom_site_occupancy
  V  V0  1  0.76781357  0.38296480  0.61337409  1
  V  V1  1  0.63090803  0.60977093  0.00146305  1
  V  V2  1  0.85400464  0.24981809  0.12451171  1
  V  V3  1  0.75659032  0.86902295  0.62515902  1
  V  V4  1  0.62701157  0.74520408  0.87737898  1
  V  V5  1  0.84956955  0.01668548  0.41313037  1
  V  V6  1  0.25680373  0.00413697  0.77310408  1
  V  V7  1  -0.00140655  0.49093411  0.50600628  1
  V  V8  1  0.62141790  0.37399476  0.75028200  1
  V  V9  1  0.13617150  0.12859796  -0.00278710  1
  V  V10  1  0.48615733  0.13001217  0.63565889  1
  V  V11  1  0.76490944  0.74887778  0.50433867  1
  V  V12  1  0.22990817  0.75054977  0.50072839  1
  V  V13  1  0.25173986  0.61350494  0.38540945  1
  V  V14  1  0.50764437  0.75531147  0.24983782  1
  V  V15  1  0.62254922  0.00123645  0.61808959  1
  V  V16  1  -0.00203286  0.01185400  -0.00555342  1
  V  V17  1  0.37285334  0.61477968  0.75558008  1
  V  V18  1  0.27151097  0.36755631  0.11975134  1
  V  V19  1  0.12239309  0.86512904  0.76671761  1
  V  V20  1  0.47499080  0.87394284  0.38375158  1
  V  V21  1  0.37091269  0.11821590  0.23917193  1
  V  V22  1  0.62758224  0.76200889  0.38243328  1
  V  V23  1  0.62039591  0.23868932  0.37242138  1
  V  V24  1  0.49853836  0.62479379  0.61438100  1
  V  V25  1  0.39410758  0.00827079  0.87952980  1
  V  V26  1  0.88828098  0.24472480  0.61922856  1
  V  V27  1  0.62689991  0.50214374  0.61513589  1
  V  V28  1  0.37368132  0.38197540  -0.04620168  1
  V  V29  1  0.75097557  0.61668389  0.36817591  1
  V  V30  1  0.00598000  0.23553407  0.24399960  1
  V  V31  1  0.24997802  0.24586485  0.47650778  1
  V  V32  1  0.88659284  0.61564739  0.25689536  1
  V  V33  1  0.00772883  0.02218664  0.51210562  1
  V  V34  1  0.75008082  0.24039328  -0.02458012  1
  V  V35  1  0.50204433  0.38487407  0.37556258  1
  V  V36  1  0.39487226  0.87065042  -0.00934349  1
  V  V37  1  0.49868450  0.75225555  0.75635785  1
  V  V38  1  0.88230143  0.75172432  0.13059832  1
  V  V39  1  0.11992280  0.62130350  0.00804018  1
  V  V40  1  0.37862042  0.74519292  0.13276200  1
  V  V41  1  -0.03003027  0.37791774  0.36765325  1
  V  V42  1  0.76063329  0.50034623  0.76226814  1
  V  V43  1  0.12802375  0.25479876  0.88066704  1
  V  V44  1  0.62299313  0.02797492  0.10367315  1
  V  V45  1  0.74899314  0.23630743  0.50143790  1
  V  V46  1  0.12559127  -0.00341844  0.12754746  1
  V  V47  1  0.13096765  0.37233611  0.25672791  1
  V  V48  1  0.24208314  0.87999350  0.62836190  1
  V  V49  1  0.00438056  0.63878629  0.62329074  1
  V  V50  1  0.62498475  0.87912526  0.75480279  1
  V  V51  1  0.37215691  0.75746346  0.62207410  1
  V  V52  1  0.25002995  0.74883894  -0.00978041  1
  V  V53  1  0.50022999  0.60233981  0.13391650  1
  V  V54  1  0.86640790  0.00825799  0.85392656  1
  V  V55  1  0.12952812  0.04046566  0.64130081  1
  V  V56  1  0.24521512  0.87023709  0.13306039  1
  V  V57  1  0.87240586  0.38890863  0.00448778  1
  V  V58  1  0.37318790  0.38300170  0.51892050  1
  V  V59  1  -0.00367102  0.24728748  0.75609319  1
  V  V60  1  0.25244705  0.61154704  0.87546221  1
  V  V61  1  0.47856315  -0.00025562  0.50103033  1
  V  V62  1  -0.00180780  0.39718167  0.87905958  1
  V  V63  1  0.27297015  0.49941688  0.24945584  1
  V  V64  1  0.89340563  0.87461812  -0.00485723  1
  V  V65  1  0.87287703  0.62970894  0.75419198  1
  V  V66  1  0.74697146  0.76425860  0.00583671  1
  V  V67  1  0.49505551  0.49984651  -0.03772377  1
  V  V68  1  0.61489026  0.23769549  0.85778087  1
  V  V69  1  0.85125941  0.11666325  0.24624440  1
  Zn  Zn70  1  0.12230463  0.48934856  0.12185537  1
  Zn  Zn71  1  0.69308412  -0.06629144  0.21593464  1
  Zn  Zn72  1  0.62308806  0.62274007  0.49593647  1
  Zn  Zn73  1  0.28720180  0.23386888  -0.00660121  1
  Zn  Zn74  1  -0.00250426  0.61586554  0.12630340  1
  Zn  Zn75  1  -0.01582938  0.76721310  0.75555798  1
  Zn  Zn76  1  0.18314006  0.19438369  0.16998487  1
  Zn  Zn77  1  0.22228840  0.20624093  0.72446484  1
  Zn  Zn78  1  0.16955766  0.66517719  0.21760322  1
  Zn  Zn79  1  0.18402886  0.68654935  0.69033859  1
  Zn  Zn80  1  0.63080286  0.23551801  0.15729206  1
  Zn  Zn81  1  0.69535228  0.18602091  0.68635283  1
  Zn  Zn82  1  0.73309530  0.75178254  0.22816142  1
  Zn  Zn83  1  0.68863263  0.68534246  0.68733538  1
  Zn  Zn84  1  0.32371252  0.32305673  0.32166893  1
  Zn  Zn85  1  0.31660392  0.35840867  0.73533469  1
  Zn  Zn86  1  0.19085162  0.81974868  0.31616379  1
  Zn  Zn87  1  0.31420865  0.81340187  0.81128269  1
  Zn  Zn88  1  0.79395697  0.30410598  0.30667330  1
  Zn  Zn89  1  0.82124995  0.32466490  0.81073343  1
  Zn  Zn90  1  0.86755858  0.89003033  0.26076739  1
  Zn  Zn91  1  0.80791781  0.81337293  0.81810392  1
  Zn  Zn92  1  0.18519029  0.43287096  0.44835679  1
  Zn  Zn93  1  0.18787315  0.43688404  0.93699195  1
  Zn  Zn94  1  0.16855892  0.93702536  0.46481333  1
  Zn  Zn95  1  0.18795904  0.93198514  0.94676786  1
  Zn  Zn96  1  0.68862535  0.43203425  0.43070236  1
  Zn  Zn97  1  0.68918880  0.42802919  0.93922406  1
  Zn  Zn98  1  0.68282499  0.93451274  0.44679820  1
  Zn  Zn99  1  0.68661878  0.94810380  0.93304970  1
  Zn  Zn100  1  0.31207227  0.04995605  0.05335405  1
  Zn  Zn101  1  0.30641525  0.06797538  0.56627362  1
  Zn  Zn102  1  0.31832547  0.55511737  0.06324900  1
  Zn  Zn103  1  0.30631916  0.56733208  0.56955424  1
  Zn  Zn104  1  0.80750820  0.06018897  0.06506041  1
  Zn  Zn105  1  0.81023410  0.06716648  0.60082355  1
  Zn  Zn106  1  0.79951354  0.55671178  0.09239881  1
  Zn  Zn107  1  0.82341135  0.56510840  0.55866599  1
  Zn  Zn108  1  0.48852821  0.38411402  0.16331985  1
  Zn  Zn109  1  0.44627484  0.44121542  0.67823833  1
  Zn  Zn110  1  0.45026867  0.92774096  0.17908646  1
  Zn  Zn111  1  0.43608972  0.93749029  0.69179171  1
  Zn  Zn112  1  0.94251607  0.43527139  0.18459287  1
  Zn  Zn113  1  0.94999559  0.44100290  0.69352358  1
  Zn  Zn114  1  0.99373729  1.00735754  0.22831905  1
  Zn  Zn115  1  0.95374714  0.94230452  0.67199170  1
  Zn  Zn116  1  0.01674253  -0.12467577  0.36476000  1
  Zn  Zn117  1  0.05937769  0.06097673  0.81653156  1
  Zn  Zn118  1  0.08366603  0.54561668  0.34320926  1
  Zn  Zn119  1  0.04330477  0.60791945  0.83526006  1
  Zn  Zn120  1  0.56628404  0.05655257  0.32233109  1
  Zn  Zn121  1  0.56270439  0.06384753  0.80877276  1
  Zn  Zn122  1  0.54752019  0.57368951  0.32679172  1
  Zn  Zn123  1  0.57493146  0.57020484  0.80020094  1
  Zn  Zn124  1  0.45609330  0.21468097  0.48410681  1
  Zn  Zn125  1  0.41117179  0.19503932  0.80337816  1
  Zn  Zn126  1  0.42341021  0.69421408  0.43459754  1
  Zn  Zn127  1  0.43978086  0.68472658  0.93990746  1
  Zn  Zn128  1  0.93883508  0.18718011  0.42934860  1
  Zn  Zn129  1  0.93317273  0.18856143  0.93454178  1
  Zn  Zn130  1  0.94499163  0.68543870  0.43400635  1
  Zn  Zn131  1  0.93283509  0.68976915  0.93199647  1
  Zn  Zn132  1  0.05622470  0.31778744  0.06830233  1
  Zn  Zn133  1  0.05721553  0.29722651  0.54458591  1
  Zn  Zn134  1  0.04834290  0.81965388  0.18314228  1
  Zn  Zn135  1  0.01751099  0.81349293  0.53746024  1
  Zn  Zn136  1  0.52749414  0.28732218  0.00467025  1
  Zn  Zn137  1  0.56833059  0.31818714  0.56313702  1
  Zn  Zn138  1  0.57235814  0.81610285  0.07019415  1
  Zn  Zn139  1  0.55874366  0.81397613  0.56433649  1
  O  O140  1  0.13263061  0.10968014  0.10796768  1
  O  O141  1  0.15611303  0.13573185  0.64868127  1
  O  O142  1  0.12597959  0.62261105  0.11598333  1
  O  O143  1  0.10490988  0.62166701  0.64159809  1
  O  O144  1  0.62098080  0.12893281  0.11548709  1
  O  O145  1  0.61329682  0.10290825  0.63652866  1
  O  O146  1  0.60352404  0.62059387  0.10565001  1
  O  O147  1  0.61626310  0.62056844  0.62260684  1
  O  O148  1  0.39346689  0.37320869  0.39470003  1
  O  O149  1  0.35700485  0.38466081  0.85662159  1
  O  O150  1  0.37954200  0.87008530  0.38160473  1
  O  O151  1  0.37847973  0.87343306  0.88744586  1
  O  O152  1  0.87070498  0.37640848  0.35776587  1
  O  O153  1  0.88671953  0.38402006  0.88922385  1
  O  O154  1  0.87901015  0.92749767  0.37607845  1
  O  O155  1  0.87077907  0.87985205  0.88998952  1
  O  O156  1  0.17754297  0.06262016  0.37485812  1
  O  O157  1  0.25983866  -0.00837773  0.87556312  1
  O  O158  1  0.24976793  0.50836072  0.36779427  1
  O  O159  1  0.25812613  0.51305935  0.88073939  1
  O  O160  1  0.74898602  0.01522072  0.40713744  1
  O  O161  1  0.76594809  -0.00608888  0.86744335  1
  O  O162  1  0.74272528  0.51753993  0.37530158  1
  O  O163  1  0.74559201  0.49640975  0.86034792  1
  O  O164  1  0.25657766  0.48535033  0.13452544  1
  O  O165  1  0.23873620  0.48448142  0.62535815  1
  O  O166  1  0.23969765  0.98005055  0.10954993  1
  O  O167  1  0.24827234  0.99229734  0.63924667  1
  O  O168  1  0.72199461  0.48765286  0.15811937  1
  O  O169  1  0.74923128  0.49291090  0.62513041  1
  O  O170  1  0.72866020  1.00517208  0.12359178  1
  O  O171  1  0.73100264  0.97834912  0.61425400  1
  O  O172  1  0.01234394  0.36753345  0.25668470  1
  O  O173  1  0.00117881  0.37326911  0.77293211  1
  O  O174  1  -0.01508602  0.89034887  0.25230609  1
  O  O175  1  0.01872230  0.87694773  0.74446068  1
  O  O176  1  0.49654679  0.37152296  0.27629614  1
  O  O177  1  0.52200678  0.37930525  0.73996399  1
  O  O178  1  0.49194376  0.86400604  0.26704685  1
  O  O179  1  0.51238262  0.86072407  0.74469261  1
  O  O180  1  0.47494496  0.11813161  0.24857231  1
  O  O181  1  0.49353471  0.13138490  0.74167967  1
  O  O182  1  0.50672762  0.63181627  0.23769093  1
  O  O183  1  0.49187705  0.63469245  0.74094219  1
  O  O184  1  0.99685854  0.13521046  0.24915249  1
  O  O185  1  1.00565977  0.14858670  0.75835485  1
  O  O186  1  0.98638123  0.62765660  0.26207930  1
  O  O187  1  0.98482053  0.60884188  0.73532304  1
  O  O188  1  0.38933799  0.28134788  -0.02215362  1
  O  O189  1  0.35765678  0.26418689  0.51160443  1
  O  O190  1  0.37559080  0.75666067  0.00530232  1
  O  O191  1  0.36083026  0.74720360  0.51813749  1
  O  O192  1  0.86658082  0.25295515  0.00910902  1
  O  O193  1  0.87255863  0.25053262  0.51138634  1
  O  O194  1  0.86287443  0.75427967  -0.00266056  1
  O  O195  1  0.86240920  0.74663986  0.50344148  1
  O  O196  1  0.14864101  0.26038139  0.49632893  1
  O  O197  1  0.10982751  0.23220552  1.00181315  1
  O  O198  1  0.13356127  0.75663275  0.51829477  1
  O  O199  1  0.15047765  0.73254222  1.00492546  1
  O  O200  1  0.64662774  0.24941988  0.51204332  1
  O  O201  1  0.63858189  0.25589920  0.96635472  1
  O  O202  1  0.62054404  0.74593562  0.49054216  1
  O  O203  1  0.63349287  0.74032599  0.99871160  1
  O  O204  1  0.48681839  0.16748451  0.02609175  1
  O  O205  1  0.50535573  0.22601810  0.60523491  1
  O  O206  1  0.49645761  0.75027877  0.13312124  1
  O  O207  1  0.49135450  0.74429445  0.63344106  1
  O  O208  1  0.98455913  0.25536116  0.14150320  1
  O  O209  1  0.99517716  0.26970656  0.63743521  1
  O  O210  1  0.98577990  0.73930798  0.12075312  1
  O  O211  1  0.99736510  0.74179194  0.63080346  1
  O  O212  1  -0.01438952  0.26202222  0.35357164  1
  O  O213  1  0.00001149  0.25948524  0.86899363  1
  O  O214  1  -0.00039963  0.78318305  0.42882965  1
  O  O215  1  0.00890781  0.71831420  0.85526288  1
  O  O216  1  0.51362002  0.25650035  0.39433770  1
  O  O217  1  0.51406269  0.24224463  0.86348023  1
  O  O218  1  0.50364323  0.75582299  0.37267577  1
  O  O219  1  0.51100819  0.74363012  0.86704645  1
  O  O220  1  0.25897786  0.14588598  0.50314021  1
  O  O221  1  0.24217228  0.12612704  0.99839587  1
  O  O222  1  0.24371320  0.63311262  0.49393769  1
  O  O223  1  0.26411825  0.63212920  0.99044573  1
  O  O224  1  0.75814676  0.13902757  0.51625192  1
  O  O225  1  0.75650228  0.14288667  0.99632410  1
  O  O226  1  0.75105208  0.63501892  0.49185485  1
  O  O227  1  0.73145093  0.61094024  1.01177042  1
  O  O228  1  0.27254026  0.38781553  0.00590669  1
  O  O229  1  0.26295185  0.36565178  0.49292989  1
  O  O230  1  0.25794052  0.85811529  0.00484893  1
  O  O231  1  0.24612470  0.86891503  0.52137594  1
  O  O232  1  0.76493485  0.36008709  -0.00850044  1
  O  O233  1  0.75542290  0.37356856  0.51171202  1
  O  O234  1  0.74581397  0.86395981  0.00212946  1
  O  O235  1  0.74540438  0.85882605  0.51211303  1
  O  O236  1  0.13755853  0.48043115  0.25033891  1
  O  O237  1  0.20174533  0.48804710  0.69615966  1
  O  O238  1  0.11629123  1.00677037  0.22561139  1
  O  O239  1  0.13908497  0.99786729  0.75111546  1
  O  O240  1  0.76360557  0.43187703  0.19815416  1
  O  O241  1  0.63970977  0.49460376  0.73860525  1
  O  O242  1  0.61604427  1.01447851  0.23319690  1
  O  O243  1  0.61869042  0.98223018  0.74373659  1
  O  O244  1  0.37230979  0.01278637  0.23071051  1
  O  O245  1  0.36693918  -0.01456499  0.77018228  1
  O  O246  1  0.36771983  0.48373076  0.25740688  1
  O  O247  1  0.37972125  0.51644453  0.74307365  1
  O  O248  1  0.87649611  0.01630413  0.22834401  1
  O  O249  1  0.88881941  -0.00874778  0.75695600  1
  O  O250  1  0.87488490  0.51705561  0.24194275  1
  O  O251  1  0.86391746  0.50055282  0.74810404  1
  O  O252  1  0.13714934  0.36587050  0.35561531  1
  O  O253  1  0.10723474  0.36362243  0.90070841  1
  O  O254  1  0.13217027  0.89825276  0.37041493  1
  O  O255  1  0.12753453  0.88080626  0.86578446  1
  O  O256  1  0.61223045  0.35942955  0.39417017  1
  O  O257  1  0.63296817  0.36811694  0.85424060  1
  O  O258  1  0.61998340  0.86374561  0.38026062  1
  O  O259  1  0.63109470  0.86530847  0.86099928  1
  O  O260  1  0.37580244  0.11896837  0.13296929  1
  O  O261  1  0.38655403  0.11893650  0.63137040  1
  O  O262  1  0.39343064  0.63525277  0.11403163  1
  O  O263  1  0.37700008  0.63447344  0.63713243  1
  O  O264  1  0.86599751  0.14039657  0.13179542  1
  O  O265  1  0.89287943  0.14759215  0.63108268  1
  O  O266  1  0.87324247  0.63248960  0.13753243  1
  O  O267  1  0.88906915  0.61767636  0.63580616  1
  O  O268  1  0.25343656  0.26272214  0.10646899  1
  O  O269  1  0.20356969  0.31380540  0.64377612  1
  O  O270  1  0.26951462  0.75449911  0.11546069  1
  O  O271  1  0.25362587  0.75780902  0.62582121  1
  O  O272  1  0.75226699  0.25651569  0.11680998  1
  O  O273  1  0.76775216  0.26499508  0.62086319  1
  O  O274  1  0.75795273  0.74207594  0.10862309  1
  O  O275  1  0.74150918  0.75481128  0.61249600  1
  O  O276  1  0.25710376  0.24781219  0.37464781  1
  O  O277  1  0.22672135  0.25975154  0.89455313  1
  O  O278  1  0.24314450  0.75588472  0.39953311  1
  O  O279  1  0.26003052  0.74246450  0.88698516  1
  O  O280  1  0.74043841  0.25129371  0.39360650  1
  O  O281  1  0.76042329  0.24773296  0.87314509  1
  O  O282  1  0.73544163  0.74603525  0.39083624  1
  O  O283  1  0.73847229  0.74797222  0.89125652  1
  O  O284  1  0.00027876  0.11348885  0.00228302  1
  O  O285  1  0.00299990  0.12530073  0.50284259  1
  O  O286  1  0.01891207  0.62981346  -0.00404658  1
  O  O287  1  -0.00276894  0.61448840  0.51732703  1
  O  O288  1  0.50894344  0.10975876  -0.01307329  1
  O  O289  1  0.49038760  0.10357583  0.50876991  1
  O  O290  1  0.50166420  0.60614080  0.00319794  1
  O  O291  1  0.49307815  0.63351608  0.51164775  1
  O  O292  1  0.48262937  0.37277300  0.51047269  1
  O  O293  1  0.48883203  0.39201869  0.96864725  1
  O  O294  1  0.49429078  0.87903829  0.49285700  1
  O  O295  1  0.49339050  0.86485465  0.99809022  1
  O  O296  1  1.00031287  0.37632080  0.47511302  1
  O  O297  1  0.98338325  0.37451971  0.99485384  1
  O  O298  1  0.99266804  0.92232766  0.56180191  1
  O  O299  1  0.99147634  0.87700933  0.99536741  1
  O  O300  1  0.51664540  0.48734343  0.38572832  1
  O  O301  1  0.49710838  0.51232586  0.86468828  1
  O  O302  1  0.49774745  0.98545451  0.38917659  1
  O  O303  1  0.49328151  0.99575936  0.86873881  1
  O  O304  1  0.98988277  0.47918812  0.36059387  1
  O  O305  1  1.01424503  0.49492535  0.87312291  1
  O  O306  1  1.01236852  0.99315518  0.41736706  1
  O  O307  1  0.99151372  0.99820626  0.88926821  1
  O  O308  1  0.01880463  -0.00993922  0.10468977  1
  O  O309  1  0.02756312  0.04023990  0.64718149  1
  O  O310  1  0.00826296  0.50329633  0.12642884  1
  O  O311  1  0.01454893  0.47830243  0.60624414  1
  O  O312  1  0.51534785  -0.00190968  0.12348798  1
  O  O313  1  0.50225267  0.00111436  0.62153876  1
  O  O314  1  0.49517160  0.50302321  0.13656558  1
  O  O315  1  0.51514700  0.51489548  0.62949670  1
  O  O316  1  0.24958443  0.37137964  0.23922786  1
  O  O317  1  0.22485053  0.43515253  0.75032622  1
  O  O318  1  0.26066705  0.87121425  0.23061750  1
  O  O319  1  0.24282811  0.88177533  0.74942346  1
  O  O320  1  0.72022116  0.38571669  0.24623915  1
  O  O321  1  0.74972486  0.38792434  0.73831960  1
  O  O322  1  0.75994225  0.85891796  0.25683972  1
  O  O323  1  0.73270797  0.85920369  0.73752263  1
  O  O324  1  0.26645244  0.12535968  0.22798745  1
  O  O325  1  0.25689117  0.10197912  0.76401627  1
  O  O326  1  0.26350767  0.60161649  0.23990801  1
  O  O327  1  0.26228495  0.63050894  0.76220179  1
  O  O328  1  0.75616309  0.11895621  0.25515887  1
  O  O329  1  0.76845685  0.10474578  0.70112591  1
  O  O330  1  0.75583225  0.63918952  0.26566763  1
  O  O331  1  0.75996982  0.61063657  0.74016551  1
  O  O332  1  0.35622600  0.10410349  0.34079252  1
  O  O333  1  0.38270440  0.10824186  0.88032459  1
  O  O334  1  0.34915725  0.63905938  0.36883101  1
  O  O335  1  0.37199150  0.62804444  0.86224213  1
  O  O336  1  0.87932033  0.10831777  0.36041590  1
  O  O337  1  0.87924681  0.10731410  0.87395669  1
  O  O338  1  0.86419773  0.63250089  0.36720882  1
  O  O339  1  0.87880057  0.61612497  0.85469446  1
  O  O340  1  0.13979916  0.37155268  0.13087407  1
  O  O341  1  0.13980455  0.35202949  0.63406776  1
  O  O342  1  0.13679773  0.88094123  0.12097716  1
  O  O343  1  0.14141197  0.88003232  0.64189855  1
  O  O344  1  0.55328862  0.30692651  0.11296647  1
  O  O345  1  0.64027187  0.38387386  0.63160076  1
  O  O346  1  0.61631603  0.90094807  0.12745610  1
  O  O347  1  0.62509918  0.87811584  0.63611816  1
  O  O348  1  0.11343786  0.25328633  0.23939517  1
  O  O349  1  0.12045474  0.25390421  0.77485786  1
  O  O350  1  0.12982814  0.76495872  0.23909189  1
  O  O351  1  0.13235307  0.76447177  0.75678226  1
  O  O352  1  0.63210229  0.24928103  0.27249836  1
  O  O353  1  0.63807428  0.26419514  0.74762791  1
  O  O354  1  0.61644505  0.75027563  0.26778289  1
  O  O355  1  0.61866875  0.74804656  0.75913317  1
  O  O356  1  0.37470422  0.22213211  0.24748705  1
  O  O357  1  0.32534050  0.24912091  0.75280982  1
  O  O358  1  0.38696104  0.74666662  0.23293047  1
  O  O359  1  0.38324745  0.74369530  0.74518578  1
  O  O360  1  0.86720792  0.24036941  0.23931085  1
  O  O361  1  0.88987932  0.26122269  0.74067104  1
  O  O362  1  0.87090740  0.74796084  0.23232469  1
  O  O363  1  0.86708514  0.73629658  0.75208150  1
  O  O364  1  0.36208092  0.48526280  0.51414725  1
  O  O365  1  0.38978173  0.49380865  0.99110800  1
  O  O366  1  0.37939273  0.99207396  0.51035842  1
  O  O367  1  0.37749498  0.98273608  0.98963247  1
  O  O368  1  0.89737235  0.50188309  0.49454720  1
  O  O369  1  0.85901882  0.48635581  1.02015657  1
  O  O370  1  0.88203797  1.02350346  0.51457460  1
  O  O371  1  0.88534794  0.98886740  1.00501123  1
  O  O372  1  0.11635951  0.01241819  -0.00638996  1
  O  O373  1  0.12466300  0.01640262  0.53332719  1
  O  O374  1  0.14110004  0.51811796  0.00454556  1
  O  O375  1  0.09965305  0.50671847  0.46173376  1
  O  O376  1  0.62614709  0.01057980  0.00177335  1
  O  O377  1  0.60671824  -0.00914818  0.51605910  1
  O  O378  1  0.61014799  0.50242500  -0.01253624  1
  O  O379  1  0.63432655  0.50238980  0.51258789  1
  O  O380  1  0.37120132  0.36950795  0.13135661  1
  O  O381  1  0.36920116  0.37579029  0.62960908  1
  O  O382  1  0.37272616  0.86509225  0.11307108  1
  O  O383  1  0.36110235  0.86448230  0.64059059  1
  O  O384  1  0.87642003  0.36124736  0.11609197  1
  O  O385  1  0.86908491  0.37856588  0.62766971  1
  O  O386  1  0.87527809  0.85552996  0.10662364  1
  O  O387  1  0.85328174  0.87674602  0.63776288  1
  O  O388  1  0.13531231  0.12131281  0.37038328  1
  O  O389  1  0.11807309  0.13725950  0.88891607  1
  O  O390  1  0.15537881  0.63595188  0.34313771  1
  O  O391  1  0.14707360  0.62296794  0.88777039  1
  O  O392  1  0.61418701  0.13759817  0.38420062  1
  O  O393  1  0.63643262  0.13967554  0.84868173  1
  O  O394  1  0.63322085  0.63481450  0.37669983  1
  O  O395  1  0.62180139  0.63274688  0.88948994  1
