# generated using pymatgen
data_V35Zn35O128
_symmetry_space_group_name_H-M   'P 1'
_cell_length_a   16.84074172
_cell_length_b   16.88732071
_cell_length_c   16.85469568
_cell_angle_alpha   90.17427144
_cell_angle_beta   89.87926519
_cell_angle_gamma   89.90897244
_symmetry_Int_Tables_number   1
_chemical_formula_structural   V35Zn35O128
_chemical_formula_sum   'V70 Zn70 O256'
_cell_volume   4793.35237332
_cell_formula_units_Z   2
loop_
 _symmetry_equiv_pos_site_id
 _symmetry_equiv_pos_as_xyz
  1  'x, y, z'
loop_
 _atom_site_type_symbol
 _atom_site_label
 _atom_site_symmetry_multiplicity
 _atom_site_fract_x
 _atom_site_fract_y
 _atom_site_fract_z
 _atom_site_occupancy
  V  V0  1  0.00414137  0.74903658  0.24122098  1
  V  V1  1  -0.00043326  0.50325697  0.50070671  1
  V  V2  1  0.60901122  0.50439681  0.60208262  1
  V  V3  1  0.72339420  0.48156658  0.74699172  1
  V  V4  1  0.00507279  0.12492377  0.11619093  1
  V  V5  1  0.49868636  0.11857070  0.62290167  1
  V  V6  1  0.36829262  0.36208886  0.00622396  1
  V  V7  1  0.12696564  0.89510924  0.75735166  1
  V  V8  1  0.36220731  0.60574344  0.76268287  1
  V  V9  1  0.62940884  0.09560539  0.50553455  1
  V  V10  1  0.41548123  0.00804515  0.37673254  1
  V  V11  1  0.49354247  0.62912810  0.61840763  1
  V  V12  1  0.62591297  0.74982619  0.37429563  1
  V  V13  1  0.26306594  0.37137141  0.60450076  1
  V  V14  1  0.12421544  -0.01021416  0.13354026  1
  V  V15  1  0.39298527  0.62795261  0.24402583  1
  V  V16  1  0.86231791  0.26093655  0.61849160  1
  V  V17  1  0.36401615  -0.00476333  0.86579425  1
  V  V18  1  0.34886379  0.74559140  0.63636135  1
  V  V19  1  0.62441669  0.36923889  0.23783442  1
  V  V20  1  0.12757962  0.36232743  0.74068537  1
  V  V21  1  0.48953155  0.76105118  0.76120276  1
  V  V22  1  0.88364504  -0.00157171  0.87351970  1
  V  V23  1  0.63683732  0.26655821  0.39588530  1
  V  V24  1  0.86259401  0.75665224  0.10449753  1
  V  V25  1  0.12262888  0.76108030  0.87678580  1
  V  V26  1  0.74013946  0.26308126  0.00021111  1
  V  V27  1  0.23794551  0.50248539  0.23934998  1
  V  V28  1  0.13303875  0.24080845  0.39748965  1
  V  V29  1  0.24582204  0.35263806  0.13603815  1
  V  V30  1  0.09949576  0.25756866  0.88854494  1
  V  V31  1  0.38839397  0.49664084  0.38096536  1
  V  V32  1  -0.01434835  0.87820551  0.37169159  1
  V  V33  1  0.61106698  0.50224101  0.12747437  1
  V  V34  1  0.87215039  0.87166568  0.52363355  1
  V  V35  1  0.24375602  0.62008676  0.88641288  1
  V  V36  1  0.13688037  0.50085494  0.62839041  1
  V  V37  1  0.24992261  0.62764107  0.36521804  1
  V  V38  1  0.62783731  0.87010513  0.24780461  1
  V  V39  1  0.24562350  0.76184573  0.01357840  1
  V  V40  1  0.38345793  0.85524122  0.49944750  1
  V  V41  1  0.87012820  0.26045107  0.11836400  1
  V  V42  1  0.74066310  0.12999049  0.88291204  1
  V  V43  1  0.75745821  0.11866171  0.38696664  1
  V  V44  1  0.61974749  0.62538720  0.00237225  1
  V  V45  1  0.00071951  0.38285030  0.37141245  1
  V  V46  1  0.87958607  0.62578191  0.23940488  1
  V  V47  1  0.24413707  0.89497344  0.62778679  1
  V  V48  1  0.00758640  0.13046660  0.62146134  1
  V  V49  1  0.49596308  0.24154516  0.24596218  1
  V  V50  1  0.38131821  0.24658261  0.63473455  1
  V  V51  1  0.88031576  0.13709226  0.74990404  1
  V  V52  1  0.86997289  0.12059586  0.25103683  1
  V  V53  1  0.73803387  0.62241868  0.86079616  1
  V  V54  1  0.13001482  0.62749317  0.49838782  1
  V  V55  1  0.39893693  0.75556482  0.13143640  1
  V  V56  1  0.12879554  0.76010337  0.37767791  1
  V  V57  1  0.76085479  0.49472612  0.23837691  1
  V  V58  1  0.00698788  0.24967603  0.25691341  1
  V  V59  1  0.00419543  -0.00864104  -0.00876983  1
  V  V60  1  0.87678418  0.49646598  0.87938711  1
  V  V61  1  0.75954890  0.73971355  0.51133168  1
  V  V62  1  0.73535736  -0.00699747  0.74328829  1
  V  V63  1  0.49420582  0.11340257  0.12581933  1
  V  V64  1  0.75829248  0.62001357  0.37623597  1
  V  V65  1  0.61242095  0.75799130  0.87778123  1
  V  V66  1  0.00300554  -0.00143841  0.50957824  1
  V  V67  1  0.39058087  0.88281959  0.00261047  1
  V  V68  1  0.48445120  0.49738304  -0.01717081  1
  V  V69  1  0.63814973  -0.00013245  0.11253239  1
  Zn  Zn70  1  0.88176355  0.68242382  0.66987219  1
  Zn  Zn71  1  0.76422485  -0.01657390  0.24606071  1
  Zn  Zn72  1  0.26454295  -0.00742649  0.25241309  1
  Zn  Zn73  1  -0.00144603  0.75737134  0.74570394  1
  Zn  Zn74  1  0.85841551  0.36822844  0.48642994  1
  Zn  Zn75  1  0.54856764  0.31391451  0.79603133  1
  Zn  Zn76  1  0.19712744  0.17108883  0.20983360  1
  Zn  Zn77  1  0.18847894  0.19604592  0.65538568  1
  Zn  Zn78  1  0.18645804  0.82079802  0.19385326  1
  Zn  Zn79  1  0.16357704  0.67692793  0.70542645  1
  Zn  Zn80  1  0.68762537  0.18225291  0.17756472  1
  Zn  Zn81  1  0.68840213  0.17835897  0.69494943  1
  Zn  Zn82  1  0.69237924  0.68733476  0.18419681  1
  Zn  Zn83  1  0.67567728  0.70106996  0.68274447  1
  Zn  Zn84  1  0.31096373  0.31403873  0.31725416  1
  Zn  Zn85  1  0.34632112  0.38611014  0.78899242  1
  Zn  Zn86  1  0.32069290  0.81902635  0.31024254  1
  Zn  Zn87  1  0.30373007  0.81922084  0.81869592  1
  Zn  Zn88  1  0.81349025  0.30916575  0.30984579  1
  Zn  Zn89  1  0.80768578  0.31577785  0.81251903  1
  Zn  Zn90  1  0.81393627  0.80313044  0.31026836  1
  Zn  Zn91  1  0.80565003  0.81679623  0.82225010  1
  Zn  Zn92  1  0.18763186  0.43690277  0.42484560  1
  Zn  Zn93  1  0.21916021  0.40882132  0.92281438  1
  Zn  Zn94  1  0.18506215  0.92542618  0.45794186  1
  Zn  Zn95  1  0.19364640  0.94464215  0.94689656  1
  Zn  Zn96  1  0.68991494  0.44521734  0.43388629  1
  Zn  Zn97  1  0.67764957  0.43563097  0.93332945  1
  Zn  Zn98  1  0.70160452  0.92675465  0.43356915  1
  Zn  Zn99  1  0.70296694  0.93002233  0.93295262  1
  Zn  Zn100  1  0.31644659  0.05470721  0.07701394  1
  Zn  Zn101  1  0.34814408  0.04132633  0.55780215  1
  Zn  Zn102  1  0.31086116  0.57274254  0.06574357  1
  Zn  Zn103  1  0.31156550  0.56693291  0.55762532  1
  Zn  Zn104  1  0.81665982  0.06362095  0.06015982  1
  Zn  Zn105  1  0.81962929  0.05659399  0.56947103  1
  Zn  Zn106  1  0.81222887  0.56753245  0.05653385  1
  Zn  Zn107  1  0.80296379  0.52828357  0.56422003  1
  Zn  Zn108  1  0.43095189  0.43050969  0.19350637  1
  Zn  Zn109  1  0.46728724  0.41836317  0.66170268  1
  Zn  Zn110  1  0.45080260  0.93434922  0.19486032  1
  Zn  Zn111  1  0.43838342  0.93787564  0.68558268  1
  Zn  Zn112  1  0.94515011  0.43465566  0.18337057  1
  Zn  Zn113  1  0.93472764  0.45405798  0.69057209  1
  Zn  Zn114  1  0.93693568  0.93347243  0.18170934  1
  Zn  Zn115  1  0.93897753  0.93996665  0.69684866  1
  Zn  Zn116  1  0.06108117  0.06234476  0.31868203  1
  Zn  Zn117  1  0.06956817  0.08124784  0.81237100  1
  Zn  Zn118  1  0.06397564  0.56828426  0.31082524  1
  Zn  Zn119  1  0.05980536  0.57455621  0.81311425  1
  Zn  Zn120  1  0.58406554  0.06236893  0.30712033  1
  Zn  Zn121  1  0.53179873  0.12585766  0.83419647  1
  Zn  Zn122  1  0.57021362  0.56520647  0.31752052  1
  Zn  Zn123  1  0.54917321  0.56368319  0.80945163  1
  Zn  Zn124  1  0.46398400  0.18192038  0.42412393  1
  Zn  Zn125  1  0.42553983  0.17591151  0.94480215  1
  Zn  Zn126  1  0.42874123  0.69867740  0.43292973  1
  Zn  Zn127  1  0.43107837  0.68311732  0.94573668  1
  Zn  Zn128  1  0.93801714  0.18968254  0.44158824  1
  Zn  Zn129  1  0.93305181  0.19217804  0.93667922  1
  Zn  Zn130  1  0.93944697  0.68560475  0.43415269  1
  Zn  Zn131  1  0.90972692  0.71332214  0.89617621  1
  Zn  Zn132  1  0.08368109  0.29584183  0.08604067  1
  Zn  Zn133  1  0.05594108  0.31835954  0.56226769  1
  Zn  Zn134  1  0.05077097  0.81429477  0.05357613  1
  Zn  Zn135  1  0.05424535  0.80583085  0.57389978  1
  Zn  Zn136  1  0.55351601  0.30015613  -0.04016933  1
  Zn  Zn137  1  0.59888890  0.29103815  0.60947589  1
  Zn  Zn138  1  0.57259149  0.81948552  0.06367723  1
  Zn  Zn139  1  0.56925253  0.80123141  0.56891498  1
  O  O140  1  0.10708585  0.12008690  0.13311483  1
  O  O141  1  0.10743908  0.12445610  0.62361593  1
  O  O142  1  0.10960433  0.60298118  0.09165569  1
  O  O143  1  0.14233604  0.61301436  0.60424287  1
  O  O144  1  0.62135054  0.10620536  0.12707630  1
  O  O145  1  0.61807839  0.12256272  0.61051578  1
  O  O146  1  0.62632813  0.61437962  0.11471007  1
  O  O147  1  0.59942785  0.62105298  0.63283033  1
  O  O148  1  0.37270078  0.39871518  0.36346348  1
  O  O149  1  0.33490717  0.38158285  0.90424654  1
  O  O150  1  0.38636230  0.81934620  0.40280183  1
  O  O151  1  0.37605583  0.88583236  0.88950570  1
  O  O152  1  0.89263668  0.36583893  0.37374357  1
  O  O153  1  0.87135731  0.39649522  0.86065938  1
  O  O154  1  0.88495217  0.86911540  0.38174263  1
  O  O155  1  0.89558114  0.90197573  0.86141941  1
  O  O156  1  0.23466408  0.03322538  0.41694638  1
  O  O157  1  0.26614950  0.01275982  0.88791256  1
  O  O158  1  0.25741797  0.50945653  0.36114085  1
  O  O159  1  0.22769136  0.52225917  0.89791951  1
  O  O160  1  0.75263189  0.01674454  0.37118878  1
  O  O161  1  0.76803584  0.01471358  0.87332764  1
  O  O162  1  0.74745733  0.51419377  0.35481480  1
  O  O163  1  0.74016243  0.50546458  0.86252664  1
  O  O164  1  0.24835137  0.51208236  0.13850376  1
  O  O165  1  0.24453759  0.48958068  0.61316491  1
  O  O166  1  0.22730574  1.00447259  0.12841391  1
  O  O167  1  0.25950099  0.99373983  0.61908973  1
  O  O168  1  0.74164576  0.50770504  0.13599623  1
  O  O169  1  0.71277101  0.50830228  0.63820349  1
  O  O170  1  0.74508866  1.00668292  0.12817596  1
  O  O171  1  0.74937849  1.00800817  0.64215120  1
  O  O172  1  -0.00305098  0.36171332  0.25836295  1
  O  O173  1  0.03029471  0.39266511  0.73836199  1
  O  O174  1  -0.00844990  0.86509214  0.26352115  1
  O  O175  1  0.02248237  0.87480334  0.74300339  1
  O  O176  1  0.51757025  0.36296202  0.24466262  1
  O  O177  1  0.45700386  0.37243765  0.76145702  1
  O  O178  1  0.52673031  0.87002048  0.25519482  1
  O  O179  1  0.49375863  0.85960413  0.74875731  1
  O  O180  1  0.51782112  0.13581436  0.25006797  1
  O  O181  1  0.50596325  0.11889691  0.72197317  1
  O  O182  1  0.49129437  0.62683039  0.25161176  1
  O  O183  1  0.47283653  0.62989493  0.75128095  1
  O  O184  1  0.98767806  0.13493478  0.24926631  1
  O  O185  1  0.98903324  0.12278337  0.73482977  1
  O  O186  1  0.99444690  0.63985383  0.25540306  1
  O  O187  1  1.05091103  0.65208808  0.73360126  1
  O  O188  1  0.38032351  0.26327645  0.00450584  1
  O  O189  1  0.41063012  0.28292508  0.47424351  1
  O  O190  1  0.37086871  0.75736604  0.01722640  1
  O  O191  1  0.36506149  0.74519050  0.53025918  1
  O  O192  1  0.87174984  0.24963800  0.01424202  1
  O  O193  1  0.87281725  0.25437432  0.51120487  1
  O  O194  1  0.89200668  0.73643399  0.00860815  1
  O  O195  1  0.87024572  0.75669516  0.49596321  1
  O  O196  1  0.12508456  0.24933659  0.49843830  1
  O  O197  1  0.12015989  0.26224239  0.98753654  1
  O  O198  1  0.11604422  0.73748415  0.49055291  1
  O  O199  1  0.13792262  0.76902363  0.99251691  1
  O  O200  1  0.63075024  0.26791480  0.49615364  1
  O  O201  1  0.64184344  0.24747283  1.01304304  1
  O  O202  1  0.65074837  0.74853568  0.48871770  1
  O  O203  1  0.60822286  0.73293660  0.99261808  1
  O  O204  1  0.49808718  0.23164113  0.14364970  1
  O  O205  1  0.48870628  0.23787268  0.61216738  1
  O  O206  1  0.49710471  0.74978996  0.12622808  1
  O  O207  1  0.48375261  0.73912165  0.64689697  1
  O  O208  1  0.99301777  0.24181091  0.13435305  1
  O  O209  1  0.98991179  0.23420876  0.61312985  1
  O  O210  1  1.00648509  0.75261039  0.13974326  1
  O  O211  1  0.97834370  0.74177589  0.62903291  1
  O  O212  1  0.00488565  0.25427328  0.36772818  1
  O  O213  1  -0.00046764  0.26277631  0.87748346  1
  O  O214  1  0.00689270  0.75997890  0.36947026  1
  O  O215  1  0.02107395  0.75297318  0.88456862  1
  O  O216  1  0.53778270  0.24437171  0.36127805  1
  O  O217  1  0.50420300  0.23116457  0.87789956  1
  O  O218  1  0.52826209  0.73502621  0.38462352  1
  O  O219  1  0.49558563  0.74646178  0.87093694  1
  O  O220  1  0.24882618  0.08349344  0.47128599  1
  O  O221  1  0.24611777  0.13327559  1.00791734  1
  O  O222  1  0.23909907  0.62337840  0.48083179  1
  O  O223  1  0.25815807  0.64666532  0.99393869  1
  O  O224  1  0.74812611  0.11846845  0.49387615  1
  O  O225  1  0.75930409  0.13249540  0.98640547  1
  O  O226  1  0.76649842  0.62432815  0.48262443  1
  O  O227  1  0.72390071  0.61270540  0.98836914  1
  O  O228  1  0.25384707  0.37187832  0.02755346  1
  O  O229  1  0.24879574  0.37888126  0.50509403  1
  O  O230  1  0.26577252  0.86576642  0.00204498  1
  O  O231  1  0.26135195  0.86885245  0.51981629  1
  O  O232  1  0.74807775  0.36232771  -0.00740229  1
  O  O233  1  0.76929460  0.42869144  0.51075327  1
  O  O234  1  0.78388092  0.85138235  -0.06659656  1
  O  O235  1  0.76472430  0.85647294  0.50339697  1
  O  O236  1  0.13785512  0.50393428  0.25222925  1
  O  O237  1  0.13230349  0.50589596  0.72873895  1
  O  O238  1  0.10297484  0.99872713  0.23283434  1
  O  O239  1  0.12512753  0.99505221  0.76065075  1
  O  O240  1  0.63262456  0.49585753  0.24180960  1
  O  O241  1  0.61968433  0.49370562  0.75375335  1
  O  O242  1  0.64095584  0.98459418  0.24574015  1
  O  O243  1  0.63961553  1.00687833  0.76100434  1
  O  O244  1  0.38140211  -0.03102306  0.28436182  1
  O  O245  1  0.37157938  -0.01385365  0.76628628  1
  O  O246  1  0.37203653  0.51864909  0.25229922  1
  O  O247  1  0.36130176  0.50831906  0.75440857  1
  O  O248  1  0.88045690  0.01656188  0.24415032  1
  O  O249  1  0.87630907  0.01648179  0.75939053  1
  O  O250  1  0.86853493  0.50607929  0.23612734  1
  O  O251  1  0.84245725  0.49982261  0.75260918  1
  O  O252  1  0.10773568  0.35942767  0.38002032  1
  O  O253  1  0.14680785  0.35275977  0.85194510  1
  O  O254  1  0.11545970  0.86292932  0.38878730  1
  O  O255  1  0.13698387  0.87663695  0.86817611  1
  O  O256  1  0.63818866  0.36836904  0.36398109  1
  O  O257  1  0.60705455  0.36613778  0.88205297  1
  O  O258  1  0.63524996  0.85812837  0.36963675  1
  O  O259  1  0.61931139  0.85566358  0.88682911  1
  O  O260  1  0.39417375  0.09781506  0.14596308  1
  O  O261  1  0.38409598  0.14323909  0.59545612  1
  O  O262  1  0.37631182  0.64110727  0.13616283  1
  O  O263  1  0.36795264  0.63112689  0.64183035  1
  O  O264  1  0.88484571  0.13187822  0.13540012  1
  O  O265  1  0.87777525  0.13555105  0.63529290  1
  O  O266  1  0.87443510  0.63469923  0.13197752  1
  O  O267  1  0.87534279  0.56793505  0.65052127  1
  O  O268  1  0.24997151  0.25253224  0.14871277  1
  O  O269  1  0.26838573  0.25841702  0.60770919  1
  O  O270  1  0.24273950  0.75404382  0.11577429  1
  O  O271  1  0.24948338  0.74259019  0.64272246  1
  O  O272  1  0.76287701  0.24397497  0.11460271  1
  O  O273  1  0.76296751  0.24756429  0.62794840  1
  O  O274  1  0.76196026  0.74551854  0.11223676  1
  O  O275  1  0.77367783  0.71243070  0.61028646  1
  O  O276  1  0.23011101  0.25543410  0.36915066  1
  O  O277  1  0.28193555  0.14422992  0.79250295  1
  O  O278  1  0.23291143  0.74599590  0.36722414  1
  O  O279  1  0.24437345  0.74895185  0.89049126  1
  O  O280  1  0.74082430  0.23924786  0.37161569  1
  O  O281  1  0.75725929  0.24042584  0.88683083  1
  O  O282  1  0.75263788  0.73546121  0.38325369  1
  O  O283  1  0.71994505  0.73165495  0.86764816  1
  O  O284  1  -0.00211457  0.12813649  0.01481251  1
  O  O285  1  -0.01411092  0.10743414  0.50769415  1
  O  O286  1  0.06460135  0.62469173  0.03926364  1
  O  O287  1  0.01827943  0.61410089  0.48431753  1
  O  O288  1  0.49563758  0.12811257  0.02736661  1
  O  O289  1  0.52588239  0.12113992  0.50056591  1
  O  O290  1  0.50581292  0.60838723  -0.00209927  1
  O  O291  1  0.48589137  0.64369396  0.52052916  1
  O  O292  1  0.45716336  0.34102267  0.47934892  1
  O  O293  1  0.47947321  0.38635946  1.00183391  1
  O  O294  1  0.48180904  0.85690015  0.52492749  1
  O  O295  1  0.48998240  0.87078975  1.00146435  1
  O  O296  1  0.99454699  0.38776074  0.48868716  1
  O  O297  1  1.02621811  0.43477637  1.03685314  1
  O  O298  1  0.98848643  0.87719053  0.49796270  1
  O  O299  1  0.99625374  0.89263179  0.99166047  1
  O  O300  1  0.48946987  0.50781739  0.36996781  1
  O  O301  1  0.48747738  0.49791939  0.88401558  1
  O  O302  1  0.51478215  0.99965630  0.37616160  1
  O  O303  1  0.43112406  1.07564290  0.88399844  1
  O  O304  1  1.00916827  0.48747661  0.37616340  1
  O  O305  1  0.97417223  0.52223034  0.85970850  1
  O  O306  1  1.00116647  0.98339904  0.38579874  1
  O  O307  1  0.99893585  1.02068871  0.88606402  1
  O  O308  1  -0.00080658  0.00932467  0.11183350  1
  O  O309  1  -0.01006005  0.01000842  0.61606048  1
  O  O310  1  0.00319912  0.48709227  0.09793851  1
  O  O311  1  0.02246887  0.49417721  0.60624368  1
  O  O312  1  0.52095572  0.00403543  0.13509649  1
  O  O313  1  0.46541783  0.01797832  0.60941237  1
  O  O314  1  0.51079245  0.49816202  0.13345683  1
  O  O315  1  0.49288122  0.52182119  0.62265030  1
  O  O316  1  0.26288205  0.39392232  0.24031480  1
  O  O317  1  0.24450280  0.37568488  0.72292729  1
  O  O318  1  0.24189156  0.88434732  0.26775750  1
  O  O319  1  0.24236037  0.88138567  0.73838925  1
  O  O320  1  0.74724937  0.39034306  0.25196965  1
  O  O321  1  0.73635632  0.38271818  0.74879827  1
  O  O322  1  0.74485954  0.87226703  0.25725728  1
  O  O323  1  0.75400351  0.89322802  0.75821744  1
  O  O324  1  0.24319759  0.09734120  0.27437469  1
  O  O325  1  0.24785457  0.11427300  0.73431597  1
  O  O326  1  0.25538211  0.61799748  0.25844548  1
  O  O327  1  0.25448778  0.62953759  0.76957198  1
  O  O328  1  0.76285275  0.12757276  0.25626156  1
  O  O329  1  0.76263952  0.12061383  0.76233415  1
  O  O330  1  0.76204862  0.61748634  0.25115703  1
  O  O331  1  0.72692025  0.61977868  0.75833629  1
  O  O332  1  0.39062787  0.10544545  0.38634897  1
  O  O333  1  0.27723265  0.16966116  0.95071837  1
  O  O334  1  0.36848293  0.62955322  0.36138273  1
  O  O335  1  0.35951517  0.62611895  0.87078503  1
  O  O336  1  0.86591966  0.13488725  0.36485657  1
  O  O337  1  0.87632303  0.12654735  0.86084244  1
  O  O338  1  0.86811519  0.63043986  0.35588222  1
  O  O339  1  0.84141737  0.61836392  0.87781562  1
  O  O340  1  0.14447137  0.37272588  0.13758553  1
  O  O341  1  0.13814982  0.38430847  0.62074041  1
  O  O342  1  0.11541091  0.88519030  0.12491299  1
  O  O343  1  0.13789790  0.87291610  0.63243475  1
  O  O344  1  0.63247263  0.39204398  0.13603830  1
  O  O345  1  0.58085096  0.40427495  0.61285147  1
  O  O346  1  0.63226373  0.88170860  0.13651722  1
  O  O347  1  0.65072399  0.80587129  0.64188258  1
  O  O348  1  0.10661170  0.24215635  0.24851813  1
  O  O349  1  0.12257948  0.26263915  0.72557432  1
  O  O350  1  0.11144324  0.75445640  0.26335743  1
  O  O351  1  0.13661680  0.77217228  0.77102475  1
  O  O352  1  0.63443419  0.26546044  0.24129067  1
  O  O353  1  0.61585366  0.26111933  0.71840676  1
  O  O354  1  0.63842596  0.75632636  0.25982889  1
  O  O355  1  0.59777737  0.73765189  0.76919747  1
  O  O356  1  0.39977179  0.25181894  0.27318869  1
  O  O357  1  0.37479581  0.23706979  0.73048565  1
  O  O358  1  0.37518896  0.74366491  0.23886282  1
  O  O359  1  0.37370834  0.74925549  0.75012909  1
  O  O360  1  0.88125404  0.24087897  0.23944461  1
  O  O361  1  0.87211233  0.24089017  0.74374118  1
  O  O362  1  0.88664867  0.74398413  0.23761491  1
  O  O363  1  0.88403417  0.74181603  0.78014976  1
  O  O364  1  0.37320525  0.51210072  0.48052595  1
  O  O365  1  0.38461597  0.50333833  1.00936360  1
  O  O366  1  0.37473585  0.96524102  0.46977387  1
  O  O367  1  0.37506726  0.98441067  1.00660761  1
  O  O368  1  0.90167300  0.51820217  0.49698951  1
  O  O369  1  0.86494801  0.50221075  0.98093783  1
  O  O370  1  0.87806030  0.97779908  0.50430912  1
  O  O371  1  0.88959188  1.01146335  0.98545730  1
  O  O372  1  0.11173173  0.00111260  0.01162174  1
  O  O373  1  0.10220583  -0.01036266  0.50646434  1
  O  O374  1  0.07507070  0.46400558  -0.01318376  1
  O  O375  1  0.12313164  0.51098121  0.49499611  1
  O  O376  1  0.63866046  -0.01743282  0.01281062  1
  O  O377  1  0.63514735  -0.00281687  0.50144375  1
  O  O378  1  0.60796471  0.50116568  0.01194377  1
  O  O379  1  0.62051639  0.51335790  0.50369112  1
  O  O380  1  0.36225987  0.37796187  0.11880744  1
  O  O381  1  0.37093650  0.36279685  0.61492439  1
  O  O382  1  0.38392849  0.86431869  0.12272162  1
  O  O383  1  0.35899756  0.86072836  0.62794426  1
  O  O384  1  0.87724436  0.35872752  0.12974646  1
  O  O385  1  0.88535095  0.36023814  0.63222542  1
  O  O386  1  0.88199922  0.85621511  0.12037218  1
  O  O387  1  0.87811637  0.87021268  0.62292194  1
  O  O388  1  0.11189668  0.14214931  0.37960811  1
  O  O389  1  0.12895715  0.16398566  0.85900908  1
  O  O390  1  0.13138749  0.63631075  0.37827387  1
  O  O391  1  0.13678447  0.64669112  0.87619021  1
  O  O392  1  0.64249641  0.13054214  0.39262658  1
  O  O393  1  0.64231835  0.12148819  0.87333264  1
  O  O394  1  0.64844643  0.63531896  0.36313905  1
  O  O395  1  0.61922445  0.62206028  0.88668863  1
