# generated using pymatgen
data_V35Zn35O128
_symmetry_space_group_name_H-M   'P 1'
_cell_length_a   16.95690314
_cell_length_b   16.91311762
_cell_length_c   16.95359758
_cell_angle_alpha   89.87483748
_cell_angle_beta   90.33988050
_cell_angle_gamma   90.03975042
_symmetry_Int_Tables_number   1
_chemical_formula_structural   V35Zn35O128
_chemical_formula_sum   'V70 Zn70 O256'
_cell_volume   4862.09343812
_cell_formula_units_Z   2
loop_
 _symmetry_equiv_pos_site_id
 _symmetry_equiv_pos_as_xyz
  1  'x, y, z'
loop_
 _atom_site_type_symbol
 _atom_site_label
 _atom_site_symmetry_multiplicity
 _atom_site_fract_x
 _atom_site_fract_y
 _atom_site_fract_z
 _atom_site_occupancy
  V  V0  1  0.00549651  0.13135879  0.12262339  1
  V  V1  1  0.28035975  -0.00162617  0.25660033  1
  V  V2  1  0.49199479  0.25626825  0.24451201  1
  V  V3  1  0.24784449  0.62662385  0.37724039  1
  V  V4  1  0.63598045  0.12099014  0.48975027  1
  V  V5  1  0.37877247  0.24763849  0.61788551  1
  V  V6  1  0.73142897  0.61751065  0.37112021  1
  V  V7  1  0.30041719  0.81587600  0.53920072  1
  V  V8  1  0.85723889  0.87653429  -0.01246284  1
  V  V9  1  0.13037979  0.76758568  0.88417019  1
  V  V10  1  0.24847884  0.37998469  0.62949752  1
  V  V11  1  0.00000552  0.11410103  0.62690031  1
  V  V12  1  0.13790094  0.62157574  0.00809972  1
  V  V13  1  0.10678420  0.88565642  0.22979063  1
  V  V14  1  0.12634702  0.35867923  0.24525562  1
  V  V15  1  0.38530593  0.37467654  0.49277137  1
  V  V16  1  0.13386783  0.08656912  0.49551738  1
  V  V17  1  0.63442757  0.14193436  -0.01082517  1
  V  V18  1  0.88123820  0.13904820  0.23627037  1
  V  V19  1  0.76525129  0.14415202  0.87341268  1
  V  V20  1  0.64703220  0.38071740  0.24810635  1
  V  V21  1  0.90149121  0.74136711  0.62628342  1
  V  V22  1  0.49362121  0.50953873  0.51974826  1
  V  V23  1  0.63139015  0.87363990  0.76481787  1
  V  V24  1  0.50265260  0.65790666  0.08981357  1
  V  V25  1  0.50319640  0.76797099  0.26251717  1
  V  V26  1  0.39065862  0.49328856  0.36246747  1
  V  V27  1  0.50954783  0.12025871  0.61478313  1
  V  V28  1  0.87360015  0.87264516  0.48494991  1
  V  V29  1  0.13487409  0.13291930  0.00320628  1
  V  V30  1  0.38592067  0.09866675  0.73982152  1
  V  V31  1  0.49917596  0.13621615  0.12293143  1
  V  V32  1  0.88479657  0.38792878  0.48656642  1
  V  V33  1  0.84243583  0.76238921  0.13178925  1
  V  V34  1  0.00237785  0.74921218  0.77426183  1
  V  V35  1  0.87485834  0.63017675  0.25846772  1
  V  V36  1  0.74288051  0.27777572  0.50244524  1
  V  V37  1  0.63235951  0.49815424  0.11960863  1
  V  V38  1  0.25217774  0.35629062  0.11976329  1
  V  V39  1  0.63847689  -0.00239278  0.62443160  1
  V  V40  1  0.02415359  0.51201608  0.49535373  1
  V  V41  1  0.51850294  0.25343435  0.74403394  1
  V  V42  1  0.25423379  0.77680592  0.01571819  1
  V  V43  1  -0.01851585  -0.00363855  0.46756443  1
  V  V44  1  0.88006406  0.25209093  0.62183654  1
  V  V45  1  0.26823065  0.13019918  0.37078563  1
  V  V46  1  0.23278231  0.25483889  0.48876989  1
  V  V47  1  0.75355338  -0.00657221  0.23844038  1
  V  V48  1  0.51157585  0.36413579  0.87144146  1
  V  V49  1  0.61443270  0.62573966  0.52185814  1
  V  V50  1  0.76221834  0.12064928  0.36706052  1
  V  V51  1  0.49052351  0.48167383  0.01288050  1
  V  V52  1  0.48048532  0.88409393  0.86480730  1
  V  V53  1  0.63110067  -0.00759558  0.12042250  1
  V  V54  1  0.21678898  0.10937245  0.83191167  1
  V  V55  1  -0.00109747  -0.00635183  -0.00672311  1
  V  V56  1  0.50902525  -0.01624209  0.47838629  1
  V  V57  1  0.00051217  0.39444943  0.88823722  1
  V  V58  1  0.38798983  0.63025927  0.23694948  1
  V  V59  1  0.01345538  0.25831933  0.75356312  1
  V  V60  1  0.00611970  0.64708195  0.13225778  1
  V  V61  1  0.75624527  0.49578615  0.73860593  1
  V  V62  1  0.76788907  0.00666248  0.76098092  1
  V  V63  1  0.49572258  0.00425184  -0.01163335  1
  V  V64  1  0.62787265  0.25567323  0.36507559  1
  V  V65  1  0.74869313  0.74600556  0.51277156  1
  V  V66  1  0.01447548  0.36288776  0.37236131  1
  V  V67  1  0.36069353  0.49984988  0.86820272  1
  V  V68  1  0.24338369  0.50365655  0.23606296  1
  V  V69  1  0.36431691  0.34709404  -0.00575136  1
  Zn  Zn70  1  0.49187565  0.73506227  0.73610869  1
  Zn  Zn71  1  0.13348551  0.39181499  0.75537483  1
  Zn  Zn72  1  0.31960239  0.82773982  0.18364446  1
  Zn  Zn73  1  0.60371579  0.76684242  0.38884866  1
  Zn  Zn74  1  0.76217995  0.87270403  0.63241536  1
  Zn  Zn75  1  0.01077117  0.49902428  0.01449981  1
  Zn  Zn76  1  0.18827542  0.17660780  0.18577058  1
  Zn  Zn77  1  0.19724954  0.05215153  0.65978225  1
  Zn  Zn78  1  0.18363074  0.70109795  0.19909621  1
  Zn  Zn79  1  0.06255590  0.57140092  0.67115991  1
  Zn  Zn80  1  0.69333562  0.19254125  0.17441225  1
  Zn  Zn81  1  0.70015522  0.18584846  0.68452179  1
  Zn  Zn82  1  0.67205429  0.68523351  0.18764859  1
  Zn  Zn83  1  0.65696414  0.66565108  0.80501761  1
  Zn  Zn84  1  0.31170665  0.31379168  0.30964994  1
  Zn  Zn85  1  0.31119430  0.29202685  0.80635463  1
  Zn  Zn86  1  0.22812139  0.82680659  0.35345061  1
  Zn  Zn87  1  0.29933782  0.82452142  0.82140788  1
  Zn  Zn88  1  0.82045604  0.31510811  0.31934069  1
  Zn  Zn89  1  0.80986298  0.32571570  0.94313764  1
  Zn  Zn90  1  0.77910333  0.80661098  0.31959118  1
  Zn  Zn91  1  0.80909462  0.79869748  0.80718366  1
  Zn  Zn92  1  0.19637651  0.43975595  0.42551441  1
  Zn  Zn93  1  0.18253738  0.43390025  0.93880215  1
  Zn  Zn94  1  0.15328852  0.90819840  0.54843762  1
  Zn  Zn95  1  0.18728089  0.95415292  0.94157018  1
  Zn  Zn96  1  0.67736253  0.43881563  0.45029812  1
  Zn  Zn97  1  0.67723499  0.47841143  0.92100226  1
  Zn  Zn98  1  0.69209183  0.93165025  0.43174994  1
  Zn  Zn99  1  0.68685695  0.94814857  0.94001259  1
  Zn  Zn100  1  0.31696643  0.05709738  0.07079095  1
  Zn  Zn101  1  0.30167820  -0.01493472  0.47959654  1
  Zn  Zn102  1  0.31798445  0.55706790  0.06045670  1
  Zn  Zn103  1  0.20745703  0.56289253  0.56747350  1
  Zn  Zn104  1  0.81760642  0.06468575  0.05583446  1
  Zn  Zn105  1  0.81759907  0.06491909  0.56099398  1
  Zn  Zn106  1  0.84170672  0.54280207  0.10691374  1
  Zn  Zn107  1  0.82073875  0.56874451  0.55215650  1
  Zn  Zn108  1  0.43153489  0.41898776  0.18726209  1
  Zn  Zn109  1  0.42884568  0.43400044  0.68956763  1
  Zn  Zn110  1  0.45142055  0.95124509  0.19224845  1
  Zn  Zn111  1  0.44115650  0.90650240  0.66483716  1
  Zn  Zn112  1  0.95155269  0.46092839  0.20882537  1
  Zn  Zn113  1  0.94563115  0.43039599  0.67567567  1
  Zn  Zn114  1  0.93059274  0.94639860  0.17982511  1
  Zn  Zn115  1  0.94260617  0.92257145  0.68976775  1
  Zn  Zn116  1  0.06818427  0.05466364  0.30639973  1
  Zn  Zn117  1  0.04396162  0.07574176  0.81846845  1
  Zn  Zn118  1  0.06362446  0.56306198  0.31527266  1
  Zn  Zn119  1  0.06773872  0.56994075  0.83177968  1
  Zn  Zn120  1  0.57063478  0.06803065  0.30191115  1
  Zn  Zn121  1  0.57339909  0.06589456  0.80701896  1
  Zn  Zn122  1  0.56910079  0.56063465  0.30953429  1
  Zn  Zn123  1  0.51878177  0.57711075  0.85522810  1
  Zn  Zn124  1  0.45089505  0.18570292  0.43334597  1
  Zn  Zn125  1  0.43877620  0.17609151  0.92467021  1
  Zn  Zn126  1  0.41923735  0.68767265  0.43691064  1
  Zn  Zn127  1  0.41965826  0.70256136  0.91961527  1
  Zn  Zn128  1  0.93940768  0.18949314  0.44038523  1
  Zn  Zn129  1  0.94150300  0.19480476  0.94093657  1
  Zn  Zn130  1  0.93905411  0.68958673  0.43758818  1
  Zn  Zn131  1  0.94111456  0.70185295  0.96288324  1
  Zn  Zn132  1  0.06267530  0.30951952  0.06504487  1
  Zn  Zn133  1  0.06286226  0.31850834  0.56685722  1
  Zn  Zn134  1  0.06404636  0.82226774  0.06106421  1
  Zn  Zn135  1  0.11545632  0.73343162  0.60600558  1
  Zn  Zn136  1  0.57585132  0.31650459  0.06368498  1
  Zn  Zn137  1  0.56720467  0.31473052  0.55457046  1
  Zn  Zn138  1  0.45130416  0.81865084  0.05316003  1
  Zn  Zn139  1  0.56412456  0.81106694  0.57306318  1
  O  O140  1  0.11086202  0.11930888  0.12414839  1
  O  O141  1  0.10631925  0.12174126  0.59853988  1
  O  O142  1  0.11256982  0.63388156  0.13177706  1
  O  O143  1  0.14572608  0.63127674  0.62700607  1
  O  O144  1  0.62172635  0.12680613  0.10616365  1
  O  O145  1  0.62819492  0.12188124  0.61006283  1
  O  O146  1  0.59627906  0.61191347  0.12465886  1
  O  O147  1  0.60691200  0.63045935  0.61627521  1
  O  O148  1  0.37389554  0.38525509  0.37823287  1
  O  O149  1  0.36429641  0.36965887  0.88633092  1
  O  O150  1  0.28258423  0.87103590  0.45216717  1
  O  O151  1  0.38280938  0.89864422  0.85341906  1
  O  O152  1  0.90396536  0.37606564  0.37353706  1
  O  O153  1  0.90431430  0.36400622  0.88121326  1
  O  O154  1  0.85920426  0.86535825  0.38748405  1
  O  O155  1  0.86569935  0.85737219  0.88950742  1
  O  O156  1  0.26416056  0.02383219  0.37567075  1
  O  O157  1  0.25286696  0.02911463  0.88306557  1
  O  O158  1  0.26288748  0.50299995  0.35240523  1
  O  O159  1  0.26263017  0.50065286  0.88850185  1
  O  O160  1  0.74442292  0.01682459  0.35593457  1
  O  O161  1  0.75139436  0.00829707  0.86197882  1
  O  O162  1  0.74113123  0.51958253  0.39117077  1
  O  O163  1  0.77188061  0.50615952  0.84177314  1
  O  O164  1  0.26191490  0.48437694  0.13445278  1
  O  O165  1  0.26633866  0.47812117  0.61696274  1
  O  O166  1  0.26228272  1.00894797  0.15759223  1
  O  O167  1  0.21474314  1.01496686  0.54948142  1
  O  O168  1  0.72748847  0.52190317  0.11105100  1
  O  O169  1  0.76195775  0.50666544  0.63381009  1
  O  O170  1  0.74140665  1.01026822  0.12777155  1
  O  O171  1  0.74918771  1.00940667  0.63490206  1
  O  O172  1  0.01811398  0.38303132  0.25723780  1
  O  O173  1  -0.00110530  0.36890782  0.75630316  1
  O  O174  1  0.00722041  0.88894003  0.24251081  1
  O  O175  1  0.00498770  0.84924871  0.74988106  1
  O  O176  1  0.51386628  0.35845074  0.24278446  1
  O  O177  1  0.49852317  0.36183391  0.75590153  1
  O  O178  1  0.49979581  0.86702855  0.25819899  1
  O  O179  1  0.52213487  0.90149512  0.76484463  1
  O  O180  1  0.51348739  0.13922230  0.23056922  1
  O  O181  1  0.50825265  0.13433328  0.73187345  1
  O  O182  1  0.48753442  0.62026020  0.25202911  1
  O  O183  1  0.54813951  0.64595168  0.77408703  1
  O  O184  1  0.98888922  0.11449392  0.23815430  1
  O  O185  1  1.00003815  0.14039583  0.72907455  1
  O  O186  1  0.98796473  0.62138852  0.24232905  1
  O  O187  1  1.01092685  0.64390289  0.75189191  1
  O  O188  1  0.37253881  0.24857355  -0.01226153  1
  O  O189  1  0.39461095  0.26214380  0.50124302  1
  O  O190  1  0.35570946  0.75886206  -0.00331107  1
  O  O191  1  0.35878262  0.73643815  0.52047971  1
  O  O192  1  0.87640089  0.26073449  0.00344114  1
  O  O193  1  0.86687479  0.26365095  0.49580759  1
  O  O194  1  0.87033098  0.76595917  0.02088668  1
  O  O195  1  0.87533249  0.75846057  0.50596984  1
  O  O196  1  0.13539640  0.26139026  0.49524789  1
  O  O197  1  0.12761534  0.23299989  1.00995236  1
  O  O198  1  0.07977266  0.77004099  0.42892102  1
  O  O199  1  0.13689309  0.75003892  1.00377280  1
  O  O200  1  0.62828791  0.23324394  0.48368476  1
  O  O201  1  0.62611603  0.24190568  0.99408932  1
  O  O202  1  0.62839396  0.73989580  0.50513344  1
  O  O203  1  0.50682391  0.72115654  1.00939073  1
  O  O204  1  0.50960694  0.24594750  0.13116655  1
  O  O205  1  0.50392203  0.24775129  0.62581987  1
  O  O206  1  0.50006450  0.74260519  0.15025945  1
  O  O207  1  0.48206661  0.80046702  0.64636300  1
  O  O208  1  1.00056917  0.23270815  0.12426819  1
  O  O209  1  0.99469072  0.24562227  0.62168059  1
  O  O210  1  1.00233714  0.74743951  0.13167352  1
  O  O211  1  1.00382411  0.75151373  0.62022605  1
  O  O212  1  0.01079219  0.26322909  0.38235315  1
  O  O213  1  0.00124655  0.23921373  0.85273333  1
  O  O214  1  0.01826516  0.75981622  0.37946220  1
  O  O215  1  0.00395401  0.74718565  0.87962471  1
  O  O216  1  0.51807593  0.23830705  0.35390743  1
  O  O217  1  0.49883254  0.25257856  0.85363186  1
  O  O218  1  0.48990596  0.74718741  0.36693810  1
  O  O219  1  0.48308565  0.78049201  0.85855368  1
  O  O220  1  0.24371246  0.14677000  0.48409099  1
  O  O221  1  0.23207408  0.11447106  1.02167894  1
  O  O222  1  0.25420889  0.60838010  0.47490720  1
  O  O223  1  0.23969776  0.63427158  1.02280517  1
  O  O224  1  0.74856006  0.12318837  0.48189146  1
  O  O225  1  0.74183481  0.12133133  0.98619809  1
  O  O226  1  0.72781790  0.62364563  0.50652641  1
  O  O227  1  0.81360542  0.58172767  0.98359433  1
  O  O228  1  0.25327964  0.36725839  0.01024610  1
  O  O229  1  0.26456840  0.36723539  0.49554466  1
  O  O230  1  0.24677040  0.87566573  0.00663918  1
  O  O231  1  0.19689840  0.80303021  0.57217553  1
  O  O232  1  0.76087522  0.42147078  -0.03586880  1
  O  O233  1  0.78306038  0.37935727  0.46264382  1
  O  O234  1  0.75862683  0.88459353  0.00127649  1
  O  O235  1  0.75932647  0.86545577  0.50931144  1
  O  O236  1  0.14254754  0.49738209  0.24396098  1
  O  O237  1  0.10905852  0.50327313  0.75125302  1
  O  O238  1  0.14424799  0.97573958  0.27240099  1
  O  O239  1  0.14448395  1.07131151  0.76180791  1
  O  O240  1  0.62161434  0.48820229  0.23694063  1
  O  O241  1  0.65424435  0.48184086  0.73704650  1
  O  O242  1  0.63999794  1.01235323  0.23017345  1
  O  O243  1  0.64159477  1.00042890  0.73940575  1
  O  O244  1  0.37996299  0.01271174  0.25911673  1
  O  O245  1  0.40514465  0.00333703  0.72005815  1
  O  O246  1  0.37302389  0.49619743  0.25145320  1
  O  O247  1  0.37005281  0.48475080  0.76989562  1
  O  O248  1  0.85724583  0.01966922  0.23859438  1
  O  O249  1  0.86485257  -0.00716064  0.74603991  1
  O  O250  1  0.85838247  0.52952681  0.23105364  1
  O  O251  1  0.86210990  0.49544419  0.72898025  1
  O  O252  1  0.12697141  0.37539264  0.35678726  1
  O  O253  1  0.10993388  0.38020896  0.87029004  1
  O  O254  1  0.12035465  0.83750543  0.41808987  1
  O  O255  1  0.12312243  0.86722262  0.89049056  1
  O  O256  1  0.63058432  0.36689027  0.36165590  1
  O  O257  1  0.60719463  0.37637649  0.88037922  1
  O  O258  1  0.67581622  0.84732255  0.36294505  1
  O  O259  1  0.63244908  0.87847653  0.86615249  1
  O  O260  1  0.40087253  0.12869483  0.11457023  1
  O  O261  1  0.40174718  0.13208752  0.61943774  1
  O  O262  1  0.40008173  0.61950206  0.12494416  1
  O  O263  1  0.35345252  0.63965229  0.67987301  1
  O  O264  1  0.87587984  0.13490502  0.13257333  1
  O  O265  1  0.89283626  0.14046544  0.60444347  1
  O  O266  1  0.88305943  0.65413639  0.13341407  1
  O  O267  1  0.88725522  0.64290377  0.60591727  1
  O  O268  1  0.25184548  0.25823044  0.13435013  1
  O  O269  1  0.26876093  0.25791790  0.59692393  1
  O  O270  1  0.25061341  0.75992071  0.12091129  1
  O  O271  1  0.17236755  0.88057544  0.72134159  1
  O  O272  1  0.73727651  0.26269458  0.09955555  1
  O  O273  1  0.76674045  0.23920213  0.60604483  1
  O  O274  1  0.74376041  0.74738743  0.12477399  1
  O  O275  1  0.76680399  0.74568401  0.61368296  1
  O  O276  1  0.25193470  0.24944219  0.38190290  1
  O  O277  1  0.25714603  0.20244122  0.84915353  1
  O  O278  1  0.27561560  0.72372143  0.36834680  1
  O  O279  1  0.23779743  0.75949076  0.89476876  1
  O  O280  1  0.74456775  0.24631987  0.38473075  1
  O  O281  1  0.75543474  0.24306475  0.87649305  1
  O  O282  1  0.76296469  0.71981951  0.40223177  1
  O  O283  1  0.74543162  0.71652262  0.84678522  1
  O  O284  1  0.00662101  0.12367051  0.00902572  1
  O  O285  1  -0.00169776  0.10445777  0.49704345  1
  O  O286  1  0.01461845  0.63299733  0.02151308  1
  O  O287  1  0.00936475  0.61108118  0.48537702  1
  O  O288  1  0.51390421  0.12412892  0.00023302  1
  O  O289  1  0.52064193  0.11830945  0.49801347  1
  O  O290  1  0.49489245  0.58248387  -0.00009395  1
  O  O291  1  0.50154037  0.61722129  0.49487810  1
  O  O292  1  0.49457333  0.39352486  0.50698159  1
  O  O293  1  0.48562141  0.36160272  0.98879737  1
  O  O294  1  0.52908506  0.88497878  0.48896780  1
  O  O295  1  0.50039699  0.89437130  0.97716587  1
  O  O296  1  1.00355135  0.38203334  0.48555921  1
  O  O297  1  1.01290175  0.38163032  0.99410983  1
  O  O298  1  0.97784939  0.88692801  0.49175779  1
  O  O299  1  0.99016077  0.88850380  1.00371839  1
  O  O300  1  0.49084645  0.49675592  0.36562453  1
  O  O301  1  0.48330952  0.47045342  0.88526020  1
  O  O302  1  0.52434805  1.00356251  0.38043040  1
  O  O303  1  0.51021505  1.00498227  0.88435057  1
  O  O304  1  1.01480492  0.48762372  0.38614602  1
  O  O305  1  0.99416476  0.49956502  0.89260074  1
  O  O306  1  0.98205472  1.00331334  0.37010257  1
  O  O307  1  0.99058323  1.01219043  0.89249052  1
  O  O308  1  -0.01647943  0.01950926  0.10717948  1
  O  O309  1  -0.00934236  0.01459973  0.63503500  1
  O  O310  1  -0.03995810  0.52181531  0.11194397  1
  O  O311  1  0.00520919  0.49642073  0.60214953  1
  O  O312  1  0.51520513  0.01750485  0.11549868  1
  O  O313  1  0.52415842  0.00762251  0.60746121  1
  O  O314  1  0.49955464  0.47715942  0.11539719  1
  O  O315  1  0.47990705  0.50933443  0.61733176  1
  O  O316  1  0.24427183  0.38003734  0.23966970  1
  O  O317  1  0.25438706  0.36229078  0.73216616  1
  O  O318  1  0.27930780  0.89142947  0.27039235  1
  O  O319  1  0.24144704  0.90565377  0.75220966  1
  O  O320  1  0.74586296  0.37877779  0.25562505  1
  O  O321  1  0.75684460  0.39231935  0.74122920  1
  O  O322  1  0.75794338  0.89642928  0.24266278  1
  O  O323  1  0.74617386  0.88897145  0.75063863  1
  O  O324  1  0.24388738  0.12201107  0.26809026  1
  O  O325  1  0.28139628  0.10329636  0.72797488  1
  O  O326  1  0.26735430  0.61214385  0.23520110  1
  O  O327  1  0.31395043  0.68566144  0.72168653  1
  O  O328  1  0.75909406  0.13366719  0.25610507  1
  O  O329  1  0.75235357  0.11901935  0.76157623  1
  O  O330  1  0.74623297  0.63073363  0.26720774  1
  O  O331  1  0.74028271  0.60142735  0.74147753  1
  O  O332  1  0.36667443  0.14074810  0.37370031  1
  O  O333  1  0.39683302  0.11438285  0.83868486  1
  O  O334  1  0.37120300  0.60691826  0.35570697  1
  O  O335  1  0.39777921  0.59967651  0.87644876  1
  O  O336  1  0.86499974  0.12994322  0.36723192  1
  O  O337  1  0.86307677  0.12887580  0.88335529  1
  O  O338  1  0.87818084  0.62708785  0.35995431  1
  O  O339  1  0.86508438  0.60386469  0.93437282  1
  O  O340  1  0.13833681  0.37211060  0.13459798  1
  O  O341  1  0.14629783  0.37429589  0.62119265  1
  O  O342  1  0.12378195  0.88872475  0.13122489  1
  O  O343  1  0.13862212  0.93348395  0.67104216  1
  O  O344  1  0.63508726  0.38530125  0.13665902  1
  O  O345  1  0.67231423  0.35549958  0.54003009  1
  O  O346  1  0.62043574  0.89717602  0.11775559  1
  O  O347  1  0.63746629  0.88996357  0.63162682  1
  O  O348  1  0.12786903  0.26046502  0.24731701  1
  O  O349  1  0.11067249  0.26261692  0.74060309  1
  O  O350  1  0.14998626  0.79203061  0.26256061  1
  O  O351  1  0.11818884  0.74917226  0.78224577  1
  O  O352  1  0.63195897  0.26367455  0.25111667  1
  O  O353  1  0.61702208  0.24948722  0.73630729  1
  O  O354  1  0.60311505  0.74190012  0.25884711  1
  O  O355  1  0.62959626  0.77651720  0.74429879  1
  O  O356  1  0.39299483  0.25861508  0.25030127  1
  O  O357  1  0.38964734  0.24099631  0.72717190  1
  O  O358  1  0.38434627  0.73288479  0.24416344  1
  O  O359  1  0.36519671  0.74290879  0.76724804  1
  O  O360  1  0.87768221  0.23758134  0.25554023  1
  O  O361  1  0.88236938  0.25736607  0.71987732  1
  O  O362  1  0.85265879  0.74229421  0.24368466  1
  O  O363  1  0.89117801  0.74666064  0.73539987  1
  O  O364  1  0.38903994  0.49412830  0.47898459  1
  O  O365  1  0.37941941  0.47722946  0.99614969  1
  O  O366  1  0.41117951  0.99698295  0.49348286  1
  O  O367  1  0.39766636  1.01568683  0.99982609  1
  O  O368  1  0.88807311  0.49062865  0.49784637  1
  O  O369  1  0.83223533  0.38765129  1.10569128  1
  O  O370  1  0.87423623  0.98757993  0.49746922  1
  O  O371  1  0.87885196  0.98487468  1.00142864  1
  O  O372  1  0.10545855  0.00933097  0.00215819  1
  O  O373  1  0.08537714  -0.01652558  0.49501905  1
  O  O374  1  0.12996094  0.51796292  0.00800387  1
  O  O375  1  0.12854366  0.49884304  0.49817449  1
  O  O376  1  0.61879344  0.01310286  0.00678167  1
  O  O377  1  0.63622858  0.00708799  0.50196589  1
  O  O378  1  0.60619099  0.47615490  0.01602765  1
  O  O379  1  0.60316383  0.51250198  0.50331489  1
  O  O380  1  0.36329730  0.36426353  0.10869692  1
  O  O381  1  0.37298846  0.36531032  0.61204883  1
  O  O382  1  0.39408082  0.88356444  0.12251824  1
  O  O383  1  0.34232406  0.88104668  0.60336265  1
  O  O384  1  0.88747459  0.36210376  0.14771180  1
  O  O385  1  0.88752364  0.36343643  0.59723842  1
  O  O386  1  0.86614533  0.86355294  0.12973545  1
  O  O387  1  0.87777576  0.85801114  0.61648751  1
  O  O388  1  0.12801659  0.10929551  0.39371470  1
  O  O389  1  0.12682892  0.12547326  0.89592126  1
  O  O390  1  0.14965799  0.62821945  0.34894719  1
  O  O391  1  0.12398925  0.63967045  0.90563693  1
  O  O392  1  0.64182950  0.13496315  0.37183177  1
  O  O393  1  0.63440312  0.12640446  0.88410737  1
  O  O394  1  0.62766487  0.63145321  0.37943261  1
  O  O395  1  0.63152698  0.57401572  0.88264997  1
