# generated using pymatgen
data_V35Zn35O128
_symmetry_space_group_name_H-M   'P 1'
_cell_length_a   16.91018882
_cell_length_b   16.91764829
_cell_length_c   16.84232266
_cell_angle_alpha   90.03862731
_cell_angle_beta   89.89697343
_cell_angle_gamma   89.81751857
_symmetry_Int_Tables_number   1
_chemical_formula_structural   V35Zn35O128
_chemical_formula_sum   'V70 Zn70 O256'
_cell_volume   4818.22888204
_cell_formula_units_Z   2
loop_
 _symmetry_equiv_pos_site_id
 _symmetry_equiv_pos_as_xyz
  1  'x, y, z'
loop_
 _atom_site_type_symbol
 _atom_site_label
 _atom_site_symmetry_multiplicity
 _atom_site_fract_x
 _atom_site_fract_y
 _atom_site_fract_z
 _atom_site_occupancy
  V  V0  1  0.23364816  0.74262088  0.49854175  1
  V  V1  1  0.00538591  0.74530179  0.75231606  1
  V  V2  1  0.11854277  0.37575348  0.24130637  1
  V  V3  1  0.76513033  0.24949369  0.00583222  1
  V  V4  1  0.24190976  0.74855585  0.00105858  1
  V  V5  1  0.74201344  0.25607609  0.50039802  1
  V  V6  1  0.63051522  0.89173431  0.23799132  1
  V  V7  1  0.00380722  -0.00044161  0.52539145  1
  V  V8  1  0.12486604  0.13289982  0.00294436  1
  V  V9  1  0.62737159  0.74889880  0.38111241  1
  V  V10  1  -0.01849571  0.39853018  0.92435404  1
  V  V11  1  0.62052409  0.25212196  0.34999080  1
  V  V12  1  0.87214613  0.12600418  0.73199350  1
  V  V13  1  0.50895597  0.11053892  0.13532146  1
  V  V14  1  0.49872580  0.63237511  0.11317580  1
  V  V15  1  0.25237118  0.87997927  0.12245057  1
  V  V16  1  0.60372713  0.12753252  0.50663664  1
  V  V17  1  0.62223326  0.63031347  -0.00212299  1
  V  V18  1  0.87054807  0.73613536  0.12894448  1
  V  V19  1  0.22416727  0.49530673  0.76443512  1
  V  V20  1  0.87245358  -0.00603536  0.37031734  1
  V  V21  1  0.37666710  0.63588907  0.25018091  1
  V  V22  1  0.24711740  -0.01556777  0.78039655  1
  V  V23  1  0.49421273  0.24968465  0.74039849  1
  V  V24  1  0.26250168  0.38930730  0.61894613  1
  V  V25  1  -0.00077886  0.14282915  0.13670724  1
  V  V26  1  0.63187698  0.39381378  0.75274173  1
  V  V27  1  0.36647871  0.59691003  0.79741643  1
  V  V28  1  -0.00391720  0.74136672  0.24786024  1
  V  V29  1  0.76160856  0.89621174  0.12719469  1
  V  V30  1  0.60547423  -0.00156382  0.61792607  1
  V  V31  1  0.01461532  0.61071239  0.61345664  1
  V  V32  1  0.87619055  0.25431634  0.61749543  1
  V  V33  1  0.25843984  0.50490498  0.22652059  1
  V  V34  1  0.86524872  0.74878890  0.62290982  1
  V  V35  1  0.61359892  0.76642518  0.87297691  1
  V  V36  1  0.61015893  0.87432917  0.74988850  1
  V  V37  1  0.23650465  0.62375685  0.37581446  1
  V  V38  1  0.75080442  -0.00820226  0.73541441  1
  V  V39  1  0.62798207  0.25155313  0.87359866  1
  V  V40  1  0.61875176  0.10380386  -0.00648740  1
  V  V41  1  0.10941936  -0.00381152  0.13027905  1
  V  V42  1  0.11042504  0.51754529  0.11831319  1
  V  V43  1  0.23687277  0.87999156  0.61336501  1
  V  V44  1  0.43246660  0.81425362  0.06543637  1
  V  V45  1  0.86898502  0.60357720  0.74862254  1
  V  V46  1  0.75274541  0.11825100  0.86675919  1
  V  V47  1  0.12030977  0.86507777  0.75351273  1
  V  V48  1  0.75901190  0.76224757  -0.00892496  1
  V  V49  1  0.35565276  0.00299357  0.37467792  1
  V  V50  1  0.25584986  0.15005941  0.88296866  1
  V  V51  1  0.50075830  0.88646264  0.37398161  1
  V  V52  1  0.61304461  0.46795905  0.16415862  1
  V  V53  1  0.10956549  0.63135054  -0.01060436  1
  V  V54  1  0.50517800  0.38443244  0.88969394  1
  V  V55  1  0.35768350  0.37033465  -0.00167860  1
  V  V56  1  0.87642620  0.13940755  0.25481672  1
  V  V57  1  0.48993241  0.50310539  0.52415028  1
  V  V58  1  0.01148262  0.23647775  0.76146721  1
  V  V59  1  -0.00278011  0.86861355  0.38004235  1
  V  V60  1  0.74743037  0.11833005  0.37829865  1
  V  V61  1  0.35668012  0.12110445  0.24791850  1
  V  V62  1  0.85929316  0.86880766  0.51045780  1
  V  V63  1  0.74897007  0.38958211  0.62584541  1
  V  V64  1  0.37570975  0.24161769  0.11177471  1
  V  V65  1  0.12950349  0.87254706  0.25885415  1
  V  V66  1  0.16736653  0.15300004  0.47666271  1
  V  V67  1  0.38043541  0.87028295  0.50202410  1
  V  V68  1  0.49828083  0.75954149  0.24799095  1
  V  V69  1  0.61815712  0.61669246  0.51999795  1
  Zn  Zn70  1  0.37688152  0.50498451  0.38549131  1
  Zn  Zn71  1  0.75404747  0.63299918  0.86983078  1
  Zn  Zn72  1  0.76413958  0.63198854  0.36888862  1
  Zn  Zn73  1  0.37855800  0.11128518  0.74340294  1
  Zn  Zn74  1  -0.02999736  -0.05073139  -0.07607719  1
  Zn  Zn75  1  0.45009505  0.70531019  0.70672799  1
  Zn  Zn76  1  0.18615250  0.19166479  0.17533133  1
  Zn  Zn77  1  0.20649299  0.16039172  0.67181079  1
  Zn  Zn78  1  0.18916903  0.69506322  0.18142505  1
  Zn  Zn79  1  0.19942780  0.67503322  0.68412273  1
  Zn  Zn80  1  0.69513639  0.17030384  0.18068429  1
  Zn  Zn81  1  0.68172777  0.19094394  0.68143093  1
  Zn  Zn82  1  0.68737636  0.69675578  0.18964786  1
  Zn  Zn83  1  0.68951618  0.68606318  0.69168643  1
  Zn  Zn84  1  0.31968723  0.31584155  0.27013810  1
  Zn  Zn85  1  0.31313660  0.32713676  0.81121553  1
  Zn  Zn86  1  0.31287567  0.80787374  0.31877163  1
  Zn  Zn87  1  0.28925866  0.78732368  0.79891303  1
  Zn  Zn88  1  0.91558184  0.34601542  0.28530109  1
  Zn  Zn89  1  0.81792898  0.31421081  0.81402886  1
  Zn  Zn90  1  0.81025724  0.81403363  0.31096017  1
  Zn  Zn91  1  0.82670073  0.82267078  0.80660418  1
  Zn  Zn92  1  0.19557699  0.35214284  0.42638626  1
  Zn  Zn93  1  0.16752933  0.43240342  0.93885229  1
  Zn  Zn94  1  0.18050683  0.94179103  0.44004875  1
  Zn  Zn95  1  0.15130366  0.92297651  0.95076916  1
  Zn  Zn96  1  0.55117935  0.40808317  0.38936692  1
  Zn  Zn97  1  0.71021469  0.44998551  1.01511885  1
  Zn  Zn98  1  0.68261907  0.93731128  0.43948778  1
  Zn  Zn99  1  0.80793445  0.94965023  0.93773730  1
  Zn  Zn100  1  0.30932293  0.05521322  0.05972188  1
  Zn  Zn101  1  0.31736677  0.06427657  0.56072649  1
  Zn  Zn102  1  0.32799577  0.56748466  0.01821604  1
  Zn  Zn103  1  0.31000190  0.56388586  0.57692480  1
  Zn  Zn104  1  0.82353712  0.07492798  0.05929237  1
  Zn  Zn105  1  0.80608946  0.05587384  0.55647407  1
  Zn  Zn106  1  0.79247511  0.55263615  0.18314852  1
  Zn  Zn107  1  0.81696520  0.57909229  0.53684571  1
  Zn  Zn108  1  0.42444753  0.45686538  0.14437797  1
  Zn  Zn109  1  0.43227610  0.43359413  0.69930176  1
  Zn  Zn110  1  0.43841492  0.94943217  0.18982518  1
  Zn  Zn111  1  0.42726355  0.93067399  0.68740305  1
  Zn  Zn112  1  0.95822587  0.42298506  0.13192923  1
  Zn  Zn113  1  0.95350188  0.42527856  0.69226963  1
  Zn  Zn114  1  0.93775779  0.93229460  0.19271548  1
  Zn  Zn115  1  0.96660544  0.96733727  0.73796617  1
  Zn  Zn116  1  0.06052169  0.05735847  0.31932491  1
  Zn  Zn117  1  0.08950736  0.08337296  0.79845609  1
  Zn  Zn118  1  0.06783735  0.55895856  0.30463744  1
  Zn  Zn119  1  0.05144993  0.56339422  0.81801447  1
  Zn  Zn120  1  0.56155196  0.06448187  0.31980077  1
  Zn  Zn121  1  0.57068311  0.07405431  0.79632219  1
  Zn  Zn122  1  0.54942598  0.57134394  0.31529265  1
  Zn  Zn123  1  0.56410446  0.56880328  0.82368540  1
  Zn  Zn124  1  0.43104675  0.19652247  0.42025712  1
  Zn  Zn125  1  0.44084652  0.18809641  0.92633371  1
  Zn  Zn126  1  0.42954255  0.69095180  0.54840884  1
  Zn  Zn127  1  0.42517396  0.70034921  0.91357606  1
  Zn  Zn128  1  0.93086575  0.17605239  0.45053361  1
  Zn  Zn129  1  0.93366392  0.14100454  0.93785099  1
  Zn  Zn130  1  0.93878809  0.68064024  0.43813880  1
  Zn  Zn131  1  0.93223451  0.68867649  0.93214380  1
  Zn  Zn132  1  0.07890640  0.32526445  0.04707717  1
  Zn  Zn133  1  0.08630156  0.25837145  0.57175038  1
  Zn  Zn134  1  0.05161576  0.81155163  0.05963156  1
  Zn  Zn135  1  0.05383131  0.80367594  0.56473688  1
  Zn  Zn136  1  0.56611635  0.29171039  0.06559934  1
  Zn  Zn137  1  0.56278864  0.32533683  0.56518912  1
  Zn  Zn138  1  0.61249169  0.89201205  0.01357606  1
  Zn  Zn139  1  0.56729213  0.81345280  0.56653724  1
  O  O140  1  0.10955418  0.11012028  0.14673005  1
  O  O141  1  0.13417929  0.14491807  0.57777301  1
  O  O142  1  0.12880552  0.62277364  0.11703346  1
  O  O143  1  0.11361337  0.62215942  0.63021032  1
  O  O144  1  0.61696347  0.11995852  0.10605843  1
  O  O145  1  0.61919648  0.11402167  0.61535694  1
  O  O146  1  0.61738928  0.64697706  0.10547569  1
  O  O147  1  0.62136800  0.63395305  0.61974320  1
  O  O148  1  0.41872046  0.37830044  0.30765072  1
  O  O149  1  0.39120186  0.37078095  0.89294898  1
  O  O150  1  0.37846074  0.88655309  0.37662923  1
  O  O151  1  0.39447713  0.97227740  0.92562215  1
  O  O152  1  0.96028613  0.32624579  0.39412452  1
  O  O153  1  0.90247045  0.36161971  0.87194449  1
  O  O154  1  0.87686828  0.87653432  0.38421441  1
  O  O155  1  0.88179854  0.88956826  0.87613357  1
  O  O156  1  0.25720728  -0.00658032  0.37139555  1
  O  O157  1  0.24283225  -0.03435074  0.87776625  1
  O  O158  1  0.26551188  0.52090786  0.35640887  1
  O  O159  1  0.23363811  0.48876079  0.86687510  1
  O  O160  1  0.75781762  0.00946917  0.38750697  1
  O  O161  1  0.74442476  0.01339012  0.85531112  1
  O  O162  1  0.84062451  0.43311038  0.40896815  1
  O  O163  1  0.79751381  0.50889729  0.94265853  1
  O  O164  1  0.24956000  0.51791652  0.12758732  1
  O  O165  1  0.24590387  0.49513468  0.64254272  1
  O  O166  1  0.24784486  0.98489443  0.13080960  1
  O  O167  1  0.24294381  0.97911809  0.61078124  1
  O  O168  1  0.70589556  0.49663250  0.12291589  1
  O  O169  1  0.76795677  0.48378497  0.60375022  1
  O  O170  1  0.76216933  0.99556608  0.12081394  1
  O  O171  1  0.73254702  1.00447778  0.63223786  1
  O  O172  1  0.01146212  0.37865647  0.22966764  1
  O  O173  1  0.01028046  0.33681598  0.73991859  1
  O  O174  1  0.00602397  0.86687356  0.26096920  1
  O  O175  1  0.01387828  0.85889679  0.73575781  1
  O  O176  1  0.47007546  0.38563600  0.25002281  1
  O  O177  1  0.51562077  0.37141087  0.75961051  1
  O  O178  1  0.51057999  0.87769981  0.24955167  1
  O  O179  1  0.51077886  0.87846635  0.74903999  1
  O  O180  1  0.50189411  0.11566399  0.23709763  1
  O  O181  1  0.49097690  0.13982364  0.75484872  1
  O  O182  1  0.49638218  0.64225041  0.23407508  1
  O  O183  1  0.47231807  0.61071421  0.77179588  1
  O  O184  1  0.98779980  0.11947358  0.25032186  1
  O  O185  1  0.97262035  0.12593361  0.72802382  1
  O  O186  1  1.00395745  0.64313637  0.25617145  1
  O  O187  1  0.98813328  0.63149041  0.74204917  1
  O  O188  1  0.38083270  0.25505347  0.00193409  1
  O  O189  1  0.35710438  0.28804943  0.43405375  1
  O  O190  1  0.37221813  0.76026245  0.00136719  1
  O  O191  1  0.36180388  0.76867491  0.48789945  1
  O  O192  1  0.86112010  0.22303594  -0.01259618  1
  O  O193  1  0.85282193  0.24515530  0.50661932  1
  O  O194  1  0.86515357  0.75091356  0.00943818  1
  O  O195  1  0.87959333  0.75956510  0.51021189  1
  O  O196  1  0.14504765  0.25643224  0.46769906  1
  O  O197  1  0.13810966  0.22688452  1.03981177  1
  O  O198  1  0.13491099  0.75307514  0.49392822  1
  O  O199  1  0.13357812  0.74170109  1.01102204  1
  O  O200  1  0.62881020  0.23648540  0.51060160  1
  O  O201  1  0.63809682  0.23723065  0.98706524  1
  O  O202  1  0.61523043  0.74871086  0.48498047  1
  O  O203  1  0.63693695  0.76990404  0.98094173  1
  O  O204  1  0.48925237  0.21797860  0.11041125  1
  O  O205  1  0.50828383  0.25929303  0.64125801  1
  O  O206  1  0.49317236  0.75353746  0.12685842  1
  O  O207  1  0.48620513  0.76326312  0.62179069  1
  O  O208  1  1.00425762  0.23901247  0.13633993  1
  O  O209  1  0.97660941  0.25078251  0.60447858  1
  O  O210  1  0.98123500  0.75780372  0.13355344  1
  O  O211  1  0.99058327  0.73379979  0.63057566  1
  O  O212  1  -0.00250436  0.25779275  0.39594259  1
  O  O213  1  -0.00548564  0.21847463  0.85797641  1
  O  O214  1  -0.01389185  0.75804805  0.36227571  1
  O  O215  1  -0.00610508  0.74698082  0.85143467  1
  O  O216  1  0.52110548  0.24853262  0.37331952  1
  O  O217  1  0.51302634  0.25923378  0.86672353  1
  O  O218  1  0.50928310  0.77052979  0.35929936  1
  O  O219  1  0.51580525  0.76004074  0.87500051  1
  O  O220  1  0.26593143  0.13173404  0.47938897  1
  O  O221  1  0.24772571  0.12169467  0.98692393  1
  O  O222  1  0.25362605  0.63291584  0.48693255  1
  O  O223  1  0.24794609  0.64566975  1.00525275  1
  O  O224  1  0.73893173  0.13017107  0.49487096  1
  O  O225  1  0.73990092  0.12306630  0.97963289  1
  O  O226  1  0.71741346  0.62082213  0.48728200  1
  O  O227  1  0.73458209  0.65695169  0.99544703  1
  O  O228  1  0.25981916  0.37220710  -0.00919238  1
  O  O229  1  0.24241040  0.39648016  0.51878602  1
  O  O230  1  0.23739527  0.87223840  0.01946586  1
  O  O231  1  0.25000461  0.86434413  0.50034728  1
  O  O232  1  0.75563181  0.35128395  -0.00221231  1
  O  O233  1  0.73388393  0.35777621  0.51411313  1
  O  O234  1  0.74515634  0.87616226  0.01280727  1
  O  O235  1  0.76028024  0.87548576  0.49884164  1
  O  O236  1  0.13846995  0.50425327  0.23267605  1
  O  O237  1  0.12452653  0.50247048  0.75313188  1
  O  O238  1  0.11851285  0.98287880  0.24457158  1
  O  O239  1  0.14336318  0.97558935  0.74367368  1
  O  O240  1  0.61468823  0.48791541  0.26282942  1
  O  O241  1  0.62976145  0.49210082  0.76249191  1
  O  O242  1  0.62632982  0.98934128  0.25719808  1
  O  O243  1  0.62805730  0.99308967  0.73957592  1
  O  O244  1  0.37183427  0.00814925  0.26088270  1
  O  O245  1  0.34909355  -0.00979502  0.75000500  1
  O  O246  1  0.36714647  0.51923045  0.22995836  1
  O  O247  1  0.36540953  0.49804509  0.76947742  1
  O  O248  1  0.87665564  -0.00082999  0.26718624  1
  O  O249  1  0.85641137  0.01356995  0.73109216  1
  O  O250  1  0.92492117  0.48615941  0.32206101  1
  O  O251  1  0.88165531  0.50548368  0.74735986  1
  O  O252  1  0.12925683  0.39147124  0.34259315  1
  O  O253  1  0.08135276  0.35771168  0.92645507  1
  O  O254  1  0.11581334  0.87589402  0.36465364  1
  O  O255  1  0.12784480  0.86000925  0.85132339  1
  O  O256  1  0.63998704  0.35133438  0.35787541  1
  O  O257  1  0.62267245  0.36650110  0.86412354  1
  O  O258  1  0.61929794  0.87275395  0.36711486  1
  O  O259  1  0.62548001  0.87453841  0.85886456  1
  O  O260  1  0.38366545  0.11667379  0.13232716  1
  O  O261  1  0.31618487  0.13021281  0.65159224  1
  O  O262  1  0.39582507  0.62258108  0.11311465  1
  O  O263  1  0.36916155  0.64110824  0.63469463  1
  O  O264  1  0.88804428  0.12253925  0.14414557  1
  O  O265  1  0.85231227  0.13940455  0.62679227  1
  O  O266  1  0.86363140  0.63781737  0.12845919  1
  O  O267  1  0.87756759  0.63109708  0.63057183  1
  O  O268  1  0.27647271  0.23064049  0.11730280  1
  O  O269  1  0.22925408  0.27959085  0.63921305  1
  O  O270  1  0.25361575  0.76726020  0.11770285  1
  O  O271  1  0.24808307  0.75291577  0.60544607  1
  O  O272  1  0.75404656  0.22818900  0.10464770  1
  O  O273  1  0.75227142  0.25782338  0.61786448  1
  O  O274  1  0.76003068  0.76301142  0.11699860  1
  O  O275  1  0.76616887  0.74454607  0.62735126  1
  O  O276  1  0.29342638  0.28788860  0.38341085  1
  O  O277  1  0.24679303  0.24714522  0.86636034  1
  O  O278  1  0.25020920  0.73513353  0.38098082  1
  O  O279  1  0.25088756  0.77142735  0.90346224  1
  O  O280  1  0.73435906  0.23589723  0.39127808  1
  O  O281  1  0.74343399  0.23940075  0.87107140  1
  O  O282  1  0.73110421  0.75401396  0.36760924  1
  O  O283  1  0.75676408  0.76316742  0.88424640  1
  O  O284  1  0.01581541  0.12807192  0.02344924  1
  O  O285  1  -0.01275286  0.09899257  0.50720680  1
  O  O286  1  0.01026254  0.64153124  0.00021360  1
  O  O287  1  0.00518102  0.62432765  0.51299925  1
  O  O288  1  0.51894575  0.12206699  -0.01698274  1
  O  O289  1  0.50542001  0.13470162  0.49563348  1
  O  O290  1  0.51503278  0.64394592  -0.00354204  1
  O  O291  1  0.50623241  0.61776543  0.50264672  1
  O  O292  1  0.50756318  0.39664248  0.49889918  1
  O  O293  1  0.51404030  0.36601324  0.98935718  1
  O  O294  1  0.48547003  0.87195166  0.49050216  1
  O  O295  1  0.49716904  0.86881358  1.01417375  1
  O  O296  1  1.03562785  0.39491369  0.52169995  1
  O  O297  1  0.96647908  0.37969134  1.02875483  1
  O  O298  1  0.98945231  0.87538106  0.49421688  1
  O  O299  1  1.04547345  0.89672509  0.98895501  1
  O  O300  1  0.49062078  0.50184946  0.38181045  1
  O  O301  1  0.51065435  0.48290361  0.88188953  1
  O  O302  1  0.49177966  0.98969585  0.37275579  1
  O  O303  1  0.45695015  0.97131314  0.88244396  1
  O  O304  1  0.98222274  0.50363756  0.36807185  1
  O  O305  1  0.99688094  0.49271581  0.89112993  1
  O  O306  1  0.98852849  0.98331112  0.38250372  1
  O  O307  1  1.00892637  1.01239931  0.83503481  1
  O  O308  1  0.00816289  -0.00250288  0.12756875  1
  O  O309  1  -0.00925820  -0.01372032  0.62400508  1
  O  O310  1  0.01150953  0.52455577  0.12975557  1
  O  O311  1  -0.00535370  0.51128140  0.62965103  1
  O  O312  1  0.49939079  0.01129844  0.11579108  1
  O  O313  1  0.50617726  -0.00042178  0.63101985  1
  O  O314  1  0.52462735  0.51753290  0.12653049  1
  O  O315  1  0.49088776  0.49924942  0.62407336  1
  O  O316  1  0.25254963  0.40078386  0.23764771  1
  O  O317  1  0.24795097  0.39147618  0.74511700  1
  O  O318  1  0.23440419  0.86148221  0.24524918  1
  O  O319  1  0.24445498  0.86828996  0.73380233  1
  O  O320  1  0.82480743  0.39872543  0.23352322  1
  O  O321  1  0.74227926  0.37519510  0.74226297  1
  O  O322  1  0.74033416  0.87599962  0.23853750  1
  O  O323  1  0.74530842  0.89081415  0.74884452  1
  O  O324  1  0.25851434  0.12523814  0.24534566  1
  O  O325  1  0.22600785  0.09429939  0.78861185  1
  O  O326  1  0.25623016  0.62991148  0.25319039  1
  O  O327  1  0.26051035  0.60855971  0.75987428  1
  O  O328  1  0.76595040  0.12420141  0.26328257  1
  O  O329  1  0.74409508  0.11866976  0.75127712  1
  O  O330  1  0.74401530  0.62222923  0.25585346  1
  O  O331  1  0.76270994  0.61917915  0.74995137  1
  O  O332  1  0.37842205  0.11266991  0.35997127  1
  O  O333  1  0.35756774  0.13226545  0.86493701  1
  O  O334  1  0.37842263  0.62894767  0.35014116  1
  O  O335  1  0.36861061  0.59710618  0.90154940  1
  O  O336  1  0.86912412  0.11552966  0.37112278  1
  O  O337  1  0.85636702  0.13036343  0.84616464  1
  O  O338  1  0.85695681  0.60450447  0.42859653  1
  O  O339  1  0.87252722  0.62875628  0.85411384  1
  O  O340  1  0.12388120  0.40430579  0.12297636  1
  O  O341  1  0.15750430  0.32500175  0.64012615  1
  O  O342  1  0.13113142  0.88496202  0.13594562  1
  O  O343  1  0.13493008  0.86404282  0.62614389  1
  O  O344  1  0.60142439  0.37027354  0.14187111  1
  O  O345  1  0.63759647  0.38023262  0.64137351  1
  O  O346  1  0.63807713  0.88541601  0.13306572  1
  O  O347  1  0.62333675  0.88956278  0.63310589  1
  O  O348  1  0.14471176  0.27914474  0.23234189  1
  O  O349  1  0.10514218  0.19195684  0.74066448  1
  O  O350  1  0.10677782  0.76392162  0.23720197  1
  O  O351  1  0.11608574  0.75037400  0.73906667  1
  O  O352  1  0.62950573  0.22773348  0.25318235  1
  O  O353  1  0.61777244  0.25135121  0.75802119  1
  O  O354  1  0.61439237  0.76730378  0.25111725  1
  O  O355  1  0.63395638  0.76676681  0.75732862  1
  O  O356  1  0.38144942  0.22739007  0.23445404  1
  O  O357  1  0.39534287  0.26585870  0.75593231  1
  O  O358  1  0.38785688  0.75182095  0.24823471  1
  O  O359  1  0.37535610  0.71980015  0.79702212  1
  O  O360  1  0.87894318  0.23729540  0.26355027  1
  O  O361  1  0.87738933  0.24086796  0.73392293  1
  O  O362  1  0.88110205  0.75376461  0.23942527  1
  O  O363  1  0.88627556  0.75301754  0.73467404  1
  O  O364  1  0.38526867  0.51130019  0.50333842  1
  O  O365  1  0.38178562  0.46888923  1.02942681  1
  O  O366  1  0.36783177  0.98889585  0.48448555  1
  O  O367  1  0.40016945  1.01594497  0.99436255  1
  O  O368  1  0.87785863  0.44476426  0.47073269  1
  O  O369  1  0.86193695  0.51405562  0.98088697  1
  O  O370  1  0.87947752  0.98343121  0.49756513  1
  O  O371  1  0.88669796  1.02997192  0.97563120  1
  O  O372  1  0.13715104  0.02164845  0.02802125  1
  O  O373  1  0.10361533  -0.01304265  0.50759349  1
  O  O374  1  0.12846972  0.52037308  0.00941582  1
  O  O375  1  0.07676408  0.45088725  0.49976847  1
  O  O376  1  0.62740684  0.00501657  -0.01193282  1
  O  O377  1  0.61943912  0.00942701  0.50990473  1
  O  O378  1  0.63496394  0.53235130  -0.01782239  1
  O  O379  1  0.60594092  0.51482249  0.50880666  1
  O  O380  1  0.38368052  0.34855376  0.11577543  1
  O  O381  1  0.36232916  0.37692344  0.62670505  1
  O  O382  1  0.36870631  0.87847112  0.12438380  1
  O  O383  1  0.36173596  0.87886743  0.60639820  1
  O  O384  1  0.85673721  0.45503486  0.18203428  1
  O  O385  1  0.86140266  0.36077969  0.63292059  1
  O  O386  1  0.86315624  0.87235985  0.12941910  1
  O  O387  1  0.87314724  0.86196811  0.61444205  1
  O  O388  1  0.12432593  0.10795479  0.39557842  1
  O  O389  1  0.12916261  0.13463313  0.90122910  1
  O  O390  1  0.13781005  0.61721891  0.37339017  1
  O  O391  1  0.12047628  0.62666730  0.88955468  1
  O  O392  1  0.62878933  0.12594371  0.38983391  1
  O  O393  1  0.63342720  0.12932493  0.87498123  1
  O  O394  1  0.61493422  0.64802404  0.36861222  1
  O  O395  1  0.63320819  0.64952029  0.87627512  1
