# generated using pymatgen
data_V35Zn35O128
_symmetry_space_group_name_H-M   'P 1'
_cell_length_a   16.93037171
_cell_length_b   16.95702695
_cell_length_c   16.83206510
_cell_angle_alpha   90.15750202
_cell_angle_beta   89.74269197
_cell_angle_gamma   89.95896827
_symmetry_Int_Tables_number   1
_chemical_formula_structural   V35Zn35O128
_chemical_formula_sum   'V70 Zn70 O256'
_cell_volume   4832.22858906
_cell_formula_units_Z   2
loop_
 _symmetry_equiv_pos_site_id
 _symmetry_equiv_pos_as_xyz
  1  'x, y, z'
loop_
 _atom_site_type_symbol
 _atom_site_label
 _atom_site_symmetry_multiplicity
 _atom_site_fract_x
 _atom_site_fract_y
 _atom_site_fract_z
 _atom_site_occupancy
  V  V0  1  0.62533765  0.12559720  0.48611323  1
  V  V1  1  0.11410032  0.36078407  0.74121034  1
  V  V2  1  0.36385647  0.24564966  0.63116100  1
  V  V3  1  0.11639728  0.50142221  0.12061347  1
  V  V4  1  0.88237955  0.25919305  0.62943554  1
  V  V5  1  0.86820478  0.37735026  0.49538140  1
  V  V6  1  0.63658911  0.26270577  0.87686754  1
  V  V7  1  0.51625292  0.75213193  0.75177573  1
  V  V8  1  0.49528980  0.00124954  0.50567240  1
  V  V9  1  0.75284625  0.11688230  0.86474449  1
  V  V10  1  0.88440896  -0.00538812  0.87172496  1
  V  V11  1  0.48805429  0.51383583  0.00899574  1
  V  V12  1  0.50117884  0.25805228  0.75180468  1
  V  V13  1  0.13149811  0.00019949  0.64378622  1
  V  V14  1  0.00135310  0.38640694  0.88601848  1
  V  V15  1  0.49285429  0.61984834  0.61825584  1
  V  V16  1  0.64601050  0.61286966  -0.02916239  1
  V  V17  1  0.37417568  0.23699119  0.13236012  1
  V  V18  1  0.25092887  0.77420186  0.01045629  1
  V  V19  1  0.02851339  0.87040201  0.85840560  1
  V  V20  1  0.50790777  0.12452399  0.63735661  1
  V  V21  1  0.38641172  0.75401157  0.12337074  1
  V  V22  1  0.36157831  0.50210219  0.86751833  1
  V  V23  1  0.64963408  0.86341140  0.24583992  1
  V  V24  1  0.86776655  0.23932310  0.11508645  1
  V  V25  1  0.88353455  0.61841308  0.76728165  1
  V  V26  1  0.50206454  0.35703740  0.36620023  1
  V  V27  1  0.06735697  0.06121398  0.05081923  1
  V  V28  1  0.01497706  0.01206552  0.50700949  1
  V  V29  1  0.49364531  0.87010358  0.37959782  1
  V  V30  1  0.37099924  0.50148459  0.37684170  1
  V  V31  1  0.13983264  0.74160027  0.86371290  1
  V  V32  1  0.86231542  0.00513178  0.38403854  1
  V  V33  1  0.65764977  0.39145038  0.19459269  1
  V  V34  1  0.11404796  0.50608707  0.62407419  1
  V  V35  1  -0.01045582  0.23251173  0.24432484  1
  V  V36  1  0.86455522  0.87091904  0.51761099  1
  V  V37  1  0.87529731  0.61619141  0.25778808  1
  V  V38  1  0.00735695  0.76037181  0.25889086  1
  V  V39  1  0.14093208  0.62535912  -0.00107966  1
  V  V40  1  0.90899134  0.74181072  0.62998029  1
  V  V41  1  0.75517733  0.60600868  0.37211740  1
  V  V42  1  0.24160441  0.23491206  0.48961233  1
  V  V43  1  0.36604273  0.37325844  -0.00287560  1
  V  V44  1  0.24414718  0.51016227  0.25515839  1
  V  V45  1  0.64316091  0.75238078  0.38415178  1
  V  V46  1  0.63622411  0.48456970  0.62813064  1
  V  V47  1  0.27146479  0.87066140  0.60994806  1
  V  V48  1  0.88586277  0.12618882  0.73888453  1
  V  V49  1  0.77851430  0.77376160  -0.01473254  1
  V  V50  1  -0.00517456  0.50139958  0.49280756  1
  V  V51  1  0.49743194  0.37845479  0.87285901  1
  V  V52  1  0.37604319  0.01674327  0.36194607  1
  V  V53  1  0.65650264  0.04696720  0.17606475  1
  V  V54  1  0.13016436  0.63498236  0.48570601  1
  V  V55  1  0.63667384  0.62120841  0.50853259  1
  V  V56  1  0.21907691  -0.02808007  0.25771242  1
  V  V57  1  0.11890171  0.37023069  0.25601088  1
  V  V58  1  0.87252710  0.38555016  0.00627657  1
  V  V59  1  0.74113037  0.25129218  0.49620076  1
  V  V60  1  0.28428985  0.00505238  0.75826538  1
  V  V61  1  0.01194354  0.86767509  0.38922217  1
  V  V62  1  0.36355013  0.37052273  0.50200200  1
  V  V63  1  0.24503426  0.36959544  0.12216994  1
  V  V64  1  0.74787986  0.49271286  0.77342800  1
  V  V65  1  0.12351200  0.24160412  0.88451838  1
  V  V66  1  0.62613585  0.11718945  -0.00708305  1
  V  V67  1  0.24552358  0.48947802  0.73804641  1
  V  V68  1  -0.00348355  0.64049532  0.12079463  1
  V  V69  1  0.36401960  0.63110410  0.74195374  1
  Zn  Zn70  1  0.12292574  0.22542458  0.37612495  1
  Zn  Zn71  1  0.51108990  0.73931401  0.24082393  1
  Zn  Zn72  1  0.50661686  0.49033511  0.49750464  1
  Zn  Zn73  1  0.24806667  0.22165134  -0.01086134  1
  Zn  Zn74  1  0.39327449  0.61736358  0.23712088  1
  Zn  Zn75  1  -0.00799951  0.36993724  0.37246560  1
  Zn  Zn76  1  0.17631106  0.18384885  0.18580273  1
  Zn  Zn77  1  0.18898153  0.17459903  0.69419364  1
  Zn  Zn78  1  0.18550094  0.69759045  0.18752849  1
  Zn  Zn79  1  0.19331794  0.68429209  0.66302979  1
  Zn  Zn80  1  0.67722688  0.21429123  0.18025584  1
  Zn  Zn81  1  0.69281406  0.20225348  0.68660230  1
  Zn  Zn82  1  0.82175965  0.79015467  0.16240074  1
  Zn  Zn83  1  0.69639147  0.68001277  0.80546752  1
  Zn  Zn84  1  0.31153817  0.30935926  0.31230497  1
  Zn  Zn85  1  0.30433675  0.31261314  0.80987137  1
  Zn  Zn86  1  0.32530914  0.81685012  0.29622635  1
  Zn  Zn87  1  0.28315358  0.80814485  0.79414139  1
  Zn  Zn88  1  0.80667581  0.31169402  0.30933465  1
  Zn  Zn89  1  0.82164574  0.32056826  0.81293730  1
  Zn  Zn90  1  0.82738355  0.80452001  0.33260904  1
  Zn  Zn91  1  0.82609355  0.80161453  0.81198106  1
  Zn  Zn92  1  0.18662673  0.43349007  0.44172826  1
  Zn  Zn93  1  0.18114861  0.43707011  0.93206009  1
  Zn  Zn94  1  0.19553826  0.94137899  0.43682161  1
  Zn  Zn95  1  0.19171451  0.94186872  0.93055679  1
  Zn  Zn96  1  0.68455691  0.43057313  0.43457611  1
  Zn  Zn97  1  0.67675113  0.42809366  0.97217590  1
  Zn  Zn98  1  0.68572327  0.93611261  0.45692554  1
  Zn  Zn99  1  0.67974625  0.93209765  0.92850192  1
  Zn  Zn100  1  0.26201601  0.06851844  0.08973167  1
  Zn  Zn101  1  0.31381737  0.06186676  0.56587197  1
  Zn  Zn102  1  0.31367108  0.56265588  0.06898053  1
  Zn  Zn103  1  0.30272442  0.55813701  0.56141404  1
  Zn  Zn104  1  0.80862444  0.06810717  0.04780114  1
  Zn  Zn105  1  0.83378293  0.08465319  0.53601338  1
  Zn  Zn106  1  0.82747961  0.57654081  0.05061755  1
  Zn  Zn107  1  0.81497066  0.56457791  0.57321012  1
  Zn  Zn108  1  0.43234178  0.43040897  0.18732555  1
  Zn  Zn109  1  0.43819208  0.43620352  0.68137259  1
  Zn  Zn110  1  0.45484797  0.93253520  0.18861924  1
  Zn  Zn111  1  0.43947167  0.93171244  0.69071345  1
  Zn  Zn112  1  0.93485335  0.43759136  0.18183497  1
  Zn  Zn113  1  0.93450645  0.43937204  0.69141609  1
  Zn  Zn114  1  0.89131516  0.97234420  0.18621112  1
  Zn  Zn115  1  0.94049235  0.94018928  0.68840658  1
  Zn  Zn116  1  0.04485360  0.04314338  0.30304675  1
  Zn  Zn117  1  0.06088054  0.06782606  0.81025064  1
  Zn  Zn118  1  0.05733001  0.56344957  0.31343689  1
  Zn  Zn119  1  0.06179569  0.56399480  0.81233130  1
  Zn  Zn120  1  0.57193646  0.04702826  0.31872174  1
  Zn  Zn121  1  0.53230710  0.09059666  0.84419564  1
  Zn  Zn122  1  0.56987060  0.54813888  0.30571479  1
  Zn  Zn123  1  0.55223152  0.55640304  0.80193630  1
  Zn  Zn124  1  0.43573508  0.18509964  0.44267066  1
  Zn  Zn125  1  0.46207804  0.20744200  0.97778889  1
  Zn  Zn126  1  0.46630739  0.65915379  0.40209435  1
  Zn  Zn127  1  0.42358564  0.69497363  0.92745891  1
  Zn  Zn128  1  0.93994789  0.19176525  0.43677275  1
  Zn  Zn129  1  0.94280712  0.19214187  0.93344457  1
  Zn  Zn130  1  0.93741265  0.68575774  0.44546451  1
  Zn  Zn131  1  0.95532162  0.69984071  0.93351067  1
  Zn  Zn132  1  0.05757476  0.30507369  0.06205247  1
  Zn  Zn133  1  0.05952277  0.31013654  0.55915112  1
  Zn  Zn134  1  -0.08276824  0.89525593  0.02604959  1
  Zn  Zn135  1  0.07746955  0.81977034  0.56783997  1
  Zn  Zn136  1  0.56673600  0.30975100  0.07588745  1
  Zn  Zn137  1  0.55404983  0.31111035  0.55641555  1
  Zn  Zn138  1  0.58122995  0.79295778  0.06214815  1
  Zn  Zn139  1  0.53175918  0.79231326  0.54502336  1
  O  O140  1  0.14690787  0.11169336  0.10261240  1
  O  O141  1  0.13382027  0.10114316  0.62575752  1
  O  O142  1  0.11982483  0.62259413  0.11636072  1
  O  O143  1  0.11880866  0.60861477  0.61653563  1
  O  O144  1  0.62992096  0.13403760  0.09645752  1
  O  O145  1  0.60957089  0.13589670  0.62781325  1
  O  O146  1  0.67698118  0.58067634  0.13565779  1
  O  O147  1  0.61837055  0.61288735  0.61075732  1
  O  O148  1  0.37498971  0.37521124  0.38628286  1
  O  O149  1  0.37482978  0.38263891  0.87831640  1
  O  O150  1  0.39339445  0.87659689  0.37457317  1
  O  O151  1  0.46464901  0.89198341  1.00739663  1
  O  O152  1  0.87234143  0.37188745  0.39083038  1
  O  O153  1  0.89483953  0.36760805  0.88755284  1
  O  O154  1  0.88009454  0.88042269  0.40031644  1
  O  O155  1  0.86320756  0.89790206  0.85655013  1
  O  O156  1  0.26914370  -0.00458983  0.36212228  1
  O  O157  1  0.26233168  -0.01785279  0.85510813  1
  O  O158  1  0.25524991  0.48648418  0.36147201  1
  O  O159  1  0.25483156  0.49563661  0.86041139  1
  O  O160  1  0.76376816  -0.01058311  0.39245298  1
  O  O161  1  0.75761843  0.01502592  0.86533616  1
  O  O162  1  0.74963682  0.50750305  0.37645549  1
  O  O163  1  0.73155849  0.48981286  0.87140705  1
  O  O164  1  0.24150310  0.49204098  0.13791543  1
  O  O165  1  0.22969311  0.49191242  0.62725533  1
  O  O166  1  0.26064741  0.99135564  0.16707912  1
  O  O167  1  0.25129086  0.99587758  0.63486557  1
  O  O168  1  0.73206465  0.53114355  0.13380086  1
  O  O169  1  0.73712129  0.49726357  0.62234288  1
  O  O170  1  0.73581710  1.01345633  0.12248546  1
  O  O171  1  0.69668148  1.00010460  0.68417068  1
  O  O172  1  0.01198720  0.37659750  0.24999115  1
  O  O173  1  0.01009464  0.37836384  0.75988986  1
  O  O174  1  -0.00741103  0.86287457  0.27289484  1
  O  O175  1  -0.00945586  0.87019948  0.76361036  1
  O  O176  1  0.47985603  0.37127140  0.26753390  1
  O  O177  1  0.49404827  0.37073836  0.76045284  1
  O  O178  1  0.52042268  0.86934252  0.27319612  1
  O  O179  1  0.50629033  0.84873601  0.72442233  1
  O  O180  1  0.53950969  0.07627205  0.20744992  1
  O  O181  1  0.49770530  0.13940491  0.74485521  1
  O  O182  1  0.49671955  0.63267058  0.28800706  1
  O  O183  1  0.48437692  0.62796887  0.73766867  1
  O  O184  1  0.99547189  0.13447050  0.25432313  1
  O  O185  1  0.98387029  0.13386894  0.75116905  1
  O  O186  1  0.99124174  0.63525142  0.25128630  1
  O  O187  1  0.98296556  0.60953656  0.74496387  1
  O  O188  1  0.36082873  0.26340899  -0.00441977  1
  O  O189  1  0.36345773  0.25554049  0.50632998  1
  O  O190  1  0.36098747  0.75103823  0.00907938  1
  O  O191  1  0.33809465  0.74105938  0.46569579  1
  O  O192  1  0.88681016  0.25855704  0.01097994  1
  O  O193  1  0.86822038  0.26052455  0.50668748  1
  O  O194  1  0.88162169  0.77465996  -0.01873917  1
  O  O195  1  0.88410275  0.76045842  0.51810122  1
  O  O196  1  0.13698853  0.25150858  0.49679886  1
  O  O197  1  0.13103894  0.24978624  0.99106550  1
  O  O198  1  0.11410897  0.73234175  0.50217136  1
  O  O199  1  0.14452050  0.73711765  0.99382301  1
  O  O200  1  0.63334718  0.24295392  0.50453644  1
  O  O201  1  0.61228427  0.24200560  0.97991438  1
  O  O202  1  0.62248362  0.73095722  0.49481338  1
  O  O203  1  0.61308355  0.69368826  1.01829716  1
  O  O204  1  0.47475401  0.24525855  0.09609628  1
  O  O205  1  0.49362370  0.24551699  0.63449481  1
  O  O206  1  0.49145215  0.74479429  0.12223501  1
  O  O207  1  0.49966511  0.72702252  0.62877831  1
  O  O208  1  0.99810161  0.24547264  0.13958817  1
  O  O209  1  0.98115155  0.24643405  0.61412008  1
  O  O210  1  1.00056214  0.73985965  0.14340759  1
  O  O211  1  1.00728269  0.74775352  0.63203745  1
  O  O212  1  0.00543088  0.25060883  0.36219714  1
  O  O213  1  0.01698001  0.26355999  0.87694161  1
  O  O214  1  -0.00704233  0.75820643  0.37351670  1
  O  O215  1  0.03076713  0.75627384  0.86539793  1
  O  O216  1  0.49470193  0.25758394  0.37961148  1
  O  O217  1  0.49637007  0.26226004  0.86747723  1
  O  O218  1  0.50977164  0.76593258  0.39718185  1
  O  O219  1  0.48413771  0.74857390  0.84922627  1
  O  O220  1  0.25504908  0.13693502  0.49998616  1
  O  O221  1  0.26451435  0.10353821  0.97884555  1
  O  O222  1  0.22930265  0.62004516  0.50508542  1
  O  O223  1  0.24138420  0.62291502  1.00083104  1
  O  O224  1  0.73095414  0.13275912  0.50756985  1
  O  O225  1  0.74125490  0.13260651  0.97489785  1
  O  O226  1  0.74170377  0.61722261  0.49416396  1
  O  O227  1  0.74695834  0.61170775  0.98080091  1
  O  O228  1  0.25334664  0.38551663  0.00955028  1
  O  O229  1  0.25863958  0.36147117  0.49932524  1
  O  O230  1  0.24295167  0.87231935  0.00800749  1
  O  O231  1  0.26133739  0.88926437  0.50867250  1
  O  O232  1  0.77465442  0.37513079  -0.00882813  1
  O  O233  1  0.75870166  0.36677187  0.49952470  1
  O  O234  1  0.75231116  0.87133762  -0.01085473  1
  O  O235  1  0.76480518  0.87661613  0.51842275  1
  O  O236  1  0.13121448  0.49063224  0.24565662  1
  O  O237  1  0.12666332  0.49716398  0.73759118  1
  O  O238  1  0.11902209  0.97429569  0.25165684  1
  O  O239  1  0.12311284  0.99557093  0.74505071  1
  O  O240  1  0.61107200  0.47239184  0.23551296  1
  O  O241  1  0.63579931  0.50345654  0.73737504  1
  O  O242  1  0.64736493  0.97089178  0.26121941  1
  O  O243  1  0.55069026  0.97574585  0.81627962  1
  O  O244  1  0.39356084  -0.00315897  0.26439223  1
  O  O245  1  0.38658332  0.00671081  0.75765180  1
  O  O246  1  0.35941645  0.50028555  0.25771547  1
  O  O247  1  0.36275521  0.49451478  0.74991079  1
  O  O248  1  0.87964822  0.01612525  0.28464729  1
  O  O249  1  0.87639354  0.01939137  0.75121290  1
  O  O250  1  0.88585464  0.51700442  0.25035977  1
  O  O251  1  0.86379214  0.50815805  0.75043980  1
  O  O252  1  0.12679557  0.37354958  0.35927515  1
  O  O253  1  0.11683616  0.36955039  0.86397911  1
  O  O254  1  0.11011742  0.87321067  0.38953988  1
  O  O255  1  0.13369848  0.86097977  0.86240608  1
  O  O256  1  0.60135116  0.37931768  0.37944535  1
  O  O257  1  0.61013522  0.36798611  0.88834085  1
  O  O258  1  0.63462614  0.85939435  0.38402360  1
  O  O259  1  0.61940248  0.94201926  0.82023926  1
  O  O260  1  0.35349781  0.14025897  0.11667951  1
  O  O261  1  0.38945378  0.14310665  0.61704407  1
  O  O262  1  0.36661997  0.64130628  0.12859122  1
  O  O263  1  0.38160282  0.60799272  0.62982349  1
  O  O264  1  0.87200850  0.13765677  0.11490440  1
  O  O265  1  0.86964239  0.13433877  0.63328653  1
  O  O266  1  0.88981665  0.62497986  0.13528090  1
  O  O267  1  0.88133374  0.64203527  0.61841601  1
  O  O268  1  0.25119902  0.25770503  0.11854803  1
  O  O269  1  0.26162957  0.24243348  0.62069287  1
  O  O270  1  0.25342932  0.75457328  0.11536188  1
  O  O271  1  0.24895850  0.77076298  0.62113092  1
  O  O272  1  0.76899922  0.25388670  0.12568045  1
  O  O273  1  0.76325644  0.24992248  0.60850202  1
  O  O274  1  0.75957513  0.73899774  0.08092404  1
  O  O275  1  0.71184672  0.84033649  0.68003027  1
  O  O276  1  0.24636719  0.24741514  0.38495566  1
  O  O277  1  0.23133180  0.25775056  0.87463131  1
  O  O278  1  0.28666813  0.75318913  0.41499893  1
  O  O279  1  0.24807672  0.75822612  0.89123323  1
  O  O280  1  0.75732080  0.24940099  0.39544988  1
  O  O281  1  0.73687792  0.26119567  0.87053336  1
  O  O282  1  0.74409334  0.73758797  0.38515938  1
  O  O283  1  0.74886930  0.74984517  0.88318795  1
  O  O284  1  0.00479575  0.12117862  0.00146138  1
  O  O285  1  0.00007769  0.11033443  0.49990381  1
  O  O286  1  0.00940818  0.63945332  0.01656061  1
  O  O287  1  0.00648227  0.60561266  0.49536327  1
  O  O288  1  0.51887912  0.11362779  -0.04266169  1
  O  O289  1  0.51119622  0.12504503  0.51270392  1
  O  O290  1  0.47429181  0.61048146  -0.00969266  1
  O  O291  1  0.51090513  0.61458937  0.50071711  1
  O  O292  1  0.48215479  0.37390818  0.49015601  1
  O  O293  1  0.48193541  0.38749667  0.98987281  1
  O  O294  1  0.51400035  0.88945335  0.49341197  1
  O  O295  1  0.58713843  0.85621977  0.96095092  1
  O  O296  1  0.98793253  0.37985065  0.49600343  1
  O  O297  1  1.00338524  0.37768276  0.99170048  1
  O  O298  1  0.99713420  0.87649846  0.49783050  1
  O  O299  1  0.99971918  0.87453218  0.95569831  1
  O  O300  1  0.47858285  0.48918093  0.37604537  1
  O  O301  1  0.48364654  0.49217962  0.87424534  1
  O  O302  1  0.49624571  0.98959554  0.38441053  1
  O  O303  1  0.51078053  0.89685266  0.94827591  1
  O  O304  1  1.00296560  0.49070610  0.38874947  1
  O  O305  1  1.00999287  0.48589742  0.87795167  1
  O  O306  1  0.99071928  0.98562635  0.39198517  1
  O  O307  1  0.98973423  0.99169099  0.86105375  1
  O  O308  1  -0.00349341  0.02468481  0.14267194  1
  O  O309  1  0.01789234  -0.00915966  0.61574036  1
  O  O310  1  0.01375357  0.51724233  0.13600986  1
  O  O311  1  0.00904412  0.49194043  0.61459305  1
  O  O312  1  0.54042876  0.00928250  0.15209897  1
  O  O313  1  0.49377911  0.01946888  0.62242868  1
  O  O314  1  0.47804656  0.50120401  0.10889372  1
  O  O315  1  0.51157256  0.50600545  0.62412453  1
  O  O316  1  0.23665834  0.37643999  0.23935173  1
  O  O317  1  0.23033644  0.38314735  0.75009388  1
  O  O318  1  0.23471213  0.87147957  0.27048416  1
  O  O319  1  0.26653896  0.89354309  0.72899933  1
  O  O320  1  0.74806140  0.37931710  0.23953995  1
  O  O321  1  0.76153603  0.39423130  0.75070151  1
  O  O322  1  0.75094718  0.84651198  0.25001286  1
  O  O323  1  0.74428945  0.86926737  0.73977614  1
  O  O324  1  0.20000364  0.10704737  0.27584205  1
  O  O325  1  0.25810936  0.10427608  0.74994529  1
  O  O326  1  0.23909947  0.60923343  0.24921329  1
  O  O327  1  0.26051014  0.60739193  0.73124359  1
  O  O328  1  0.69273170  0.11772908  0.23878688  1
  O  O329  1  0.75941972  0.13962672  0.76028202  1
  O  O330  1  0.76625573  0.62384703  0.26654537  1
  O  O331  1  0.76642237  0.60704366  0.75567074  1
  O  O332  1  0.38427247  0.11580529  0.36749453  1
  O  O333  1  0.34786532  0.08763212  0.94246458  1
  O  O334  1  0.36575105  0.60118463  0.38584052  1
  O  O335  1  0.37356109  0.61192893  0.85182433  1
  O  O336  1  0.86753696  0.10431919  0.41829255  1
  O  O337  1  0.86831508  0.12422601  0.86481752  1
  O  O338  1  0.86600590  0.62650722  0.37288391  1
  O  O339  1  0.88725869  0.63352155  0.86718772  1
  O  O340  1  0.12716875  0.38272002  0.13050768  1
  O  O341  1  0.11480139  0.37851667  0.63735067  1
  O  O342  1  0.02595550  0.96539659  0.08948060  1
  O  O343  1  0.14523493  0.89433310  0.61626177  1
  O  O344  1  0.64457867  0.39373079  0.08691878  1
  O  O345  1  0.61758277  0.38701059  0.61672414  1
  O  O346  1  0.62679106  0.85452630  0.14875963  1
  O  O347  1  0.65159132  0.95644174  0.64790570  1
  O  O348  1  0.11394058  0.26101475  0.24698652  1
  O  O349  1  0.12763908  0.25962456  0.74859368  1
  O  O350  1  0.10665476  0.74594478  0.25466493  1
  O  O351  1  0.15718920  0.72906475  0.76647577  1
  O  O352  1  0.60813806  0.29997496  0.20471220  1
  O  O353  1  0.61271549  0.25359252  0.76405015  1
  O  O354  1  0.62296184  0.75338133  0.27737034  1
  O  O355  1  0.61532668  0.73774858  0.75136955  1
  O  O356  1  0.36917820  0.25148955  0.23173967  1
  O  O357  1  0.37913531  0.25978504  0.73650501  1
  O  O358  1  0.38358937  0.73941950  0.24179930  1
  O  O359  1  0.35973121  0.73010316  0.74516616  1
  O  O360  1  0.88649292  0.25572318  0.24137367  1
  O  O361  1  0.87128212  0.24690227  0.73622085  1
  O  O362  1  0.88237425  0.73917635  0.25164345  1
  O  O363  1  0.87177539  0.73234223  0.73570946  1
  O  O364  1  0.36284162  0.48317771  0.49183947  1
  O  O365  1  0.37144058  0.49362243  0.98859654  1
  O  O366  1  0.39090325  1.01264974  0.48761314  1
  O  O367  1  0.37559123  1.02219083  0.96234930  1
  O  O368  1  0.88495261  0.48814142  0.51081920  1
  O  O369  1  0.88311685  0.48605551  1.01399570  1
  O  O370  1  0.88833525  0.98239331  0.51429548  1
  O  O371  1  0.87395812  1.00131353  0.97718263  1
  O  O372  1  0.11962391  0.01296848  -0.02161036  1
  O  O373  1  0.11513820  0.00367065  0.49364903  1
  O  O374  1  0.13051355  0.51339968  0.00865620  1
  O  O375  1  0.11375819  0.49398884  0.50899905  1
  O  O376  1  0.63287373  0.01825191  -0.01137009  1
  O  O377  1  0.61392300  0.01692377  0.49893609  1
  O  O378  1  0.59987431  0.51711212  -0.00485567  1
  O  O379  1  0.62576089  0.50572667  0.50657579  1
  O  O380  1  0.36166968  0.36781152  0.11571858  1
  O  O381  1  0.37995690  0.36213270  0.61060223  1
  O  O382  1  0.38395729  0.85574340  0.14027700  1
  O  O383  1  0.37429934  0.87751612  0.61370658  1
  O  O384  1  0.88737426  0.36379664  0.11269939  1
  O  O385  1  0.87839740  0.36597192  0.61644358  1
  O  O386  1  0.87141934  0.88547195  0.12569101  1
  O  O387  1  0.88422628  0.85715508  0.62570303  1
  O  O388  1  0.14095862  0.11415013  0.33668096  1
  O  O389  1  0.12101083  0.14352359  0.86596275  1
  O  O390  1  0.12417377  0.61940618  0.38541521  1
  O  O391  1  0.12104788  0.63124770  0.88942916  1
  O  O392  1  0.61539664  0.12902956  0.38722571  1
  O  O393  1  0.64138470  0.13944791  0.86893197  1
  O  O394  1  0.63930863  0.62505017  0.38309141  1
  O  O395  1  0.61870473  0.62120677  0.87086439  1
