# generated using pymatgen
data_V35Zn35O128
_symmetry_space_group_name_H-M   'P 1'
_cell_length_a   17.03782022
_cell_length_b   16.88709154
_cell_length_c   16.88181086
_cell_angle_alpha   89.69320607
_cell_angle_beta   90.23412388
_cell_angle_gamma   90.23570586
_symmetry_Int_Tables_number   1
_chemical_formula_structural   V35Zn35O128
_chemical_formula_sum   'V70 Zn70 O256'
_cell_volume   4857.07076891
_cell_formula_units_Z   2
loop_
 _symmetry_equiv_pos_site_id
 _symmetry_equiv_pos_as_xyz
  1  'x, y, z'
loop_
 _atom_site_type_symbol
 _atom_site_label
 _atom_site_symmetry_multiplicity
 _atom_site_fract_x
 _atom_site_fract_y
 _atom_site_fract_z
 _atom_site_occupancy
  V  V0  1  0.37830488  -0.00894305  0.37965010  1
  V  V1  1  0.24828663  0.61337264  0.87140921  1
  V  V2  1  0.87189581  0.09761375  0.74973705  1
  V  V3  1  0.49663943  0.11128246  0.11506420  1
  V  V4  1  0.71751198  0.25499790  0.52447320  1
  V  V5  1  0.39171566  0.47995271  0.88872465  1
  V  V6  1  -0.00846935  0.00143033  -0.00555983  1
  V  V7  1  0.13236752  0.00689423  0.61093307  1
  V  V8  1  0.37520171  0.50768269  0.34854069  1
  V  V9  1  0.12512385  0.12263094  0.00206532  1
  V  V10  1  0.49627096  0.87450605  0.39775662  1
  V  V11  1  -0.00366458  0.88488511  0.87506732  1
  V  V12  1  0.39405815  0.38587141  0.49150379  1
  V  V13  1  0.87193729  0.62603114  0.75951360  1
  V  V14  1  0.62186247  -0.00232659  0.11987630  1
  V  V15  1  0.38773195  0.13887992  0.74864816  1
  V  V16  1  0.25221155  0.00332939  0.74514087  1
  V  V17  1  0.36508053  0.76745319  0.60975510  1
  V  V18  1  0.60707585  0.25052758  0.35028744  1
  V  V19  1  0.38671585  -0.00950871  0.87962668  1
  V  V20  1  0.23783621  0.37497113  0.59623042  1
  V  V21  1  0.49759162  0.76460092  0.75222526  1
  V  V22  1  0.12472958  0.25017457  0.87062797  1
  V  V23  1  0.25262775  0.24952212  0.00906613  1
  V  V24  1  0.14330346  0.21643254  0.38626598  1
  V  V25  1  -0.01165880  0.25188701  0.74208263  1
  V  V26  1  0.61561550  0.87101514  0.26481929  1
  V  V27  1  0.25235363  0.86987498  0.11854629  1
  V  V28  1  -0.00892334  0.50134014  0.48091938  1
  V  V29  1  0.87396305  0.02027439  0.39421622  1
  V  V30  1  0.00049336  0.12324288  0.61324361  1
  V  V31  1  0.37970219  0.13175017  0.24722527  1
  V  V32  1  0.87963613  0.35566395  0.50330756  1
  V  V33  1  0.85289131  0.74438590  0.62372442  1
  V  V34  1  0.86647971  0.88569929  0.50974923  1
  V  V35  1  0.62622168  0.73537118  0.39480672  1
  V  V36  1  0.75877840  0.23865069  0.00578416  1
  V  V37  1  0.25107755  0.12804979  0.86762325  1
  V  V38  1  0.00749425  0.22800142  0.26011200  1
  V  V39  1  0.39737531  0.75080065  0.15663172  1
  V  V40  1  0.37647899  0.25944620  0.62432047  1
  V  V41  1  0.26325290  0.75904747  -0.00671702  1
  V  V42  1  0.76838050  0.87172827  0.14021817  1
  V  V43  1  0.74801129  0.10054903  0.87303194  1
  V  V44  1  0.12612040  -0.00644951  0.12133132  1
  V  V45  1  0.57398030  0.03878439  0.61620741  1
  V  V46  1  0.11604431  0.49606925  0.12018524  1
  V  V47  1  -0.00211856  0.37521435  0.88839237  1
  V  V48  1  0.37587954  0.61671966  0.74827716  1
  V  V49  1  0.13128557  0.37671772  0.26434844  1
  V  V50  1  0.25922502  0.38419025  0.12598783  1
  V  V51  1  0.88043888  0.49851853  0.88932596  1
  V  V52  1  0.42877708  0.29817346  0.07238531  1
  V  V53  1  0.53217995  0.61616013  0.11297036  1
  V  V54  1  0.50556652  0.38018798  0.34117764  1
  V  V55  1  0.12485787  0.50267548  0.62410183  1
  V  V56  1  0.12779240  0.75286516  0.87804857  1
  V  V57  1  0.74729774  0.48529045  0.75490843  1
  V  V58  1  0.73554707  0.14043601  0.38563709  1
  V  V59  1  0.62659550  0.26206939  0.87380959  1
  V  V60  1  0.13484330  0.87986966  0.74468569  1
  V  V61  1  0.65296329  0.47512009  0.12997833  1
  V  V62  1  0.00383185  0.75284252  0.74535032  1
  V  V63  1  0.73925264  0.00946248  0.27133573  1
  V  V64  1  0.13151413  0.37813962  0.74914879  1
  V  V65  1  0.78893269  0.51330273  0.25478796  1
  V  V66  1  -0.03441963  0.66229895  0.12277950  1
  V  V67  1  0.73088539  0.88984269  0.63657218  1
  V  V68  1  0.00473599  0.62410148  0.62588299  1
  V  V69  1  0.25786044  -0.00440459  0.24744858  1
  Zn  Zn70  1  0.88215309  0.36306203  0.02716576  1
  Zn  Zn71  1  0.12518419  0.65171349  0.47656959  1
  Zn  Zn72  1  -0.07705932  0.18289847  0.10672011  1
  Zn  Zn73  1  -0.00116284  0.86754492  0.34667802  1
  Zn  Zn74  1  0.13016977  0.62251804  0.01327100  1
  Zn  Zn75  1  0.25051192  0.62980287  0.37019945  1
  Zn  Zn76  1  0.18814098  0.18182826  0.19478604  1
  Zn  Zn77  1  0.20139271  0.17935220  0.56291928  1
  Zn  Zn78  1  0.23445035  0.65951493  0.17968211  1
  Zn  Zn79  1  0.19165060  0.68913095  0.68601740  1
  Zn  Zn80  1  0.68560187  0.18032655  0.18532382  1
  Zn  Zn81  1  0.67451069  0.17968865  0.69978883  1
  Zn  Zn82  1  0.70497956  0.68635865  0.21460126  1
  Zn  Zn83  1  0.70034262  0.73068861  0.73787187  1
  Zn  Zn84  1  0.30976771  0.31299258  0.31406452  1
  Zn  Zn85  1  0.31160095  0.31537851  0.81419674  1
  Zn  Zn86  1  0.29750157  0.80540182  0.31508673  1
  Zn  Zn87  1  0.32046448  0.80797454  0.80515546  1
  Zn  Zn88  1  0.82965682  0.32851704  0.30700165  1
  Zn  Zn89  1  0.80392088  0.30552323  0.81441525  1
  Zn  Zn90  1  0.80073520  0.82139600  0.33264549  1
  Zn  Zn91  1  0.82070444  0.83308627  0.80508642  1
  Zn  Zn92  1  0.17260492  0.48603496  0.41847317  1
  Zn  Zn93  1  0.18871311  0.43159843  0.94501794  1
  Zn  Zn94  1  0.18576599  0.91415370  0.42583868  1
  Zn  Zn95  1  0.19189010  0.93953054  0.93075271  1
  Zn  Zn96  1  0.70583068  0.40962173  0.41225314  1
  Zn  Zn97  1  0.70294500  0.43286415  0.94995103  1
  Zn  Zn98  1  0.67653646  0.94016907  0.46000612  1
  Zn  Zn99  1  0.70437868  0.92189217  0.94964237  1
  Zn  Zn100  1  0.31448473  0.06172796  0.05756283  1
  Zn  Zn101  1  0.38524227  0.07428997  0.54937734  1
  Zn  Zn102  1  0.34383082  0.58902456  0.04746885  1
  Zn  Zn103  1  0.30384057  0.56822996  0.54960211  1
  Zn  Zn104  1  0.80490404  0.05537918  0.06763498  1
  Zn  Zn105  1  0.80000129  0.07442756  0.57378264  1
  Zn  Zn106  1  0.80008572  0.55815789  0.05876348  1
  Zn  Zn107  1  0.82001426  0.51423012  0.57753653  1
  Zn  Zn108  1  0.45502550  0.45737877  0.16793672  1
  Zn  Zn109  1  0.39264573  0.46606927  0.67859349  1
  Zn  Zn110  1  0.43674645  0.92845776  0.18383975  1
  Zn  Zn111  1  0.43129679  0.93876805  0.68396997  1
  Zn  Zn112  1  0.95775209  0.43595487  0.20974431  1
  Zn  Zn113  1  0.93290566  0.43500053  0.68896766  1
  Zn  Zn114  1  0.92694946  0.99495173  0.19183033  1
  Zn  Zn115  1  0.94506334  0.93162498  0.66902246  1
  Zn  Zn116  1  0.06429981  0.03054834  0.31708709  1
  Zn  Zn117  1  0.06481654  0.06738324  0.80498951  1
  Zn  Zn118  1  0.06020481  0.57404461  0.29184945  1
  Zn  Zn119  1  0.06465789  0.56066512  0.81242319  1
  Zn  Zn120  1  0.55328362  0.06547095  0.31825884  1
  Zn  Zn121  1  0.56692830  0.05619234  0.80712413  1
  Zn  Zn122  1  0.56058066  0.56324312  0.29650978  1
  Zn  Zn123  1  0.54569648  0.52460119  0.78863213  1
  Zn  Zn124  1  0.34167105  0.18479630  0.43741324  1
  Zn  Zn125  1  0.44627678  0.17892984  0.93167336  1
  Zn  Zn126  1  0.43025231  0.69971411  0.41934736  1
  Zn  Zn127  1  0.44198714  0.68633670  0.93479256  1
  Zn  Zn128  1  0.94087294  0.19626684  0.42455987  1
  Zn  Zn129  1  0.93287984  0.18125472  0.92644658  1
  Zn  Zn130  1  0.93845153  0.69337249  0.45049322  1
  Zn  Zn131  1  0.96612370  0.67411671  0.93538706  1
  Zn  Zn132  1  0.06921094  0.30667748  0.07340120  1
  Zn  Zn133  1  0.06202691  0.31227560  0.54991866  1
  Zn  Zn134  1  0.05831503  0.81516938  0.06476885  1
  Zn  Zn135  1  0.05711385  0.82731389  0.56127458  1
  Zn  Zn136  1  0.58953488  0.29734442  0.06103770  1
  Zn  Zn137  1  0.53073027  0.20356348  0.53757974  1
  Zn  Zn138  1  0.60317160  0.78215096  0.09822295  1
  Zn  Zn139  1  0.55325407  0.79527264  0.57347312  1
  O  O140  1  0.13597340  0.11349462  0.10801113  1
  O  O141  1  0.11714378  0.11603473  0.61592427  1
  O  O142  1  0.15080053  0.59762730  0.13360565  1
  O  O143  1  0.11660699  0.61869722  0.63166847  1
  O  O144  1  0.60924012  0.10667357  0.13510465  1
  O  O145  1  0.59288367  0.14216539  0.62178893  1
  O  O146  1  0.62601467  0.66590127  0.11712796  1
  O  O147  1  0.57705409  0.58962773  0.58296081  1
  O  O148  1  0.38884586  0.38123529  0.37374497  1
  O  O149  1  0.37572840  0.38011305  0.87851278  1
  O  O150  1  0.39157576  0.88027673  0.36533274  1
  O  O151  1  0.37120130  0.89265891  0.86164434  1
  O  O152  1  0.87752409  0.37266646  0.40300501  1
  O  O153  1  0.89260753  0.37950298  0.87221681  1
  O  O154  1  0.87589518  0.88924215  0.40286202  1
  O  O155  1  0.89817532  0.87803928  0.87008717  1
  O  O156  1  0.25908767  -0.01316541  0.35033281  1
  O  O157  1  0.25786668  0.01106863  0.86516716  1
  O  O158  1  0.27444930  0.50104063  0.36116839  1
  O  O159  1  0.23600243  0.51404599  0.87957709  1
  O  O160  1  0.73142536  0.01829570  0.38384265  1
  O  O161  1  0.74607741  -0.00140569  0.87658765  1
  O  O162  1  0.75957659  0.43135807  0.31538474  1
  O  O163  1  0.77781673  0.49044878  0.87240409  1
  O  O164  1  0.26110341  0.48198216  0.12378630  1
  O  O165  1  0.23254132  0.48869566  0.61747561  1
  O  O166  1  0.24725567  0.98668862  0.11705268  1
  O  O167  1  0.23785673  1.01103849  0.64073866  1
  O  O168  1  0.76631633  0.48997510  0.15341801  1
  O  O169  1  0.75024336  0.52655536  0.66028676  1
  O  O170  1  0.73382617  0.99995771  0.15038258  1
  O  O171  1  0.74771541  0.98927985  0.63830806  1
  O  O172  1  0.02869681  0.35608570  0.25217515  1
  O  O173  1  0.00692005  0.36343484  0.75066188  1
  O  O174  1  -0.00232608  0.94221446  0.26059592  1
  O  O175  1  0.01035033  0.86979888  0.75544349  1
  O  O176  1  0.50236281  0.37829574  0.24221877  1
  O  O177  1  0.50611309  0.46324314  0.69566077  1
  O  O178  1  0.51568476  0.88336709  0.25693817  1
  O  O179  1  0.49703857  0.86572807  0.74166622  1
  O  O180  1  0.48554064  0.11741247  0.23877027  1
  O  O181  1  0.48422464  0.13474809  0.75496262  1
  O  O182  1  0.49503827  0.61106231  0.20625306  1
  O  O183  1  0.47597746  0.61739345  0.76047438  1
  O  O184  1  1.01884638  0.12745820  0.25982933  1
  O  O185  1  0.98903732  0.13643030  0.75120865  1
  O  O186  1  1.00667258  0.63085910  0.21100271  1
  O  O187  1  0.99643825  0.63591612  0.74797920  1
  O  O188  1  0.37061244  0.24415465  0.00304661  1
  O  O189  1  0.36428255  0.28000108  0.51122768  1
  O  O190  1  0.36094284  0.75208254  -0.00518316  1
  O  O191  1  0.38435818  0.73944227  0.51277906  1
  O  O192  1  0.87963898  0.23570711  0.01069774  1
  O  O193  1  0.88941708  0.25626617  0.51294085  1
  O  O194  1  0.79688731  0.73242351  -0.05500099  1
  O  O195  1  0.87288091  0.76118744  0.51972281  1
  O  O196  1  0.12944352  0.24146097  0.49124891  1
  O  O197  1  0.13071736  0.24255959  0.99126948  1
  O  O198  1  0.09148177  0.77134246  0.46763180  1
  O  O199  1  0.12685882  0.75502539  0.98449470  1
  O  O200  1  0.62046679  0.26093578  0.49408287  1
  O  O201  1  0.65156275  0.23495289  0.99215589  1
  O  O202  1  0.61079990  0.73557705  0.49478445  1
  O  O203  1  0.60483259  0.68681553  0.92503494  1
  O  O204  1  0.49830029  0.23296428  0.11853441  1
  O  O205  1  0.47360957  0.26987574  0.62319094  1
  O  O206  1  0.49339457  0.75009367  0.12465481  1
  O  O207  1  0.47453603  0.74503923  0.63893829  1
  O  O208  1  1.01134478  0.24170562  0.14690514  1
  O  O209  1  1.01185521  0.23850176  0.63800114  1
  O  O210  1  0.97560780  0.76419795  0.12007903  1
  O  O211  1  1.00766063  0.74409100  0.63505669  1
  O  O212  1  0.03298813  0.24093939  0.37239486  1
  O  O213  1  0.00432015  0.25824180  0.86609110  1
  O  O214  1  0.01812703  0.77479556  0.42029610  1
  O  O215  1  0.00853719  0.75973786  0.86667365  1
  O  O216  1  0.50505157  0.26654668  0.36088655  1
  O  O217  1  0.52888125  0.23985065  0.88944638  1
  O  O218  1  0.50990147  0.76899259  0.37763771  1
  O  O219  1  0.47361713  0.75280293  0.85268319  1
  O  O220  1  0.28204324  0.12189695  0.51340672  1
  O  O221  1  0.24505602  0.13159525  0.98821942  1
  O  O222  1  0.23697569  0.62808104  0.48473625  1
  O  O223  1  0.24610524  0.64247833  0.98656895  1
  O  O224  1  0.74499370  0.15116194  0.50244768  1
  O  O225  1  0.76594218  0.11906071  0.97894481  1
  O  O226  1  0.71483010  0.56214219  0.49526834  1
  O  O227  1  0.75663422  0.67659963  0.97788861  1
  O  O228  1  0.25070797  0.36257926  0.01389326  1
  O  O229  1  0.23409016  0.38327145  0.49910263  1
  O  O230  1  0.25017722  0.86649790  -0.00071547  1
  O  O231  1  0.24421237  0.82260572  0.41298788  1
  O  O232  1  0.77071979  0.34499022  -0.00019827  1
  O  O233  1  0.75904570  0.35139297  0.49740936  1
  O  O234  1  0.75699154  0.87757506  0.03836955  1
  O  O235  1  0.75713844  0.87744036  0.52201045  1
  O  O236  1  0.12529767  0.48103245  0.23822795  1
  O  O237  1  0.11287533  0.48912346  0.73657212  1
  O  O238  1  0.14560201  1.00907251  0.22435502  1
  O  O239  1  0.13505274  0.99633540  0.74913063  1
  O  O240  1  0.63700376  0.51086845  0.22587651  1
  O  O241  1  0.65399249  0.50735963  0.78349908  1
  O  O242  1  0.62841489  0.99395844  0.25892221  1
  O  O243  1  0.60215396  1.00746764  0.70941446  1
  O  O244  1  0.36678252  -0.00389336  0.24530028  1
  O  O245  1  0.36770754  0.02020799  0.75232414  1
  O  O246  1  0.38285311  0.49905543  0.24809064  1
  O  O247  1  0.36342424  0.50789632  0.78154602  1
  O  O248  1  0.84588968  0.00020225  0.28917980  1
  O  O249  1  0.88408759  -0.00107731  0.74489509  1
  O  O250  1  0.88945717  0.50932329  0.25850485  1
  O  O251  1  0.87324540  0.50945116  0.76185721  1
  O  O252  1  0.14408825  0.38418400  0.36290327  1
  O  O253  1  0.11451459  0.37024741  0.87176519  1
  O  O254  1  0.08862103  0.93369158  0.37722115  1
  O  O255  1  0.12025823  0.87044262  0.86320604  1
  O  O256  1  0.60987567  0.36554198  0.36718848  1
  O  O257  1  0.63535875  0.36235477  0.89343242  1
  O  O258  1  0.61280112  0.87855912  0.37947266  1
  O  O259  1  0.60910765  0.84734143  0.92707595  1
  O  O260  1  0.38841199  0.11273375  0.13093499  1
  O  O261  1  0.36802275  0.14893957  0.64059124  1
  O  O262  1  0.34599450  0.65802122  0.13711475  1
  O  O263  1  0.36549100  0.58471752  0.64830119  1
  O  O264  1  0.88159486  0.08718620  0.14315487  1
  O  O265  1  0.88959946  0.11844947  0.63930624  1
  O  O266  1  0.86923810  0.63364621  0.10741990  1
  O  O267  1  0.88793484  0.63787362  0.63775819  1
  O  O268  1  0.24495493  0.24769178  0.11226916  1
  O  O269  1  0.25067935  0.27213598  0.61979095  1
  O  O270  1  0.23547671  0.75978075  0.10196350  1
  O  O271  1  0.26680527  0.73834999  0.62110471  1
  O  O272  1  0.75574465  0.21473168  0.10578944  1
  O  O273  1  0.72540959  0.25207674  0.62275619  1
  O  O274  1  0.75933473  0.77171086  0.16042384  1
  O  O275  1  0.75648199  0.72905484  0.62703042  1
  O  O276  1  0.24915728  0.23960427  0.37932114  1
  O  O277  1  0.24151122  0.24727831  0.88412931  1
  O  O278  1  0.13809422  0.76945907  0.31254285  1
  O  O279  1  0.24379224  0.75137144  0.87995880  1
  O  O280  1  0.73069711  0.24710712  0.37116651  1
  O  O281  1  0.75118550  0.23296839  0.88437130  1
  O  O282  1  0.72599480  0.75463035  0.38524904  1
  O  O283  1  0.75318593  0.77982036  0.89061841  1
  O  O284  1  0.01220516  0.11147928  -0.01401985  1
  O  O285  1  -0.01100541  0.13166559  0.51693339  1
  O  O286  1  0.01505829  0.63732897  0.02857948  1
  O  O287  1  0.00922607  0.62199693  0.50871387  1
  O  O288  1  0.49562971  0.11535578  0.01580650  1
  O  O289  1  0.44962569  0.14917736  0.48527736  1
  O  O290  1  0.47010755  0.62732033  0.02921720  1
  O  O291  1  0.53209946  0.56088860  0.53425047  1
  O  O292  1  0.49019301  0.38399151  0.49607221  1
  O  O293  1  0.49161187  0.35668452  1.02358375  1
  O  O294  1  0.49845257  0.87483706  0.49614283  1
  O  O295  1  0.56715474  0.82544178  0.98683611  1
  O  O296  1  0.98901896  0.39216676  0.50822988  1
  O  O297  1  0.99863724  0.36186188  0.99121106  1
  O  O298  1  0.96312769  0.89317123  0.54724317  1
  O  O299  1  1.01005275  0.88695419  0.98258045  1
  O  O300  1  0.49632756  0.48588476  0.35976086  1
  O  O301  1  0.49018952  0.49794041  0.88510645  1
  O  O302  1  0.48749470  0.99012473  0.37763742  1
  O  O303  1  0.48539594  1.00846965  0.86824601  1
  O  O304  1  1.00384280  0.50624333  0.38345345  1
  O  O305  1  0.99846613  0.48255946  0.87342622  1
  O  O306  1  0.96935972  1.03274409  0.39598183  1
  O  O307  1  1.01093238  0.99193778  0.87877929  1
  O  O308  1  0.02061120  -0.00555454  0.10285366  1
  O  O309  1  0.01866702  0.01637037  0.63327466  1
  O  O310  1  0.01667847  0.48905598  0.12354787  1
  O  O311  1  0.00126040  0.51525908  0.62775258  1
  O  O312  1  0.51073898  -0.00156615  0.12684535  1
  O  O313  1  0.47135244  0.01819480  0.60944766  1
  O  O314  1  0.54440669  0.50675046  0.10310504  1
  O  O315  1  0.62038636  0.42875599  0.62661030  1
  O  O316  1  0.24269368  0.36146141  0.23258544  1
  O  O317  1  0.23185537  0.37337831  0.75169745  1
  O  O318  1  0.25188245  0.88411623  0.22958380  1
  O  O319  1  0.24171151  0.88616589  0.75493378  1
  O  O320  1  0.81758992  0.34007892  0.18555272  1
  O  O321  1  0.75854849  0.38568663  0.74769119  1
  O  O322  1  0.73593126  0.89249090  0.26515304  1
  O  O323  1  0.73416668  0.84618766  0.73740580  1
  O  O324  1  0.26734714  0.10483214  0.22957093  1
  O  O325  1  0.25216548  0.12255214  0.76274157  1
  O  O326  1  0.25021345  0.69971084  0.28247115  1
  O  O327  1  0.25221908  0.63061951  0.76714843  1
  O  O328  1  0.73706995  0.11636382  0.26899624  1
  O  O329  1  0.76627434  0.11846611  0.75226274  1
  O  O330  1  0.75913673  0.60842149  0.27539922  1
  O  O331  1  0.77474593  0.64697870  0.77325798  1
  O  O332  1  0.37292961  0.10202844  0.35206441  1
  O  O333  1  0.36727140  0.13016459  0.86300634  1
  O  O334  1  0.38912586  0.60836436  0.37100488  1
  O  O335  1  0.35678971  0.62203335  0.87296212  1
  O  O336  1  0.84971568  0.12524426  0.39414520  1
  O  O337  1  0.86969386  0.11710969  0.85583528  1
  O  O338  1  0.90204403  0.69254874  0.33829845  1
  O  O339  1  0.89835506  0.60681447  0.87530140  1
  O  O340  1  0.14193929  0.38199581  0.12632737  1
  O  O341  1  0.12823648  0.37880391  0.62788228  1
  O  O342  1  0.13543422  0.88700474  0.11403326  1
  O  O343  1  0.11774817  0.89098176  0.63713951  1
  O  O344  1  0.64111563  0.37603152  0.12591364  1
  O  O345  1  0.55969338  0.40092908  0.65599508  1
  O  O346  1  0.63391550  0.88308479  0.14855754  1
  O  O347  1  0.63595062  0.86454853  0.61669811  1
  O  O348  1  0.13158195  0.24950446  0.26815132  1
  O  O349  1  0.11407999  0.25731796  0.76575913  1
  O  O350  1  0.08234699  0.78214793  0.26707121  1
  O  O351  1  0.12206890  0.75916627  0.75567761  1
  O  O352  1  0.62122108  0.24733755  0.25172735  1
  O  O353  1  0.63771389  0.25611748  0.77289396  1
  O  O354  1  0.62826280  0.76872146  0.26413508  1
  O  O355  1  0.59254341  0.73058606  0.74728590  1
  O  O356  1  0.36791811  0.23035745  0.25239824  1
  O  O357  1  0.36656467  0.24909288  0.74039265  1
  O  O358  1  0.39450784  0.76117683  0.25510657  1
  O  O359  1  0.37264871  0.73129375  0.73597663  1
  O  O360  1  0.90944781  0.24479939  0.28281771  1
  O  O361  1  0.88916895  0.25508485  0.74872117  1
  O  O362  1  0.90386399  0.76639727  0.30708252  1
  O  O363  1  0.88868369  0.74962889  0.74145127  1
  O  O364  1  0.37004707  0.48772090  0.49001509  1
  O  O365  1  0.36226141  0.49976900  0.98572289  1
  O  O366  1  0.35818324  0.98709694  0.47544440  1
  O  O367  1  0.37033212  1.00407107  0.97866299  1
  O  O368  1  0.89126996  0.52441098  0.49138324  1
  O  O369  1  0.87579647  0.48936596  0.99168614  1
  O  O370  1  0.85291731  0.99758218  0.50240139  1
  O  O371  1  0.89506005  1.00137959  0.99877841  1
  O  O372  1  0.12883462  0.00775373  0.00121036  1
  O  O373  1  0.14618592  -0.01487798  0.51617628  1
  O  O374  1  0.12979268  0.49869779  0.01514750  1
  O  O375  1  0.10336780  0.49809217  0.51532791  1
  O  O376  1  0.63502949  -0.00962425  0.02290944  1
  O  O377  1  0.61972588  0.00646642  0.53146484  1
  O  O378  1  0.69038872  0.51326246  0.03205536  1
  O  O379  1  0.66738893  0.51469378  0.46161870  1
  O  O380  1  0.37204036  0.36688638  0.13121539  1
  O  O381  1  0.35388384  0.38174764  0.61342798  1
  O  O382  1  0.36675825  0.85233579  0.12629489  1
  O  O383  1  0.36396484  0.86764929  0.62180324  1
  O  O384  1  0.88579670  0.36023191  0.14788069  1
  O  O385  1  0.86528919  0.40464509  0.60091690  1
  O  O386  1  0.86197066  0.89949125  0.15661131  1
  O  O387  1  0.84986231  0.85858564  0.63399607  1
  O  O388  1  0.13851992  0.11869475  0.37793004  1
  O  O389  1  0.13250226  0.13235674  0.87960542  1
  O  O390  1  0.13470333  0.59284069  0.37312116  1
  O  O391  1  0.13027743  0.63553833  0.87506188  1
  O  O392  1  0.61848820  0.14385891  0.37742009  1
  O  O393  1  0.64705574  0.12052209  0.86062664  1
  O  O394  1  0.60660632  0.64054661  0.36434002  1
  O  O395  1  0.62392186  0.61857406  0.90904986  1
