# generated using pymatgen
data_V35Zn35O128
_symmetry_space_group_name_H-M   'P 1'
_cell_length_a   16.87988069
_cell_length_b   16.88327897
_cell_length_c   16.89056959
_cell_angle_alpha   89.71212496
_cell_angle_beta   89.78315095
_cell_angle_gamma   89.98688667
_symmetry_Int_Tables_number   1
_chemical_formula_structural   V35Zn35O128
_chemical_formula_sum   'V70 Zn70 O256'
_cell_volume   4813.50982273
_cell_formula_units_Z   2
loop_
 _symmetry_equiv_pos_site_id
 _symmetry_equiv_pos_as_xyz
  1  'x, y, z'
loop_
 _atom_site_type_symbol
 _atom_site_label
 _atom_site_symmetry_multiplicity
 _atom_site_fract_x
 _atom_site_fract_y
 _atom_site_fract_z
 _atom_site_occupancy
  V  V0  1  0.64583287  0.70084916  0.43150951  1
  V  V1  1  0.50537350  0.02005325  -0.00283629  1
  V  V2  1  0.61833030  0.49438811  0.62523508  1
  V  V3  1  0.38575815  -0.00635470  0.38896463  1
  V  V4  1  -0.01313499  0.38300536  0.37733791  1
  V  V5  1  0.49050844  0.76954704  0.25094194  1
  V  V6  1  0.39498264  0.12816950  0.25124539  1
  V  V7  1  0.75195686  -0.00552554  0.73290850  1
  V  V8  1  0.00980485  0.86896710  0.86613942  1
  V  V9  1  0.23989850  0.76111224  -0.00202118  1
  V  V10  1  0.64119484  0.87025145  0.23677912  1
  V  V11  1  0.48134419  0.36412186  0.88670812  1
  V  V12  1  0.88378227  0.37720964  -0.00638009  1
  V  V13  1  0.12702302  0.25041006  0.37046624  1
  V  V14  1  0.85996207  0.87022083  0.50416147  1
  V  V15  1  0.50616308  0.61801245  0.12017357  1
  V  V16  1  0.77040347  0.37283393  0.61747098  1
  V  V17  1  0.37178348  0.62063955  0.24685889  1
  V  V18  1  0.49839135  0.61712012  0.66657130  1
  V  V19  1  0.86401910  0.60587722  0.25597307  1
  V  V20  1  0.26146133  0.26449395  0.49946194  1
  V  V21  1  0.37351978  0.75535623  0.11758649  1
  V  V22  1  0.23799200  0.63308928  0.36423601  1
  V  V23  1  0.13209193  0.12256333  0.01046155  1
  V  V24  1  0.00922635  -0.00141844  0.00964902  1
  V  V25  1  0.49373270  0.13575204  0.65637264  1
  V  V26  1  0.62294648  0.01594955  0.11712928  1
  V  V27  1  0.12793161  0.63202678  0.50508750  1
  V  V28  1  0.61940266  0.37317019  0.76177244  1
  V  V29  1  0.37391284  0.51413982  0.87808828  1
  V  V30  1  0.12543948  0.39127001  0.24415768  1
  V  V31  1  0.00177887  0.22919677  0.24498565  1
  V  V32  1  0.77439166  0.48815596  0.76466878  1
  V  V33  1  0.62017486  0.74501886  0.87009109  1
  V  V34  1  0.25003338  0.38661413  0.12456527  1
  V  V35  1  0.62508501  0.24440423  0.87884435  1
  V  V36  1  0.75237458  0.02853203  0.24162763  1
  V  V37  1  0.73037318  0.23276490  0.50275397  1
  V  V38  1  0.39828473  0.87414981  -0.01200616  1
  V  V39  1  0.25483069  0.11938489  0.36743928  1
  V  V40  1  0.87452389  0.62824651  0.76913451  1
  V  V41  1  0.37348923  0.49901791  0.38759055  1
  V  V42  1  0.87813467  0.00280742  0.86487418  1
  V  V43  1  0.00664282  0.75331395  0.74153938  1
  V  V44  1  0.86476791  0.87400359  -0.00256890  1
  V  V45  1  0.12869009  -0.02077350  0.62474088  1
  V  V46  1  -0.00999408  0.00552897  0.50138810  1
  V  V47  1  0.74441540  0.37905048  0.13604498  1
  V  V48  1  0.86959994  0.75052503  0.13328926  1
  V  V49  1  0.27090623  0.75693671  0.51018367  1
  V  V50  1  0.25487329  0.11958714  0.86534578  1
  V  V51  1  0.00717365  0.24774436  0.75280337  1
  V  V52  1  0.37633375  0.24952594  0.11825593  1
  V  V53  1  0.61340396  0.87624612  0.74546026  1
  V  V54  1  0.75108124  0.12164676  0.87214304  1
  V  V55  1  -0.01481063  0.62826681  0.61195492  1
  V  V56  1  0.74931380  0.72694399  -0.00990368  1
  V  V57  1  0.13012779  0.12402339  0.50861344  1
  V  V58  1  0.50735985  0.27112920  0.26325996  1
  V  V59  1  0.36836441  0.26589482  0.64960282  1
  V  V60  1  0.51055121  0.00931533  0.51424153  1
  V  V61  1  0.24190636  0.48445431  0.73925169  1
  V  V62  1  0.88274340  0.23604935  0.12864191  1
  V  V63  1  0.12530568  0.62133968  0.00413517  1
  V  V64  1  0.00806218  0.87291464  0.36702435  1
  V  V65  1  0.00059431  0.61750681  0.13244488  1
  V  V66  1  0.00324202  0.49569319  -0.01666474  1
  V  V67  1  0.75200674  0.24372431  0.00086620  1
  V  V68  1  0.25411717  -0.02522066  0.74077384  1
  V  V69  1  0.24081303  0.63122566  0.86421609  1
  Zn  Zn70  1  0.86593540  0.00683790  0.36124530  1
  Zn  Zn71  1  0.39860783  -0.00652900  0.84590408  1
  Zn  Zn72  1  0.12592063  0.49413700  0.61844104  1
  Zn  Zn73  1  0.52467713  0.49417145  0.01229246  1
  Zn  Zn74  1  0.22167231  0.95087247  0.21505836  1
  Zn  Zn75  1  0.24515809  0.25642732  -0.00286978  1
  Zn  Zn76  1  0.19186609  0.18348944  0.18501342  1
  Zn  Zn77  1  0.20063707  0.18619320  0.68405072  1
  Zn  Zn78  1  0.20828516  0.74759738  0.21179862  1
  Zn  Zn79  1  0.18355075  0.69726697  0.68021820  1
  Zn  Zn80  1  0.67824647  0.19666069  0.18474058  1
  Zn  Zn81  1  0.69395245  0.18535189  0.69001792  1
  Zn  Zn82  1  0.66117098  0.65968206  0.23542582  1
  Zn  Zn83  1  0.64203140  0.72190253  0.65347558  1
  Zn  Zn84  1  0.31420426  0.31577598  0.30823330  1
  Zn  Zn85  1  0.27869051  0.32030884  0.82383131  1
  Zn  Zn86  1  0.31620085  0.81452946  0.32782770  1
  Zn  Zn87  1  0.30801271  0.81518861  0.81823628  1
  Zn  Zn88  1  0.80967861  0.30050662  0.31639799  1
  Zn  Zn89  1  0.81426257  0.31227643  0.81636579  1
  Zn  Zn90  1  0.81052946  0.81525180  0.32721123  1
  Zn  Zn91  1  0.81053510  0.81333476  0.80911759  1
  Zn  Zn92  1  0.18755386  0.44816599  0.43115349  1
  Zn  Zn93  1  0.18940558  0.44147098  0.93872083  1
  Zn  Zn94  1  0.19350022  0.93273472  0.43841210  1
  Zn  Zn95  1  0.18887656  0.94142806  0.92979342  1
  Zn  Zn96  1  0.66150091  0.38879849  0.44965217  1
  Zn  Zn97  1  0.69399271  0.43491241  0.94806916  1
  Zn  Zn98  1  0.66798511  0.87128359  0.43561120  1
  Zn  Zn99  1  0.68077532  0.93495740  0.93134504  1
  Zn  Zn100  1  0.31286477  0.05681882  0.06743372  1
  Zn  Zn101  1  0.31584116  0.07483144  0.56993223  1
  Zn  Zn102  1  0.31101878  0.56528349  0.05953166  1
  Zn  Zn103  1  0.31948609  0.57411655  0.56822710  1
  Zn  Zn104  1  0.81448820  0.05683504  0.05942333  1
  Zn  Zn105  1  0.72133543  0.01886871  0.52472400  1
  Zn  Zn106  1  0.81607306  0.55795741  0.06772992  1
  Zn  Zn107  1  0.77138141  0.59816108  0.62093323  1
  Zn  Zn108  1  0.43215850  0.43812506  0.18992000  1
  Zn  Zn109  1  0.43095523  0.43728323  0.69821548  1
  Zn  Zn110  1  0.41825647  0.95359206  0.17684379  1
  Zn  Zn111  1  0.44337440  0.93522720  0.66616897  1
  Zn  Zn112  1  0.93650204  0.42929232  0.18563881  1
  Zn  Zn113  1  0.95885857  0.43290355  0.66901363  1
  Zn  Zn114  1  0.93095009  0.93584275  0.18547863  1
  Zn  Zn115  1  0.93721514  0.93797201  0.67840794  1
  Zn  Zn116  1  0.07017466  0.04539523  0.31291606  1
  Zn  Zn117  1  0.07777451  0.05213587  0.81639786  1
  Zn  Zn118  1  0.05582172  0.56506686  0.31794395  1
  Zn  Zn119  1  0.06421169  0.56879026  0.80798645  1
  Zn  Zn120  1  0.59960231  0.01372328  0.34490143  1
  Zn  Zn121  1  0.57101074  0.05756900  0.81232315  1
  Zn  Zn122  1  0.57635955  0.54507224  0.39330588  1
  Zn  Zn123  1  0.58323321  0.55034962  0.84455623  1
  Zn  Zn124  1  0.44697605  0.18668779  0.44023119  1
  Zn  Zn125  1  0.42599713  0.18158728  0.92499112  1
  Zn  Zn126  1  0.44771689  0.68301108  0.43661472  1
  Zn  Zn127  1  0.44059800  0.68571560  0.93539873  1
  Zn  Zn128  1  0.94529782  0.17573098  0.42351482  1
  Zn  Zn129  1  0.94071399  0.18000276  0.94478559  1
  Zn  Zn130  1  0.93153759  0.69597007  0.43224917  1
  Zn  Zn131  1  0.94049681  0.68827037  0.93796820  1
  Zn  Zn132  1  0.06892345  0.31015078  0.06313984  1
  Zn  Zn133  1  0.06604578  0.31685635  0.55182964  1
  Zn  Zn134  1  0.04822164  0.80480496  0.05257900  1
  Zn  Zn135  1  0.05747690  0.81069344  0.54740850  1
  Zn  Zn136  1  0.56159037  0.30712896  0.06547863  1
  Zn  Zn137  1  0.57566190  0.28102301  0.59108011  1
  Zn  Zn138  1  0.57305798  0.80521564  0.06559836  1
  Zn  Zn139  1  0.53152974  0.81413731  0.56698638  1
  O  O140  1  0.13447049  0.11653423  0.11075533  1
  O  O141  1  0.13277977  0.12860410  0.60982927  1
  O  O142  1  0.10644860  0.63160958  0.11060909  1
  O  O143  1  0.11509849  0.62931701  0.61313323  1
  O  O144  1  0.62107565  0.11557649  0.12046423  1
  O  O145  1  0.59579605  0.16529256  0.63497020  1
  O  O146  1  0.60384275  0.62819341  0.13996152  1
  O  O147  1  0.62313308  0.59660302  0.64663275  1
  O  O148  1  0.35298264  0.40063692  0.37024574  1
  O  O149  1  0.38168939  0.36261819  0.87886181  1
  O  O150  1  0.37265851  0.89595402  0.37960283  1
  O  O151  1  0.37574698  0.87892378  0.88526428  1
  O  O152  1  0.88967216  0.37289253  0.35572773  1
  O  O153  1  0.88149939  0.36185387  0.89468856  1
  O  O154  1  0.87920122  0.89179555  0.38535650  1
  O  O155  1  0.88060103  0.88583229  0.88162507  1
  O  O156  1  0.26087797  0.01517254  0.38194620  1
  O  O157  1  0.24985888  -0.00470054  0.84911715  1
  O  O158  1  0.25554889  0.52644742  0.37455351  1
  O  O159  1  0.25100407  0.51686155  0.86413678  1
  O  O160  1  0.73720811  0.00421490  0.34149038  1
  O  O161  1  0.76357932  0.00472730  0.87352683  1
  O  O162  1  0.79869743  0.51285355  0.42353383  1
  O  O163  1  0.76705066  0.48146278  0.86297630  1
  O  O164  1  0.25596426  0.48633451  0.12420735  1
  O  O165  1  0.24910696  0.51430382  0.63873946  1
  O  O166  1  0.30763863  0.98284474  0.15003748  1
  O  O167  1  0.24071717  1.00384412  0.63187623  1
  O  O168  1  0.75913367  0.47883242  0.12369659  1
  O  O169  1  0.74007924  0.48465003  0.63972083  1
  O  O170  1  0.73631691  1.00619847  0.12499975  1
  O  O171  1  0.75626316  1.01555108  0.63670904  1
  O  O172  1  0.01432431  0.36553188  0.25266911  1
  O  O173  1  0.00142220  0.35149221  0.76092749  1
  O  O174  1  -0.00886811  0.89328181  0.26865150  1
  O  O175  1  -0.01200277  0.86323326  0.75510363  1
  O  O176  1  0.49200058  0.37103139  0.25555452  1
  O  O177  1  0.51376291  0.37650958  0.77205243  1
  O  O178  1  0.48088492  0.86816567  0.23211277  1
  O  O179  1  0.51404735  0.89128944  0.75028422  1
  O  O180  1  0.49244379  0.14206798  0.25002979  1
  O  O181  1  0.49335129  0.12335026  0.75664477  1
  O  O182  1  0.47739652  0.64035572  0.23646181  1
  O  O183  1  0.50540196  0.61301967  0.76581456  1
  O  O184  1  1.00408421  0.13145808  0.25382991  1
  O  O185  1  1.01445459  0.14229415  0.75250611  1
  O  O186  1  0.99733611  0.62293894  0.23538832  1
  O  O187  1  0.98956461  0.63579189  0.74363644  1
  O  O188  1  0.37490512  0.23984746  0.01620867  1
  O  O189  1  0.36169464  0.25597270  0.48965590  1
  O  O190  1  0.36910502  0.75749222  -0.00045281  1
  O  O191  1  0.37175283  0.73739367  0.50130936  1
  O  O192  1  0.87897444  0.25464969  0.00886724  1
  O  O193  1  0.88135429  0.21038265  0.53533817  1
  O  O194  1  0.86740785  0.76305730  -0.01040217  1
  O  O195  1  0.86033174  0.77100137  0.48928673  1
  O  O196  1  0.12892103  0.24043951  0.49032835  1
  O  O197  1  0.12508174  0.22814249  1.00244516  1
  O  O198  1  0.13346330  0.73853104  0.49926697  1
  O  O199  1  0.13540295  0.74534935  1.00145608  1
  O  O200  1  0.63452963  0.27915581  0.49239477  1
  O  O201  1  0.64115196  0.25257971  0.99150621  1
  O  O202  1  0.59738631  0.78541633  0.47640696  1
  O  O203  1  0.64383069  0.75195250  0.99094909  1
  O  O204  1  0.48119356  0.26204808  0.13463419  1
  O  O205  1  0.47718789  0.25137269  0.64025918  1
  O  O206  1  0.48686257  0.74059977  0.12309139  1
  O  O207  1  0.52637300  0.71367247  0.62792756  1
  O  O208  1  0.99481664  0.24849694  0.13419741  1
  O  O209  1  0.99862240  0.24730199  0.64941645  1
  O  O210  1  0.97728659  0.72888554  0.10343534  1
  O  O211  1  0.99924118  0.74646590  0.63496495  1
  O  O212  1  0.00843936  0.25098364  0.35930396  1
  O  O213  1  0.01077602  0.24050453  0.85803493  1
  O  O214  1  -0.00283846  0.77281899  0.37829149  1
  O  O215  1  -0.00419950  0.76289526  0.86559450  1
  O  O216  1  0.49811900  0.25307702  0.36403077  1
  O  O217  1  0.50829037  0.25699358  0.88517036  1
  O  O218  1  0.47497480  0.75896023  0.34853609  1
  O  O219  1  0.51932998  0.74623425  0.88160847  1
  O  O220  1  0.24350961  0.13750679  0.49073015  1
  O  O221  1  0.24132436  0.10561195  0.99456490  1
  O  O222  1  0.24037772  0.63539802  0.49568529  1
  O  O223  1  0.23930408  0.63148066  0.99320406  1
  O  O224  1  0.72272986  0.13356888  0.51216890  1
  O  O225  1  0.76135643  0.13465403  0.98713142  1
  O  O226  1  0.70659329  0.65402680  0.50862670  1
  O  O227  1  0.76329718  0.62826072  0.99325786  1
  O  O228  1  0.23733569  0.37110403  0.02070045  1
  O  O229  1  0.23486927  0.36137827  0.49311552  1
  O  O230  1  0.24998577  0.86281514  -0.00879273  1
  O  O231  1  0.25564083  0.85628125  0.49288579  1
  O  O232  1  0.76738658  0.36284997  0.00419183  1
  O  O233  1  0.75715437  0.38071532  0.51743785  1
  O  O234  1  0.76576437  0.88385006  -0.00234582  1
  O  O235  1  0.76064718  0.91209217  0.49184729  1
  O  O236  1  0.12196624  0.48955845  0.25176494  1
  O  O237  1  0.13862551  0.50954969  0.74702075  1
  O  O238  1  0.13853550  1.01811587  0.23301388  1
  O  O239  1  0.13170052  0.99661646  0.73073016  1
  O  O240  1  0.63434750  0.45247808  0.36600095  1
  O  O241  1  0.64274224  0.47905882  0.76292668  1
  O  O242  1  0.63599578  0.99403773  0.22710414  1
  O  O243  1  0.64320312  0.98888499  0.75276392  1
  O  O244  1  0.39578444  0.02081382  0.27616672  1
  O  O245  1  0.36105891  -0.01909787  0.73436229  1
  O  O246  1  0.36383457  0.52083926  0.24202462  1
  O  O247  1  0.35474501  0.48821702  0.76913232  1
  O  O248  1  0.85368894  0.00103404  0.23601930  1
  O  O249  1  0.87097343  -0.00213958  0.75903193  1
  O  O250  1  0.88052068  0.50692885  0.24940302  1
  O  O251  1  0.87806480  0.49865832  0.74520808  1
  O  O252  1  0.12328986  0.36503291  0.36173621  1
  O  O253  1  0.17979833  0.35423498  0.87145247  1
  O  O254  1  0.10901882  0.88788691  0.37947536  1
  O  O255  1  0.10802434  0.88052538  0.86821705  1
  O  O256  1  0.50989603  0.38444464  0.44070683  1
  O  O257  1  0.62722031  0.36178460  0.87342247  1
  O  O258  1  0.61135295  0.89761613  0.33643536  1
  O  O259  1  0.63494049  0.86439484  0.85862170  1
  O  O260  1  0.37068105  0.13776733  0.14349546  1
  O  O261  1  0.38400755  0.14520900  0.63000079  1
  O  O262  1  0.37352539  0.63508881  0.12776790  1
  O  O263  1  0.40121145  0.61315222  0.63891525  1
  O  O264  1  0.87842026  0.13764519  0.11425432  1
  O  O265  1  0.88310925  0.16178083  0.59122625  1
  O  O266  1  0.88128879  0.63047399  0.13566304  1
  O  O267  1  0.88405712  0.62845642  0.62164475  1
  O  O268  1  0.26024068  0.25382491  0.12306969  1
  O  O269  1  0.26095592  0.24819650  0.60877375  1
  O  O270  1  0.26208995  0.74517515  0.10527169  1
  O  O271  1  0.25563485  0.74514396  0.61110145  1
  O  O272  1  0.76382280  0.25045786  0.11532994  1
  O  O273  1  0.74705499  0.26205233  0.61423938  1
  O  O274  1  0.77018969  0.74546016  0.10064478  1
  O  O275  1  0.73151285  0.70014391  0.57689041  1
  O  O276  1  0.24280261  0.24391005  0.38083723  1
  O  O277  1  0.26720854  0.22113560  0.88773726  1
  O  O278  1  0.25811834  0.73485035  0.38957114  1
  O  O279  1  0.25749693  0.73922012  0.88853066  1
  O  O280  1  0.77712781  0.25449633  0.41554990  1
  O  O281  1  0.74932374  0.24045933  0.88091980  1
  O  O282  1  0.71929484  0.76609799  0.38630828  1
  O  O283  1  0.75225780  0.75387441  0.88833941  1
  O  O284  1  0.01570292  0.10633165  -0.00962010  1
  O  O285  1  0.02120825  0.11641847  0.49338353  1
  O  O286  1  0.00449597  0.61188609  -0.00275142  1
  O  O287  1  0.00589735  0.64052124  0.50679332  1
  O  O288  1  0.49667773  0.11818083  -0.00192763  1
  O  O289  1  0.50303512  0.11457117  0.50790313  1
  O  O290  1  0.49462124  0.62263948  0.01608636  1
  O  O291  1  0.54962344  0.63948845  0.46008014  1
  O  O292  1  0.48286683  0.36818203  0.50647309  1
  O  O293  1  0.50359134  0.37819837  0.98847684  1
  O  O294  1  0.47213640  0.91005327  0.55544090  1
  O  O295  1  0.49719754  0.86513282  0.99350858  1
  O  O296  1  0.99303615  0.35332154  0.47471779  1
  O  O297  1  0.99764059  0.38516735  1.00702537  1
  O  O298  1  0.98683946  0.88835223  0.49276342  1
  O  O299  1  0.99440526  0.88131036  0.98277578  1
  O  O300  1  0.47085769  0.51139536  0.36078701  1
  O  O301  1  0.47778398  0.48622366  0.87424717  1
  O  O302  1  0.49250289  0.99752512  0.40191079  1
  O  O303  1  0.50704993  1.00113446  0.89103179  1
  O  O304  1  1.00478492  0.48323270  0.37739807  1
  O  O305  1  1.00549006  0.49930514  0.88416062  1
  O  O306  1  0.99875240  1.00071609  0.39100739  1
  O  O307  1  0.99093117  0.99002602  0.86987766  1
  O  O308  1  -0.00440739  -0.00755979  0.10707520  1
  O  O309  1  0.01763825  -0.00300656  0.61277863  1
  O  O310  1  -0.00851476  0.51466829  0.11423858  1
  O  O311  1  0.00333154  0.52921725  0.62892103  1
  O  O312  1  0.51019169  -0.00086306  0.10967743  1
  O  O313  1  0.50398086  0.03217179  0.62883024  1
  O  O314  1  0.49034055  0.51164793  0.12302318  1
  O  O315  1  0.51174277  0.50144151  0.64593021  1
  O  O316  1  0.23233373  0.36848021  0.24133570  1
  O  O317  1  0.23826908  0.38576597  0.73194353  1
  O  O318  1  0.24141016  0.84818749  0.25198533  1
  O  O319  1  0.24275381  0.87520638  0.74544410  1
  O  O320  1  0.75252847  0.35538350  0.23450898  1
  O  O321  1  0.75507482  0.37627586  0.74259041  1
  O  O322  1  0.74019132  0.86171936  0.24225587  1
  O  O323  1  0.75804403  0.89135311  0.74287471  1
  O  O324  1  0.25875509  0.13141733  0.26574114  1
  O  O325  1  0.24606003  0.11904312  0.76168210  1
  O  O326  1  0.25144471  0.64760127  0.25726788  1
  O  O327  1  0.24321005  0.64159061  0.76488020  1
  O  O328  1  0.75049507  0.12877864  0.24152110  1
  O  O329  1  0.75061656  0.11317409  0.76225000  1
  O  O330  1  0.76605439  0.62016490  0.23939797  1
  O  O331  1  0.77148977  0.60222893  0.74455692  1
  O  O332  1  0.36672883  0.12879559  0.37020151  1
  O  O333  1  0.36109971  0.09884404  0.88083940  1
  O  O334  1  0.36483743  0.62482831  0.35718523  1
  O  O335  1  0.36403048  0.61961005  0.87645320  1
  O  O336  1  0.86630962  0.11698712  0.37880145  1
  O  O337  1  0.87294767  0.10867507  0.87960427  1
  O  O338  1  0.88338710  0.63433999  0.35209034  1
  O  O339  1  0.88185487  0.61731939  0.86698756  1
  O  O340  1  0.13138268  0.37197069  0.13743685  1
  O  O341  1  0.06987645  0.39395019  0.62950122  1
  O  O342  1  0.09909905  0.84713446  0.15124358  1
  O  O343  1  0.12689632  0.88118649  0.61363256  1
  O  O344  1  0.64561069  0.36849355  0.11199969  1
  O  O345  1  0.62431584  0.37640689  0.64955020  1
  O  O346  1  0.62007018  0.88457053  0.13238778  1
  O  O347  1  0.62522980  0.85385469  0.64401452  1
  O  O348  1  0.11634950  0.24506958  0.25455268  1
  O  O349  1  0.11103611  0.25340391  0.74425596  1
  O  O350  1  0.09668089  0.78674282  0.20147584  1
  O  O351  1  0.10525753  0.74637223  0.75029403  1
  O  O352  1  0.60594759  0.25801132  0.24161308  1
  O  O353  1  0.63937935  0.26354620  0.76694374  1
  O  O354  1  0.60199235  0.76550118  0.23860264  1
  O  O355  1  0.63501660  0.76465158  0.76065628  1
  O  O356  1  0.38197439  0.24353913  0.24898612  1
  O  O357  1  0.34747697  0.26150508  0.74684604  1
  O  O358  1  0.37322206  0.74943289  0.22916133  1
  O  O359  1  0.38524078  0.76295140  0.73704372  1
  O  O360  1  0.88946243  0.24630757  0.23811676  1
  O  O361  1  0.90210239  0.24246172  0.75849382  1
  O  O362  1  0.86633783  0.75606297  0.23353526  1
  O  O363  1  0.87744587  0.73342029  0.75540773  1
  O  O364  1  0.37339428  0.51439232  0.48730187  1
  O  O365  1  0.35881678  0.49675921  0.97785349  1
  O  O366  1  0.37698752  1.01560106  0.49209292  1
  O  O367  1  0.39579123  0.98325032  1.00500806  1
  O  O368  1  0.84599840  0.52381197  0.47726261  1
  O  O369  1  0.88790603  0.48572402  0.99991942  1
  O  O370  1  0.89241844  1.01306586  0.51024019  1
  O  O371  1  0.88740510  0.99012251  0.99048358  1
  O  O372  1  0.11416871  -0.00549700  0.00029798  1
  O  O373  1  0.13245656  0.01101007  0.51031194  1
  O  O374  1  0.11400922  0.50703689  -0.00158942  1
  O  O375  1  0.13115546  0.52248901  0.50105333  1
  O  O376  1  0.61655126  -0.00312844  0.00578001  1
  O  O377  1  0.61004266  -0.01476076  0.49999737  1
  O  O378  1  0.61711140  0.51340267  -0.04752217  1
  O  O379  1  0.62041566  0.48502596  0.52732672  1
  O  O380  1  0.35779103  0.36298078  0.13598003  1
  O  O381  1  0.37629966  0.36562118  0.62849269  1
  O  O382  1  0.38045762  0.85816036  0.10342878  1
  O  O383  1  0.39141721  0.80015394  0.67222537  1
  O  O384  1  0.87165418  0.35965179  0.11547942  1
  O  O385  1  0.86959205  0.37567965  0.62706299  1
  O  O386  1  0.88674004  0.86049823  0.10572673  1
  O  O387  1  0.87517412  0.88077659  0.60392375  1
  O  O388  1  0.13931613  0.13114775  0.38043504  1
  O  O389  1  0.14490442  0.10896636  0.88735889  1
  O  O390  1  0.13208947  0.62817716  0.37954354  1
  O  O391  1  0.13443135  0.62657561  0.88531551  1
  O  O392  1  0.61331568  0.12242832  0.36220462  1
  O  O393  1  0.63722136  0.13379656  0.87209011  1
  O  O394  1  0.64078057  0.63799658  0.34644711  1
  O  O395  1  0.64196350  0.64789449  0.85987300  1
