# generated using pymatgen
data_V35Zn35O128
_symmetry_space_group_name_H-M   'P 1'
_cell_length_a   16.91910806
_cell_length_b   17.00042300
_cell_length_c   16.94448719
_cell_angle_alpha   90.18632779
_cell_angle_beta   89.76645527
_cell_angle_gamma   90.05739271
_symmetry_Int_Tables_number   1
_chemical_formula_structural   V35Zn35O128
_chemical_formula_sum   'V70 Zn70 O256'
_cell_volume   4873.70799216
_cell_formula_units_Z   2
loop_
 _symmetry_equiv_pos_site_id
 _symmetry_equiv_pos_as_xyz
  1  'x, y, z'
loop_
 _atom_site_type_symbol
 _atom_site_label
 _atom_site_symmetry_multiplicity
 _atom_site_fract_x
 _atom_site_fract_y
 _atom_site_fract_z
 _atom_site_occupancy
  V  V0  1  0.88278517  0.88707596  0.00051999  1
  V  V1  1  0.74635855  0.35604603  0.62717738  1
  V  V2  1  0.75082836  0.85063998  0.13162186  1
  V  V3  1  0.13258088  0.47839215  0.16002297  1
  V  V4  1  0.87482473  0.36211353  0.49215120  1
  V  V5  1  0.87189174  0.23874741  0.13111763  1
  V  V6  1  0.50233238  0.12432740  0.62306854  1
  V  V7  1  0.49112246  0.36990839  0.36344239  1
  V  V8  1  0.24896200  0.37093338  0.61952267  1
  V  V9  1  0.87820295  0.62281111  0.24553393  1
  V  V10  1  0.50504832  0.25492495  0.74863111  1
  V  V11  1  0.74406812  0.48366571  0.75007634  1
  V  V12  1  0.12057865  0.50295359  0.62794397  1
  V  V13  1  0.86840011  0.85596154  0.48787118  1
  V  V14  1  0.88333492  0.49714058  0.87070468  1
  V  V15  1  0.24958670  0.50851191  0.74641967  1
  V  V16  1  0.50051884  0.14112989  0.12877457  1
  V  V17  1  0.39396306  0.63198002  0.74218156  1
  V  V18  1  0.86329471  0.37850081  0.01285741  1
  V  V19  1  0.25151910  0.87432132  0.62357133  1
  V  V20  1  0.73612663  0.50101828  0.22417656  1
  V  V21  1  0.89335829  0.23852886  0.63956222  1
  V  V22  1  0.00044764  0.49909606  0.48686736  1
  V  V23  1  -0.00407688  0.62996615  0.62173385  1
  V  V24  1  0.00262237  -0.00491384  0.52108636  1
  V  V25  1  0.11371571  0.37232264  0.74613320  1
  V  V26  1  0.36539631  0.49283142  0.87256661  1
  V  V27  1  0.76921173  0.11806835  0.87549943  1
  V  V28  1  0.62061227  0.87319854  0.25706475  1
  V  V29  1  0.24444683  0.13910698  0.38883812  1
  V  V30  1  0.13258696  0.24415662  0.87543786  1
  V  V31  1  0.38290839  0.13916325  0.25350316  1
  V  V32  1  0.60791392  0.51280988  0.11250708  1
  V  V33  1  0.62559321  0.00463039  0.12515225  1
  V  V34  1  0.37134420  0.24855545  0.61693219  1
  V  V35  1  0.61749763  0.37038851  0.23855365  1
  V  V36  1  -0.00146633  0.36530343  0.88124457  1
  V  V37  1  0.88823983  0.00459775  0.36782002  1
  V  V38  1  0.49753158  0.37142735  0.87793140  1
  V  V39  1  0.26560363  0.76095863  0.01500249  1
  V  V40  1  0.37747254  0.86798208  0.50523271  1
  V  V41  1  0.49079679  0.50942150  -0.00319032  1
  V  V42  1  0.37588640  0.38247767  0.49749192  1
  V  V43  1  0.49702160  0.86280053  0.37780183  1
  V  V44  1  0.24989260  -0.00319298  0.75212432  1
  V  V45  1  -0.01227627  0.89536005  0.86725754  1
  V  V46  1  0.12587007  0.75721012  0.35854597  1
  V  V47  1  0.63023384  0.13244557  0.00170491  1
  V  V48  1  0.37115640  0.12485590  0.75291921  1
  V  V49  1  0.74754491  0.63448322  0.87843904  1
  V  V50  1  0.49007057  0.75579700  0.21743841  1
  V  V51  1  0.63452653  0.25535424  0.87534322  1
  V  V52  1  0.64252727  -0.00341259  0.63302793  1
  V  V53  1  0.84516938  0.49869428  0.37649469  1
  V  V54  1  0.26516615  0.61162138  0.37122236  1
  V  V55  1  0.37036115  0.00052150  0.37717805  1
  V  V56  1  0.74565505  0.02873266  0.26193891  1
  V  V57  1  0.87828530  0.62402974  0.74043594  1
  V  V58  1  0.25255211  0.74844863  0.49923738  1
  V  V59  1  0.11160287  0.87912451  0.73457162  1
  V  V60  1  0.25272911  -0.00390996  0.22816536  1
  V  V61  1  0.27140510  0.36778499  0.11687132  1
  V  V62  1  0.63888982  0.13254762  0.49303410  1
  V  V63  1  0.11949960  0.09555007  0.04005667  1
  V  V64  1  0.12486038  0.75795748  0.87366677  1
  V  V65  1  0.38960138  -0.00925442  0.87503058  1
  V  V66  1  0.01518070  0.27249629  0.24478818  1
  V  V67  1  0.37862276  0.62656158  0.22478066  1
  V  V68  1  0.51665969  0.50013943  0.49954462  1
  V  V69  1  0.50248246  -0.00117772  0.49984695  1
  Zn  Zn70  1  -0.00527695  0.74783101  0.74594191  1
  Zn  Zn71  1  0.04438185  0.56831896  0.04836741  1
  Zn  Zn72  1  0.12612773  0.62771315  0.49356364  1
  Zn  Zn73  1  0.63029975  0.24051461  0.36353518  1
  Zn  Zn74  1  0.25911928  0.24831669  0.99520970  1
  Zn  Zn75  1  0.62724158  0.49136215  0.62140028  1
  Zn  Zn76  1  0.19118945  0.18901181  0.19272323  1
  Zn  Zn77  1  0.19119901  0.19071840  0.69565893  1
  Zn  Zn78  1  0.19258078  0.67353788  0.18250474  1
  Zn  Zn79  1  0.18610555  0.69239280  0.68597506  1
  Zn  Zn80  1  0.69205475  0.19774932  0.17995771  1
  Zn  Zn81  1  0.69422162  0.17355434  0.69305381  1
  Zn  Zn82  1  0.67291341  0.68004921  0.20235539  1
  Zn  Zn83  1  0.69827266  0.67444739  0.68475932  1
  Zn  Zn84  1  0.29984943  0.31701491  0.30742236  1
  Zn  Zn85  1  0.31056202  0.31463992  0.80312159  1
  Zn  Zn86  1  0.30645864  0.81053009  0.30533980  1
  Zn  Zn87  1  0.31230198  0.81223828  0.81504545  1
  Zn  Zn88  1  0.80709355  0.30717484  0.30778034  1
  Zn  Zn89  1  0.82136460  0.30157980  0.81001419  1
  Zn  Zn90  1  0.83645524  0.82677009  0.28821647  1
  Zn  Zn91  1  0.78201406  0.81130501  0.78056238  1
  Zn  Zn92  1  0.18825151  0.43796235  0.43743099  1
  Zn  Zn93  1  0.18408580  0.42646611  0.94438198  1
  Zn  Zn94  1  0.18214445  0.93915946  0.43328258  1
  Zn  Zn95  1  0.24519344  0.96710567  0.97485942  1
  Zn  Zn96  1  0.68908696  0.39742307  0.42970620  1
  Zn  Zn97  1  0.68682929  0.43960407  0.93874906  1
  Zn  Zn98  1  0.68658873  0.93592391  0.43778243  1
  Zn  Zn99  1  0.70597853  0.94290898  0.94860541  1
  Zn  Zn100  1  0.31923646  0.09937590  0.05138107  1
  Zn  Zn101  1  0.30916547  0.06041705  0.56375946  1
  Zn  Zn102  1  0.21803274  0.56847565  0.03668431  1
  Zn  Zn103  1  0.31734169  0.56511903  0.56383775  1
  Zn  Zn104  1  0.80982364  0.06646434  0.06447401  1
  Zn  Zn105  1  0.82209510  0.05973265  0.55116700  1
  Zn  Zn106  1  0.86029407  0.60027867  0.03450548  1
  Zn  Zn107  1  0.80824408  0.55002347  0.56382714  1
  Zn  Zn108  1  0.39922019  0.43162922  0.20073710  1
  Zn  Zn109  1  0.43956525  0.43928960  0.68333851  1
  Zn  Zn110  1  0.43784882  0.94930053  0.19328297  1
  Zn  Zn111  1  0.43611710  0.94038066  0.68250533  1
  Zn  Zn112  1  0.94309444  0.44121902  0.19596940  1
  Zn  Zn113  1  0.93406265  0.43157790  0.68124776  1
  Zn  Zn114  1  0.90845060  0.96150206  0.16616216  1
  Zn  Zn115  1  0.90786710  0.92360483  0.67689581  1
  Zn  Zn116  1  0.07355497  0.06719578  0.30546852  1
  Zn  Zn117  1  0.06830976  0.06051820  0.80589139  1
  Zn  Zn118  1  0.07175417  0.57251252  0.30992240  1
  Zn  Zn119  1  0.08169063  0.55308910  0.86708163  1
  Zn  Zn120  1  0.55990873  0.06100345  0.31417291  1
  Zn  Zn121  1  0.56845878  0.06560742  0.81463115  1
  Zn  Zn122  1  0.52726917  0.54819254  0.29942505  1
  Zn  Zn123  1  0.56404196  0.56097040  0.81257900  1
  Zn  Zn124  1  0.44274671  0.19108244  0.43461349  1
  Zn  Zn125  1  0.44407145  0.18260570  0.93935509  1
  Zn  Zn126  1  0.44267549  0.68022274  0.44658222  1
  Zn  Zn127  1  0.37850798  0.65907445  0.95726428  1
  Zn  Zn128  1  0.93966922  0.16997763  0.44093082  1
  Zn  Zn129  1  0.94957520  0.19019127  0.95683797  1
  Zn  Zn130  1  0.93996344  0.67968564  0.41863085  1
  Zn  Zn131  1  0.98047557  0.72956503  0.96440643  1
  Zn  Zn132  1  0.06432873  0.31680676  0.06457166  1
  Zn  Zn133  1  0.05805572  0.31834279  0.55774079  1
  Zn  Zn134  1  0.10708626  0.88087710  0.01773090  1
  Zn  Zn135  1  0.06116200  0.81698600  0.54566516  1
  Zn  Zn136  1  0.55569732  0.31640628  0.05771483  1
  Zn  Zn137  1  0.55917696  0.31186957  0.55773920  1
  Zn  Zn138  1  0.55736183  0.83528765  0.04970154  1
  Zn  Zn139  1  0.73608143  0.84245738  0.60181122  1
  O  O140  1  0.11574668  0.11605236  0.13958279  1
  O  O141  1  0.09813531  0.12650354  0.64710192  1
  O  O142  1  0.13635616  0.59276688  0.12381392  1
  O  O143  1  0.11760375  0.61426145  0.62150102  1
  O  O144  1  0.62019866  0.12371157  0.12583493  1
  O  O145  1  0.61803002  0.12089394  0.61457128  1
  O  O146  1  0.61589420  0.61049632  0.12363553  1
  O  O147  1  0.65552516  0.60960725  0.60052256  1
  O  O148  1  0.38101395  0.36510835  0.38635092  1
  O  O149  1  0.38663726  0.38389959  0.85685297  1
  O  O150  1  0.37994171  0.88344912  0.38403651  1
  O  O151  1  0.37953363  0.89129370  0.86519438  1
  O  O152  1  0.86822845  0.38872591  0.38686725  1
  O  O153  1  0.88623306  0.37607693  0.87387724  1
  O  O154  1  0.86577783  0.89055681  0.37508569  1
  O  O155  1  0.87687226  0.88441928  0.89791533  1
  O  O156  1  0.26416805  0.00748759  0.38020895  1
  O  O157  1  0.25543441  -0.00560390  0.85366221  1
  O  O158  1  0.25300122  0.51282105  0.38389571  1
  O  O159  1  0.26085126  0.48231976  0.86100491  1
  O  O160  1  0.74360292  0.00047730  0.36010660  1
  O  O161  1  0.76902699  0.01927514  0.89680100  1
  O  O162  1  0.74645265  0.49580821  0.38258786  1
  O  O163  1  0.76020442  0.48760680  0.85923570  1
  O  O164  1  0.23588104  0.48196822  0.11429397  1
  O  O165  1  0.23860236  0.49412972  0.62715687  1
  O  O166  1  0.26783997  1.01679522  0.13055203  1
  O  O167  1  0.25778740  0.98364407  0.63194427  1
  O  O168  1  0.72644121  0.49747666  0.12432387  1
  O  O169  1  0.75431556  0.47776982  0.63754683  1
  O  O170  1  0.73952562  1.00737779  0.14689017  1
  O  O171  1  0.74236635  1.01059399  0.62081206  1
  O  O172  1  -0.00153381  0.37023007  0.26683296  1
  O  O173  1  0.00892791  0.37837240  0.75300786  1
  O  O174  1  -0.00536300  0.77053208  0.18600497  1
  O  O175  1  0.00778993  0.87100810  0.73004503  1
  O  O176  1  0.49223624  0.37970217  0.25817597  1
  O  O177  1  0.50000143  0.35965005  0.75173694  1
  O  O178  1  0.49799468  0.86886202  0.25585819  1
  O  O179  1  0.50345941  0.85750600  0.75095729  1
  O  O180  1  0.49533623  0.12623649  0.24482752  1
  O  O181  1  0.49325385  0.13245871  0.73734337  1
  O  O182  1  0.49405297  0.65245346  0.23404930  1
  O  O183  1  0.49527463  0.62281859  0.74813124  1
  O  O184  1  0.99615690  0.15807355  0.27951535  1
  O  O185  1  1.03962606  0.11745172  0.69440387  1
  O  O186  1  0.97854897  0.60779218  0.25594778  1
  O  O187  1  0.98676057  0.62123365  0.73776534  1
  O  O188  1  0.35991253  0.19923951  0.00768342  1
  O  O189  1  0.38437190  0.25879661  0.51353767  1
  O  O190  1  0.36514369  0.76845721  -0.00639857  1
  O  O191  1  0.36938123  0.76076985  0.49580243  1
  O  O192  1  0.88935863  0.27196927  0.02107683  1
  O  O193  1  0.88868137  0.26400283  0.48457723  1
  O  O194  1  0.91107165  0.79751143  0.03252754  1
  O  O195  1  0.87646028  0.75803597  0.46960893  1
  O  O196  1  0.11317268  0.28878850  0.45529742  1
  O  O197  1  0.12083015  0.26190810  0.97654415  1
  O  O198  1  0.13881028  0.74829528  0.49036739  1
  O  O199  1  0.09637902  0.76908181  0.97594112  1
  O  O200  1  0.62166261  0.23303088  0.50331667  1
  O  O201  1  0.61636109  0.24539958  0.98476701  1
  O  O202  1  0.70043660  0.68604738  0.40795677  1
  O  O203  1  0.59212613  0.72494457  0.98364462  1
  O  O204  1  0.50469382  0.23927294  0.12734008  1
  O  O205  1  0.49433643  0.24260942  0.63054761  1
  O  O206  1  0.49430227  0.76792043  0.11882865  1
  O  O207  1  0.53569233  0.79876549  0.72030050  1
  O  O208  1  0.99190176  0.26464410  0.13792688  1
  O  O209  1  0.99239749  0.25136280  0.61612219  1
  O  O210  1  1.04302052  0.75287134  0.13506778  1
  O  O211  1  1.00779762  0.73161866  0.61822336  1
  O  O212  1  -0.00364081  0.21411169  0.34360597  1
  O  O213  1  0.00570018  0.26322240  0.87335577  1
  O  O214  1  0.02687306  0.73544100  0.37180806  1
  O  O215  1  -0.00886491  0.77976864  0.85916563  1
  O  O216  1  0.50949406  0.26671856  0.37921758  1
  O  O217  1  0.50296751  0.25352423  0.86662779  1
  O  O218  1  0.49467291  0.76363385  0.38317931  1
  O  O219  1  0.55602845  0.72293823  0.91981109  1
  O  O220  1  0.26032876  0.12763340  0.48924989  1
  O  O221  1  0.21031808  0.13649885  1.00994123  1
  O  O222  1  0.25419145  0.63313734  0.49370433  1
  O  O223  1  0.26081518  0.65525106  0.98254493  1
  O  O224  1  0.73633793  0.12043504  0.49574588  1
  O  O225  1  0.73738586  0.13105729  0.99968554  1
  O  O226  1  0.72113074  0.62450774  0.54993539  1
  O  O227  1  0.76510432  0.61985105  0.97705153  1
  O  O228  1  0.24835970  0.36414456  0.00846709  1
  O  O229  1  0.25821596  0.38147554  0.51268238  1
  O  O230  1  0.22472795  0.86042938  0.00815223  1
  O  O231  1  0.25963821  0.86960264  0.50463731  1
  O  O232  1  0.76481733  0.37658494  -0.00527765  1
  O  O233  1  0.76838314  0.37688102  0.51834844  1
  O  O234  1  0.77104839  0.88078112  0.02696366  1
  O  O235  1  0.75489123  0.86561148  0.48939525  1
  O  O236  1  0.13382597  0.48831331  0.25991529  1
  O  O237  1  0.13095396  0.49067368  0.74195295  1
  O  O238  1  0.15470338  1.00507042  0.25237511  1
  O  O239  1  0.13472636  0.98464099  0.74480752  1
  O  O240  1  0.61867435  0.49756036  0.23109142  1
  O  O241  1  0.64127369  0.49544742  0.74559017  1
  O  O242  1  0.63283361  0.99524104  0.24746405  1
  O  O243  1  0.62097570  1.01004281  0.73197397  1
  O  O244  1  0.37354611  0.01134216  0.26324759  1
  O  O245  1  0.37332175  0.00563115  0.75510932  1
  O  O246  1  0.41500543  0.53155617  0.25134960  1
  O  O247  1  0.36794032  0.50339387  0.74922734  1
  O  O248  1  0.85434809  0.00495393  0.25641251  1
  O  O249  1  0.83606014  -0.09443580  0.75791909  1
  O  O250  1  0.85046946  0.49394356  0.26079833  1
  O  O251  1  0.86744388  0.49476166  0.75328261  1
  O  O252  1  0.12047506  0.34551633  0.40311246  1
  O  O253  1  0.11205812  0.37327648  0.86404215  1
  O  O254  1  0.13709802  0.85728091  0.36950210  1
  O  O255  1  0.10285705  0.87559623  0.85066559  1
  O  O256  1  0.60253473  0.38462485  0.35011159  1
  O  O257  1  0.61757733  0.36007297  0.87623836  1
  O  O258  1  0.60889995  0.88507801  0.36453804  1
  O  O259  1  0.60336039  0.88047644  0.95179893  1
  O  O260  1  0.39498995  0.11820320  0.14264180  1
  O  O261  1  0.38347845  0.13081985  0.62849131  1
  O  O262  1  0.36540515  0.62121445  0.13004305  1
  O  O263  1  0.37372880  0.62236728  0.64271700  1
  O  O264  1  0.87948475  0.13928154  0.12216068  1
  O  O265  1  0.87149199  0.14559241  0.60708463  1
  O  O266  1  0.86578255  0.61059663  0.14629976  1
  O  O267  1  0.88268338  0.60880741  0.63189747  1
  O  O268  1  0.25101123  0.26490441  0.12875059  1
  O  O269  1  0.25862408  0.25888047  0.62943488  1
  O  O270  1  0.24950609  0.74566512  0.11301826  1
  O  O271  1  0.24680121  0.75979032  0.61150169  1
  O  O272  1  0.77121523  0.25512390  0.12658902  1
  O  O273  1  0.76110038  0.25435627  0.63699565  1
  O  O274  1  0.73003774  0.75482736  0.12645301  1
  O  O275  1  0.71364792  0.78048539  0.69166991  1
  O  O276  1  0.25575163  0.23798688  0.37253124  1
  O  O277  1  0.23738872  0.25844552  0.87103242  1
  O  O278  1  0.25007912  0.74330387  0.38358867  1
  O  O279  1  0.22664160  0.76896625  0.88140913  1
  O  O280  1  0.72747162  0.29455028  0.38349228  1
  O  O281  1  0.73587868  0.24980363  0.87159987  1
  O  O282  1  0.65413769  0.62816627  0.39860999  1
  O  O283  1  0.75673560  0.73256883  0.86189879  1
  O  O284  1  0.03055469  0.12551447  -0.00038245  1
  O  O285  1  0.00087030  0.09406117  0.49565964  1
  O  O286  1  -0.03442494  0.62629111  -0.00128945  1
  O  O287  1  -0.00175304  0.61015822  0.50413537  1
  O  O288  1  0.51525204  0.12455836  0.01914652  1
  O  O289  1  0.49836502  0.11638766  0.50953864  1
  O  O290  1  0.48078016  0.60690896  -0.01067207  1
  O  O291  1  0.50628948  0.60050867  0.49278786  1
  O  O292  1  0.49213107  0.37771992  0.49126465  1
  O  O293  1  0.49600274  0.37824595  0.98176461  1
  O  O294  1  0.49230480  0.88703856  0.49307485  1
  O  O295  1  0.45239502  0.90295431  1.03388447  1
  O  O296  1  0.98258524  0.39283150  0.50667998  1
  O  O297  1  0.99599561  0.37974362  0.98269268  1
  O  O298  1  0.97951630  0.87978512  0.49786642  1
  O  O299  1  1.00052273  0.90692917  0.97003261  1
  O  O300  1  0.49455526  0.48062020  0.38979519  1
  O  O301  1  0.49743272  0.48831878  0.87729654  1
  O  O302  1  0.48971854  0.99471181  0.38305879  1
  O  O303  1  0.48933501  1.00691842  0.87392352  1
  O  O304  1  1.00796203  0.50095356  0.38854262  1
  O  O305  1  0.98774933  0.48737977  0.86144728  1
  O  O306  1  0.98760695  1.00153092  0.34969170  1
  O  O307  1  0.98482652  0.99011451  0.83154491  1
  O  O308  1  0.01819837  -0.09187172  0.18914093  1
  O  O309  1  -0.02192131  -0.00812120  0.61989971  1
  O  O310  1  0.02789907  0.48671903  0.13080763  1
  O  O311  1  0.00720033  0.50524208  0.61953744  1
  O  O312  1  0.52244046  0.00923828  0.13806720  1
  O  O313  1  0.50325740  0.00874170  0.61662108  1
  O  O314  1  0.49900643  0.49771300  0.10307880  1
  O  O315  1  0.51162794  0.48503854  0.60920175  1
  O  O316  1  0.28676235  0.39181009  0.22853611  1
  O  O317  1  0.24330883  0.38486883  0.73342542  1
  O  O318  1  0.27420979  0.89681689  0.24044322  1
  O  O319  1  0.24622742  0.87761666  0.73824777  1
  O  O320  1  0.72400484  0.39309023  0.24936692  1
  O  O321  1  0.75762763  0.37545879  0.74075921  1
  O  O322  1  0.72792226  0.86624182  0.24622083  1
  O  O323  1  0.67179646  0.88253058  0.83856508  1
  O  O324  1  0.26941109  0.11849053  0.25934818  1
  O  O325  1  0.26132788  0.11064950  0.73383969  1
  O  O326  1  0.27177213  0.62555267  0.26109111  1
  O  O327  1  0.24366008  0.60939702  0.74495393  1
  O  O328  1  0.73537119  0.12700372  0.26121121  1
  O  O329  1  0.75464134  0.12453647  0.77529163  1
  O  O330  1  0.74388440  0.60228959  0.24941886  1
  O  O331  1  0.76249993  0.60201992  0.74954972  1
  O  O332  1  0.37815511  0.11928717  0.36892304  1
  O  O333  1  0.38214645  0.12113090  0.85400107  1
  O  O334  1  0.36611688  0.62849102  0.37848691  1
  O  O335  1  0.37704206  0.59826221  0.85707705  1
  O  O336  1  0.86604474  0.10162345  0.38370239  1
  O  O337  1  0.86334629  0.14905637  0.89519597  1
  O  O338  1  0.87038938  0.59947787  0.37001722  1
  O  O339  1  0.86809388  0.60298154  0.85586525  1
  O  O340  1  0.13616922  0.37718905  0.13180185  1
  O  O341  1  0.12869181  0.38189320  0.62689632  1
  O  O342  1  0.07936513  0.90392276  0.14477945  1
  O  O343  1  0.13432924  0.86793808  0.62993848  1
  O  O344  1  0.60542508  0.38650374  0.13404035  1
  O  O345  1  0.64421116  0.36358854  0.61867288  1
  O  O346  1  0.63350360  0.89007697  0.12920157  1
  O  O347  1  0.63053340  0.89939280  0.61397971  1
  O  O348  1  0.11516856  0.26008349  0.24488022  1
  O  O349  1  0.13140705  0.26672473  0.75714001  1
  O  O350  1  0.14499142  0.74145971  0.26024509  1
  O  O351  1  0.12384131  0.76692907  0.75146249  1
  O  O352  1  0.62386950  0.26821364  0.24216163  1
  O  O353  1  0.61452447  0.23524602  0.76487359  1
  O  O354  1  0.60160784  0.76524801  0.23917287  1
  O  O355  1  0.60971571  0.84853732  0.87207497  1
  O  O356  1  0.37793874  0.23609521  0.25702641  1
  O  O357  1  0.38140805  0.24285888  0.73788968  1
  O  O358  1  0.38495471  0.74650997  0.24441815  1
  O  O359  1  0.36982329  0.72758070  0.76594433  1
  O  O360  1  0.88161915  0.26599365  0.23550265  1
  O  O361  1  0.88770098  0.24233229  0.73986558  1
  O  O362  1  0.85876837  0.71912994  0.26992488  1
  O  O363  1  0.87107071  0.72337626  0.74474412  1
  O  O364  1  0.38581199  0.48537419  0.51135095  1
  O  O365  1  0.38021105  0.49345092  0.97538129  1
  O  O366  1  0.38360518  0.99275230  0.49624229  1
  O  O367  1  0.35138547  1.01426937  0.97153834  1
  O  O368  1  0.87990842  0.49703852  0.48834893  1
  O  O369  1  0.87310361  0.48825340  0.97524805  1
  O  O370  1  0.88490295  0.98742005  0.48318931  1
  O  O371  1  0.89096404  0.98123681  1.05561018  1
  O  O372  1  0.13704235  -0.00529520  0.01238947  1
  O  O373  1  0.10255396  -0.02647527  0.50601225  1
  O  O374  1  0.12700296  0.52201175  -0.03077780  1
  O  O375  1  0.11241816  0.49697421  0.50879100  1
  O  O376  1  0.63726220  0.01321002  0.02229372  1
  O  O377  1  0.61543015  0.01196265  0.50405294  1
  O  O378  1  0.60798144  0.49611232  0.00312943  1
  O  O379  1  0.61793477  0.47664748  0.49414921  1
  O  O380  1  0.37202301  0.37795851  0.10286526  1
  O  O381  1  0.36763773  0.36639550  0.61982296  1
  O  O382  1  0.39935716  0.90317613  0.08851325  1
  O  O383  1  0.37045963  0.87530231  0.61387859  1
  O  O384  1  0.87469647  0.40063313  0.10982029  1
  O  O385  1  0.87179525  0.35608398  0.61554701  1
  O  O386  1  0.84855659  0.85829797  0.16701846  1
  O  O387  1  0.85646021  0.86053814  0.59451056  1
  O  O388  1  0.14667405  0.12151449  0.37550598  1
  O  O389  1  0.11874852  0.14591718  0.85613706  1
  O  O390  1  0.14726201  0.63130848  0.37576662  1
  O  O391  1  0.10531708  0.66008135  0.85818231  1
  O  O392  1  0.61364930  0.12741742  0.38911425  1
  O  O393  1  0.63185470  0.13281833  0.88627172  1
  O  O394  1  0.60127258  0.63624619  0.33732259  1
  O  O395  1  0.64898475  0.61247846  0.86597017  1
