# generated using pymatgen
data_V35Zn35O128
_symmetry_space_group_name_H-M   'P 1'
_cell_length_a   16.95416866
_cell_length_b   16.94755396
_cell_length_c   16.96853127
_cell_angle_alpha   89.72061153
_cell_angle_beta   89.77596821
_cell_angle_gamma   90.24859114
_symmetry_Int_Tables_number   1
_chemical_formula_structural   V35Zn35O128
_chemical_formula_sum   'V70 Zn70 O256'
_cell_volume   4875.45520343
_cell_formula_units_Z   2
loop_
 _symmetry_equiv_pos_site_id
 _symmetry_equiv_pos_as_xyz
  1  'x, y, z'
loop_
 _atom_site_type_symbol
 _atom_site_label
 _atom_site_symmetry_multiplicity
 _atom_site_fract_x
 _atom_site_fract_y
 _atom_site_fract_z
 _atom_site_occupancy
  V  V0  1  0.40797139  0.62949356  0.25114934  1
  V  V1  1  0.37757790  0.26734698  0.62171489  1
  V  V2  1  0.25755086  0.51040494  0.74951685  1
  V  V3  1  0.62517359  0.39162660  0.75671568  1
  V  V4  1  0.74069098  0.74602046  0.49729227  1
  V  V5  1  0.75897558  0.51561697  0.24576515  1
  V  V6  1  0.62672994  0.23475210  0.87816230  1
  V  V7  1  0.72145272  0.24947995  0.49664312  1
  V  V8  1  -0.00487465  -0.03102487  -0.01095013  1
  V  V9  1  0.86538206  0.12798190  0.25257463  1
  V  V10  1  0.73816316  0.38842326  0.62448674  1
  V  V11  1  0.25271598  0.49261433  0.26289319  1
  V  V12  1  0.88280596  0.00964449  0.37768616  1
  V  V13  1  0.10706181  0.76414580  0.85968113  1
  V  V14  1  0.24449250  0.13467337  0.87975298  1
  V  V15  1  0.37547384  0.87081565  0.50173220  1
  V  V16  1  0.50216994  0.75932354  0.74966977  1
  V  V17  1  0.62293169  0.74717975  0.36676498  1
  V  V18  1  0.75101417  0.61815258  0.86562213  1
  V  V19  1  0.72141729  0.12288442  0.37808927  1
  V  V20  1  0.87713347  0.50212566  0.38183699  1
  V  V21  1  0.36886002  0.73679096  0.63205667  1
  V  V22  1  -0.00953517  0.50344147  -0.01556306  1
  V  V23  1  0.51161095  0.24110164  0.25325169  1
  V  V24  1  0.24185871  -0.00470428  0.75528207  1
  V  V25  1  0.25054996  0.86850044  0.63050868  1
  V  V26  1  0.49659933  0.00880738  0.49885309  1
  V  V27  1  0.38940645  0.23887196  0.11282993  1
  V  V28  1  0.00363091  0.13162412  0.10822239  1
  V  V29  1  0.13833511  0.48045088  0.07663497  1
  V  V30  1  0.61446333  0.61899328  0.00117456  1
  V  V31  1  0.73545463  0.88029194  0.62704774  1
  V  V32  1  0.09680860  0.23993680  0.41646472  1
  V  V33  1  0.61176971  0.50842708  0.12568522  1
  V  V34  1  0.75927960  0.75468261  0.00473131  1
  V  V35  1  0.86734193  0.49946448  0.85378450  1
  V  V36  1  0.40881453  0.74102314  0.12475281  1
  V  V37  1  0.51721945  0.38713380  0.36823120  1
  V  V38  1  0.52729655  0.50756441  0.50923382  1
  V  V39  1  0.38173264  0.51088569  0.39011523  1
  V  V40  1  0.12952523  -0.00631472  0.10926071  1
  V  V41  1  0.61351899  0.01821163  0.62529110  1
  V  V42  1  0.38768258  0.11827472  0.74105959  1
  V  V43  1  0.24461535  0.85247156  0.14191067  1
  V  V44  1  0.49832380  0.26228637  0.75542393  1
  V  V45  1  0.05944328  0.28142899  0.79930985  1
  V  V46  1  -0.00472276  0.61277583  0.13175327  1
  V  V47  1  0.12261669  0.66847443  0.52882938  1
  V  V48  1  0.49991516  0.87811926  0.90001932  1
  V  V49  1  0.38172118  -0.00279257  0.88793621  1
  V  V50  1  0.86115776  0.24394545  0.63557972  1
  V  V51  1  0.24639993  0.74633086  -0.01192763  1
  V  V52  1  0.74580911  0.01464792  0.75181538  1
  V  V53  1  0.86957575  0.24812589  0.12877485  1
  V  V54  1  0.12306498  -0.00376329  0.61378769  1
  V  V55  1  0.49447875  0.86806133  0.37217952  1
  V  V56  1  0.87453083  0.36938119  0.49326987  1
  V  V57  1  0.87655742  0.01100572  0.86532458  1
  V  V58  1  0.52434169  0.62743366  0.62540594  1
  V  V59  1  0.62903623  0.89952247  0.25046616  1
  V  V60  1  0.36430785  0.48540093  0.88760583  1
  V  V61  1  0.02845128  0.15437011  0.63163637  1
  V  V62  1  0.87134759  0.37341145  -0.01154559  1
  V  V63  1  0.87403888  0.73791890  0.62467042  1
  V  V64  1  0.87247968  0.88968211  0.50419459  1
  V  V65  1  0.51485274  0.10197751  0.09532747  1
  V  V66  1  0.23260815  0.37760642  0.63101634  1
  V  V67  1  0.62433251  0.75482468  0.87868472  1
  V  V68  1  0.73955985  0.37628313  0.12975461  1
  V  V69  1  -0.00025738  0.86374588  0.36756359  1
  Zn  Zn70  1  -0.01869852  0.75338140  0.75524688  1
  Zn  Zn71  1  0.68404128  0.31817644  0.31360213  1
  Zn  Zn72  1  0.75737799  0.63490656  0.36977737  1
  Zn  Zn73  1  0.00480611  0.60963960  0.63754472  1
  Zn  Zn74  1  0.73796581  0.25311103  -0.00304417  1
  Zn  Zn75  1  0.22625131  0.09588865  0.39810728  1
  Zn  Zn76  1  0.23582687  0.20584863  0.23764100  1
  Zn  Zn77  1  0.20261557  0.18194799  0.68800598  1
  Zn  Zn78  1  0.19351443  0.64821485  0.14570113  1
  Zn  Zn79  1  0.17604959  0.69654994  0.71864783  1
  Zn  Zn80  1  0.68223545  0.17626220  0.18627672  1
  Zn  Zn81  1  0.68076465  0.19445719  0.68707590  1
  Zn  Zn82  1  0.82468292  0.69928119  0.17493768  1
  Zn  Zn83  1  0.69184890  0.69655584  0.69276108  1
  Zn  Zn84  1  0.34643427  0.33602809  0.29904827  1
  Zn  Zn85  1  0.31160600  0.32037760  0.80885995  1
  Zn  Zn86  1  0.28808149  0.99811701  0.27996684  1
  Zn  Zn87  1  0.31989954  0.81283880  0.81349119  1
  Zn  Zn88  1  0.93474348  0.31698378  0.31668768  1
  Zn  Zn89  1  0.79821844  0.31408206  0.81050239  1
  Zn  Zn90  1  0.80620909  0.83086919  0.30969720  1
  Zn  Zn91  1  0.80334379  0.81399025  0.80757628  1
  Zn  Zn92  1  0.21913346  0.39459208  0.42649356  1
  Zn  Zn93  1  0.15349562  0.43626077  0.87365000  1
  Zn  Zn94  1  0.18625936  0.91803411  0.43486826  1
  Zn  Zn95  1  0.19479933  0.92867100  0.94819919  1
  Zn  Zn96  1  0.69981350  0.45153080  0.44400709  1
  Zn  Zn97  1  0.68309574  0.43565385  0.93859105  1
  Zn  Zn98  1  0.68097702  0.94211266  0.43711795  1
  Zn  Zn99  1  0.69252841  0.93541463  0.93752825  1
  Zn  Zn100  1  0.31732458  0.07535594  0.06420403  1
  Zn  Zn101  1  0.30979673  0.05731354  0.56448450  1
  Zn  Zn102  1  0.32664266  0.56883506  0.06404904  1
  Zn  Zn103  1  0.28694878  0.56586163  0.55939830  1
  Zn  Zn104  1  0.84597704  0.06018898  0.04773179  1
  Zn  Zn105  1  0.79770470  0.06711357  0.55712885  1
  Zn  Zn106  1  0.80960786  0.56546620  0.05169143  1
  Zn  Zn107  1  0.87336524  0.50400774  0.63191439  1
  Zn  Zn108  1  0.42719379  0.43691584  0.19367875  1
  Zn  Zn109  1  0.43914801  0.44917703  0.69151792  1
  Zn  Zn110  1  0.43199210  0.92549618  0.16827217  1
  Zn  Zn111  1  0.43706391  0.93347543  0.68445635  1
  Zn  Zn112  1  0.92631900  0.43820245  0.17456994  1
  Zn  Zn113  1  1.05276061  0.44637062  0.70650146  1
  Zn  Zn114  1  0.98076502  0.97930389  0.21415124  1
  Zn  Zn115  1  0.93089329  0.94725894  0.68845415  1
  Zn  Zn116  1  0.10685242  0.11283397  0.26674820  1
  Zn  Zn117  1  0.04289226  0.09787990  0.82004106  1
  Zn  Zn118  1  0.04459598  0.48441890  0.27953571  1
  Zn  Zn119  1  0.06991556  0.58855331  0.80848068  1
  Zn  Zn120  1  0.49097198  0.03406671  0.28723468  1
  Zn  Zn121  1  0.56260305  0.05700818  0.80976425  1
  Zn  Zn122  1  0.57519836  0.55809525  0.31293909  1
  Zn  Zn123  1  0.56044195  0.57574589  0.80885794  1
  Zn  Zn124  1  0.38465276  0.17287089  0.45188207  1
  Zn  Zn125  1  0.43952026  0.18350389  0.93265798  1
  Zn  Zn126  1  0.43629216  0.68794191  0.44605380  1
  Zn  Zn127  1  0.43293085  0.68934408  0.93854568  1
  Zn  Zn128  1  0.93113578  0.17895620  0.46142597  1
  Zn  Zn129  1  0.92536911  0.19260066  0.93251977  1
  Zn  Zn130  1  0.94015326  0.68278649  0.44442158  1
  Zn  Zn131  1  0.93356139  0.68542698  0.93419091  1
  Zn  Zn132  1  0.07362903  0.31027687  0.18798595  1
  Zn  Zn133  1  0.04727967  0.32723855  0.57629689  1
  Zn  Zn134  1  0.06901444  0.79786620  0.06258495  1
  Zn  Zn135  1  0.05284094  0.83178968  0.56849204  1
  Zn  Zn136  1  0.56441856  0.30439508  0.06877566  1
  Zn  Zn137  1  0.55099153  0.32118746  0.56913740  1
  Zn  Zn138  1  0.62413574  0.75720420  0.13970553  1
  Zn  Zn139  1  0.55922585  0.81131089  0.56005125  1
  O  O140  1  0.10013737  0.11542589  0.09233093  1
  O  O141  1  0.13004921  0.10552813  0.62662314  1
  O  O142  1  0.10984460  0.57557732  0.11589602  1
  O  O143  1  0.11696108  0.65196180  0.63109741  1
  O  O144  1  0.61217148  0.11396218  0.12693188  1
  O  O145  1  0.62000721  0.11655883  0.62469318  1
  O  O146  1  0.62574207  0.61749181  0.10933423  1
  O  O147  1  0.62218078  0.63609441  0.62334066  1
  O  O148  1  0.40111893  0.40257703  0.37853539  1
  O  O149  1  0.38084118  0.38702049  0.87311132  1
  O  O150  1  0.38596280  0.85958104  0.39831505  1
  O  O151  1  0.38962948  0.88795314  0.86949519  1
  O  O152  1  0.86213292  0.37587435  0.38562406  1
  O  O153  1  0.85292831  0.38669107  0.88151622  1
  O  O154  1  0.86642636  0.89422301  0.38853626  1
  O  O155  1  0.89246552  0.88387196  0.83989010  1
  O  O156  1  0.26082398  -0.01348798  0.38989582  1
  O  O157  1  0.26580994  -0.00539100  0.86556510  1
  O  O158  1  0.27267313  0.48602208  0.37154700  1
  O  O159  1  0.25714316  0.49401933  0.86421196  1
  O  O160  1  0.75230249  0.02204072  0.38998628  1
  O  O161  1  0.75663763  -0.01380148  0.85535772  1
  O  O162  1  0.75030076  0.50811043  0.35691422  1
  O  O163  1  0.75282856  0.51063733  0.87731896  1
  O  O164  1  0.23655283  0.48975317  0.07678680  1
  O  O165  1  0.25072440  0.48944479  0.63901584  1
  O  O166  1  0.22957720  1.00856495  0.10193510  1
  O  O167  1  0.24672601  0.99129020  0.63763378  1
  O  O168  1  0.75678524  0.49152267  0.13206834  1
  O  O169  1  0.75773270  0.48593692  0.61892087  1
  O  O170  1  0.79581366  0.95661783  0.12229566  1
  O  O171  1  0.73410822  0.99706072  0.62841607  1
  O  O172  1  -0.00193225  0.37985667  0.24289762  1
  O  O173  1  0.00316896  0.35532902  0.76263501  1
  O  O174  1  -0.01248361  0.88219306  0.26842069  1
  O  O175  1  -0.04988942  0.87327896  0.77878280  1
  O  O176  1  0.51569587  0.41488624  0.27180460  1
  O  O177  1  0.51067268  0.36913383  0.74851107  1
  O  O178  1  0.49647695  0.87098672  0.27208695  1
  O  O179  1  0.50360079  0.86087515  0.74389101  1
  O  O180  1  0.49624252  0.14645161  0.27264165  1
  O  O181  1  0.49049412  0.13189437  0.75125599  1
  O  O182  1  0.50669149  0.62932578  0.25360363  1
  O  O183  1  0.50481985  0.63903755  0.73165908  1
  O  O184  1  0.97935887  0.10768033  0.21301199  1
  O  O185  1  0.99321442  0.10344353  0.71098094  1
  O  O186  1  1.00307526  0.58369320  0.22775118  1
  O  O187  1  0.99129772  0.63855576  0.74881097  1
  O  O188  1  0.38620789  0.24531663  0.01208894  1
  O  O189  1  0.39249036  0.26110111  0.52396235  1
  O  O190  1  0.37697295  0.73854168  0.02416728  1
  O  O191  1  0.37975883  0.75903065  0.52076180  1
  O  O192  1  0.85946679  0.25931732  0.00082153  1
  O  O193  1  0.85554898  0.25905205  0.50554452  1
  O  O194  1  0.85860263  0.74104433  -0.00193815  1
  O  O195  1  0.85795694  0.76699285  0.50939510  1
  O  O196  1  0.10161405  0.24274877  0.51796786  1
  O  O197  1  0.18608233  0.27111442  1.01968687  1
  O  O198  1  0.12881849  0.76742889  0.51028821  1
  O  O199  1  0.14109327  0.74768770  0.98298536  1
  O  O200  1  0.62351130  0.25367699  0.50912705  1
  O  O201  1  0.62049196  0.25682693  0.98254417  1
  O  O202  1  0.63536187  0.76007492  0.49052468  1
  O  O203  1  0.63325988  0.73494900  0.98775505  1
  O  O204  1  0.50718433  0.22536160  0.13156177  1
  O  O205  1  0.49092537  0.25488201  0.64414722  1
  O  O206  1  0.50619387  0.75343646  0.12456082  1
  O  O207  1  0.49323266  0.74033571  0.62888957  1
  O  O208  1  0.98244532  0.23701983  0.11478631  1
  O  O209  1  0.97304944  0.25036405  0.62773664  1
  O  O210  1  1.02620612  0.70940517  0.12055017  1
  O  O211  1  0.97348983  0.76991314  0.62729509  1
  O  O212  1  -0.00469759  0.24909165  0.38951067  1
  O  O213  1  0.00271151  0.20957647  0.85372953  1
  O  O214  1  -0.02182064  0.76555418  0.37729453  1
  O  O215  1  0.00527787  0.75469589  0.88113287  1
  O  O216  1  0.50495473  0.28370105  0.35568765  1
  O  O217  1  0.50768415  0.24899675  0.86173006  1
  O  O218  1  0.51374635  0.75822875  0.38967669  1
  O  O219  1  0.50090987  0.76344505  0.87175882  1
  O  O220  1  0.28341544  0.13109270  0.48742014  1
  O  O221  1  0.25867130  0.12286148  0.97867890  1
  O  O222  1  0.20867254  0.62090331  0.49924886  1
  O  O223  1  0.25140591  0.65571388  1.04110202  1
  O  O224  1  0.73994130  0.14168440  0.49035521  1
  O  O225  1  0.73489226  0.08561097  1.00399460  1
  O  O226  1  0.74922716  0.64894764  0.49805460  1
  O  O227  1  0.74074854  0.63089187  0.98544100  1
  O  O228  1  0.23490958  0.32269923  0.00703771  1
  O  O229  1  0.25235137  0.37936743  0.53118406  1
  O  O230  1  0.25494799  0.84945105  0.02285034  1
  O  O231  1  0.26591158  0.87581902  0.52024727  1
  O  O232  1  0.75354737  0.37818686  0.01110110  1
  O  O233  1  0.74047379  0.36475729  0.50865396  1
  O  O234  1  0.74690416  0.85398099  -0.00721990  1
  O  O235  1  0.75241407  0.87724502  0.50889639  1
  O  O236  1  0.15533101  0.46941986  0.27065203  1
  O  O237  1  0.13097277  0.49746231  0.77544096  1
  O  O238  1  0.10092723  1.00921344  0.20771155  1
  O  O239  1  0.14411991  0.99662991  0.74890060  1
  O  O240  1  0.64410541  0.51147710  0.23132004  1
  O  O241  1  0.61515219  0.49005110  0.75929240  1
  O  O242  1  0.59571581  0.99431146  0.25891872  1
  O  O243  1  0.63044009  0.99987248  0.73514348  1
  O  O244  1  0.39341972  -0.00154822  0.24462743  1
  O  O245  1  0.37832296  0.01060260  0.74826090  1
  O  O246  1  0.38471550  0.52003158  0.26731819  1
  O  O247  1  0.36176601  0.50075050  0.75740600  1
  O  O248  1  0.87098593  0.01563219  0.26868886  1
  O  O249  1  0.85727926  0.00941550  0.75122151  1
  O  O250  1  0.86098081  0.48762767  0.26107729  1
  O  O251  1  0.86334049  0.49390721  0.75736644  1
  O  O252  1  0.15451979  0.31652280  0.37903640  1
  O  O253  1  0.12765297  0.32632291  0.85897055  1
  O  O254  1  0.09842025  0.87280885  0.38472668  1
  O  O255  1  0.15812617  0.85313930  0.87455035  1
  O  O256  1  0.62293736  0.39086064  0.38014504  1
  O  O257  1  0.63168859  0.36797379  0.85954510  1
  O  O258  1  0.60963036  0.87145938  0.37598708  1
  O  O259  1  0.61032393  0.86932642  0.88736855  1
  O  O260  1  0.40040360  0.12937028  0.12091031  1
  O  O261  1  0.36845694  0.13870620  0.64152730  1
  O  O262  1  0.39395872  0.62780645  0.13765660  1
  O  O263  1  0.36298080  0.63845159  0.61892913  1
  O  O264  1  0.84781789  0.13720685  0.13551982  1
  O  O265  1  0.84996024  0.14497855  0.62103220  1
  O  O266  1  0.88797749  0.61988695  0.11837709  1
  O  O267  1  0.87983098  0.63875277  0.61107092  1
  O  O268  1  0.29447573  0.24244074  0.14662416  1
  O  O269  1  0.26626368  0.26614177  0.64170803  1
  O  O270  1  0.21484964  0.75903921  0.16295606  1
  O  O271  1  0.26002521  0.76122036  0.64660669  1
  O  O272  1  0.74794276  0.26209396  0.12204274  1
  O  O273  1  0.74415123  0.25833739  0.61388928  1
  O  O274  1  0.73667452  0.73866864  0.10729189  1
  O  O275  1  0.75034065  0.76424431  0.61564467  1
  O  O276  1  0.29263158  0.24286915  0.34024312  1
  O  O277  1  0.26298358  0.23151125  0.86045913  1
  O  O278  1  0.20789054  0.74562729  0.33975402  1
  O  O279  1  0.28625446  0.74008668  0.89495301  1
  O  O280  1  0.73212625  0.24522523  0.38888822  1
  O  O281  1  0.73245054  0.24549434  0.87547299  1
  O  O282  1  0.74056851  0.75883816  0.38465295  1
  O  O283  1  0.74344475  0.74201906  0.87866050  1
  O  O284  1  -0.04549532  0.11549593  0.01565670  1
  O  O285  1  -0.01147593  0.11931256  0.54572749  1
  O  O286  1  -0.00562596  0.60513463  -0.00610318  1
  O  O287  1  0.02456916  0.63649684  0.50606221  1
  O  O288  1  0.51007279  0.11659393  -0.00394540  1
  O  O289  1  0.47652488  0.10497547  0.48719312  1
  O  O290  1  0.51660386  0.62758014  -0.00650781  1
  O  O291  1  0.50077634  0.62129893  0.51754317  1
  O  O292  1  0.51050385  0.40294132  0.49805526  1
  O  O293  1  0.47376745  0.37750340  1.03914821  1
  O  O294  1  0.49008477  0.87863983  0.50088547  1
  O  O295  1  0.49160954  0.87523408  0.99424239  1
  O  O296  1  0.97270877  0.37438309  0.50499520  1
  O  O297  1  0.97089652  0.37831141  0.98924114  1
  O  O298  1  0.97436904  0.87688755  0.49322328  1
  O  O299  1  0.99912895  0.87125078  0.99796692  1
  O  O300  1  0.50275672  0.51200533  0.39668727  1
  O  O301  1  0.46538819  0.53952441  0.87037745  1
  O  O302  1  0.49574762  0.97950625  0.39438126  1
  O  O303  1  0.49386713  0.98852446  0.87405031  1
  O  O304  1  0.97498631  0.49091682  0.37168803  1
  O  O305  1  0.97503849  0.50291232  0.87534404  1
  O  O306  1  0.98017539  0.99482348  0.38154309  1
  O  O307  1  0.98763461  1.01012697  0.87870981  1
  O  O308  1  -0.00790033  -0.00278504  0.09555890  1
  O  O309  1  0.02710574  -0.03384425  0.63210609  1
  O  O310  1  -0.01201569  0.49612281  0.09399260  1
  O  O311  1  -0.01487748  0.49747312  0.63232123  1
  O  O312  1  0.49496566  0.00352381  0.11167072  1
  O  O313  1  0.50878623  -0.00141738  0.61961413  1
  O  O314  1  0.51534005  0.49965923  0.13434767  1
  O  O315  1  0.50266721  0.51676762  0.62014789  1
  O  O316  1  0.29862593  0.40942185  0.21943113  1
  O  O317  1  0.24782969  0.38776715  0.74140750  1
  O  O318  1  0.24387705  0.90275627  0.22615438  1
  O  O319  1  0.26687910  0.88816215  0.74112324  1
  O  O320  1  0.74419433  0.37997494  0.23295336  1
  O  O321  1  0.73371854  0.37549183  0.73587352  1
  O  O322  1  0.72740386  0.90354773  0.27338082  1
  O  O323  1  0.74899788  0.88417904  0.72979500  1
  O  O324  1  0.22675709  0.09732743  0.27715686  1
  O  O325  1  0.26498923  0.10807078  0.75699162  1
  O  O326  1  0.25453080  0.58688829  0.22177784  1
  O  O327  1  0.24699916  0.60922869  0.73951851  1
  O  O328  1  0.75467650  0.13811005  0.27001043  1
  O  O329  1  0.73824269  0.11298706  0.74912456  1
  O  O330  1  0.76577173  0.61680285  0.24425841  1
  O  O331  1  0.74023182  0.62623228  0.76675045  1
  O  O332  1  0.36106136  0.19043194  0.34134189  1
  O  O333  1  0.37421541  0.10920912  0.86373528  1
  O  O334  1  0.38542026  0.62163005  0.36643448  1
  O  O335  1  0.40456087  0.60013533  0.86637852  1
  O  O336  1  0.87729899  0.12130634  0.37318465  1
  O  O337  1  0.86117665  0.10781145  0.87844254  1
  O  O338  1  0.87122305  0.60783425  0.38911925  1
  O  O339  1  0.86001034  0.61255134  0.87381728  1
  O  O340  1  0.11790179  0.39244097  0.12059938  1
  O  O341  1  0.12862283  0.38002927  0.63357886  1
  O  O342  1  0.13296508  0.88534158  0.11221386  1
  O  O343  1  0.14800911  0.87873620  0.62711412  1
  O  O344  1  0.63496553  0.39070873  0.11416812  1
  O  O345  1  0.62978369  0.37856390  0.63706646  1
  O  O346  1  0.62255598  0.87357315  0.15290007  1
  O  O347  1  0.63375738  0.87884781  0.61965615  1
  O  O348  1  0.12282023  0.22278985  0.23141183  1
  O  O349  1  0.10115181  0.22776010  0.71773405  1
  O  O350  1  0.15314990  0.69832406  0.33953760  1
  O  O351  1  0.10112078  0.77855026  0.75404681  1
  O  O352  1  0.61577535  0.25820162  0.24122234  1
  O  O353  1  0.61269012  0.25491732  0.75834677  1
  O  O354  1  0.62713672  0.76780100  0.26716418  1
  O  O355  1  0.61825933  0.74628680  0.77033887  1
  O  O356  1  0.42206273  0.29335900  0.22040183  1
  O  O357  1  0.38916370  0.24280930  0.75204751  1
  O  O358  1  0.38253347  0.72872597  0.23816631  1
  O  O359  1  0.38656874  0.74984084  0.73877010  1
  O  O360  1  0.88080831  0.24125395  0.23898314  1
  O  O361  1  0.85392594  0.25414684  0.73439039  1
  O  O362  1  0.86665412  0.77634768  0.23792671  1
  O  O363  1  0.85550958  0.74853621  0.72657674  1
  O  O364  1  0.37102370  0.52036087  0.48956747  1
  O  O365  1  0.36561320  0.49889070  0.98649324  1
  O  O366  1  0.38869906  0.97980895  0.52134527  1
  O  O367  1  0.37133892  1.00028276  0.98480950  1
  O  O368  1  0.85445709  0.47994780  0.48607007  1
  O  O369  1  0.87379738  0.48941901  0.98779611  1
  O  O370  1  0.86532542  0.99754138  0.49480039  1
  O  O371  1  0.87886179  0.97780147  0.97242435  1
  O  O372  1  0.10469361  -0.00989595  -0.00516049  1
  O  O373  1  0.13327705  -0.01014125  0.51622279  1
  O  O374  1  0.09912751  0.47630411  -0.02612991  1
  O  O375  1  0.12093542  0.46922766  0.47335762  1
  O  O376  1  0.68186603  0.02934816  0.01092088  1
  O  O377  1  0.60833686  -0.00009132  0.51310970  1
  O  O378  1  0.62791689  0.50989361  0.00972960  1
  O  O379  1  0.62505809  0.51616187  0.50425725  1
  O  O380  1  0.41592386  0.36959289  0.09197171  1
  O  O381  1  0.37728705  0.36854374  0.63742559  1
  O  O382  1  0.35970185  0.84133355  0.13758524  1
  O  O383  1  0.36993317  0.86219696  0.62271509  1
  O  O384  1  0.86063518  0.36451277  0.11183649  1
  O  O385  1  0.85053520  0.36512617  0.61149351  1
  O  O386  1  0.83793089  0.89796850  0.13345519  1
  O  O387  1  0.85868624  0.88726911  0.61230797  1
  O  O388  1  0.11964210  0.14362008  0.38650877  1
  O  O389  1  0.14630984  0.11851764  0.86305268  1
  O  O390  1  0.10567086  0.52485252  0.42752048  1
  O  O391  1  0.14520328  0.66736344  0.85046690  1
  O  O392  1  0.62685092  0.11761123  0.37253240  1
  O  O393  1  0.61862877  0.13582003  0.87053351  1
  O  O394  1  0.63344312  0.64425165  0.36761291  1
  O  O395  1  0.63200857  0.62792103  0.88313372  1
