# generated using pymatgen
data_V35Zn35O128
_symmetry_space_group_name_H-M   'P 1'
_cell_length_a   16.91574770
_cell_length_b   16.85324319
_cell_length_c   16.92796747
_cell_angle_alpha   90.02010125
_cell_angle_beta   89.81035955
_cell_angle_gamma   89.92959016
_symmetry_Int_Tables_number   1
_chemical_formula_structural   V35Zn35O128
_chemical_formula_sum   'V70 Zn70 O256'
_cell_volume   4825.88277374
_cell_formula_units_Z   2
loop_
 _symmetry_equiv_pos_site_id
 _symmetry_equiv_pos_as_xyz
  1  'x, y, z'
loop_
 _atom_site_type_symbol
 _atom_site_label
 _atom_site_symmetry_multiplicity
 _atom_site_fract_x
 _atom_site_fract_y
 _atom_site_fract_z
 _atom_site_occupancy
  V  V0  1  0.64215119  0.27872204  0.38215017  1
  V  V1  1  0.87577653  0.25699244  0.12961750  1
  V  V2  1  0.39016693  -0.00645926  0.87882197  1
  V  V3  1  0.63881182  0.12562675  0.49799784  1
  V  V4  1  0.87082714  0.00390640  0.39542900  1
  V  V5  1  0.10627721  0.60888900  0.00324728  1
  V  V6  1  -0.00424557  0.51113752  0.52907585  1
  V  V7  1  -0.02308793  0.23683263  0.75336098  1
  V  V8  1  0.03373060  0.00405377  0.49742320  1
  V  V9  1  0.00604823  0.26382749  0.24609350  1
  V  V10  1  0.77463848  0.36049088  0.61881940  1
  V  V11  1  0.13456383  0.85552796  0.74084415  1
  V  V12  1  0.38210240  0.23581175  0.13040101  1
  V  V13  1  0.48624773  0.01345700  0.50116872  1
  V  V14  1  0.86877213  0.11043167  0.24605008  1
  V  V15  1  0.13157675  0.62018188  0.52527735  1
  V  V16  1  0.12846005  0.85359954  0.25189322  1
  V  V17  1  0.23410400  0.23908276  0.49502374  1
  V  V18  1  0.24255723  0.37592132  0.61874142  1
  V  V19  1  0.12761885  0.12133900  -0.00086255  1
  V  V20  1  0.37904482  0.37464314  0.00010571  1
  V  V21  1  0.50411189  0.36769689  0.87494342  1
  V  V22  1  0.65520776  0.62166654  -0.01199380  1
  V  V23  1  0.12787676  0.35249588  0.76492185  1
  V  V24  1  0.00192406  -0.00644115  -0.00298325  1
  V  V25  1  0.60997882  0.12553824  0.02798701  1
  V  V26  1  0.00585506  0.12586290  0.61454164  1
  V  V27  1  0.24050176  0.62206783  0.87646096  1
  V  V28  1  0.75328511  0.24493984  0.01082583  1
  V  V29  1  0.85641270  0.80635319  0.61965814  1
  V  V30  1  0.37643012  0.12035827  0.74437624  1
  V  V31  1  0.37195208  0.61746747  0.24860924  1
  V  V32  1  0.23542440  0.75593257  0.49870066  1
  V  V33  1  0.78483922  -0.00923315  0.70020656  1
  V  V34  1  0.36519656  0.01235253  0.36235616  1
  V  V35  1  0.37221273  0.49537591  0.39139255  1
  V  V36  1  0.92185584  0.67857143  0.73041055  1
  V  V37  1  0.62462445  0.36962905  0.73416945  1
  V  V38  1  0.49944883  0.87073701  0.36203559  1
  V  V39  1  0.88842259  0.74561543  0.15200876  1
  V  V40  1  0.50050561  0.50243729  0.51598789  1
  V  V41  1  0.00032546  0.86448616  0.37673195  1
  V  V42  1  0.36476543  0.86624712  0.49443812  1
  V  V43  1  0.49900916  0.23649790  0.74519856  1
  V  V44  1  0.24039234  0.38411853  0.12774628  1
  V  V45  1  0.75891972  0.49517569  0.75515721  1
  V  V46  1  0.74831576  0.62458929  0.38111823  1
  V  V47  1  0.13026239  -0.01361427  0.12329269  1
  V  V48  1  0.87149655  0.85404690  -0.00298033  1
  V  V49  1  0.24112714  0.75280926  -0.00175851  1
  V  V50  1  0.24134211  0.49492460  0.75154319  1
  V  V51  1  0.63350561  0.22460978  0.87217400  1
  V  V52  1  0.37326356  0.24822254  0.61691381  1
  V  V53  1  -0.00921765  0.37950933  0.87898254  1
  V  V54  1  0.49643077  0.25908062  0.27043575  1
  V  V55  1  0.63519683  0.48995618  0.13192681  1
  V  V56  1  0.50948005  0.74291348  0.25051008  1
  V  V57  1  0.24915246  0.24791573  -0.00196430  1
  V  V58  1  0.23315466  0.63289990  0.36551131  1
  V  V59  1  0.24928145  0.12292070  0.87670554  1
  V  V60  1  0.87001294  0.01014717  0.87525693  1
  V  V61  1  0.73999914  0.87295952  0.14717517  1
  V  V62  1  0.38286927  0.50200842  0.87019332  1
  V  V63  1  0.01419693  0.86273790  0.86819032  1
  V  V64  1  0.39596604  0.86834592  -0.00156398  1
  V  V65  1  0.61011198  -0.00632654  0.63491971  1
  V  V66  1  0.24494048  0.01564977  0.24536544  1
  V  V67  1  0.50111063  0.61721490  0.10559836  1
  V  V68  1  0.00411785  0.39395805  0.40187961  1
  V  V69  1  0.24198124  -0.00383096  0.74194860  1
  Zn  Zn70  1  0.37111995  0.75148381  0.12625045  1
  Zn  Zn71  1  0.21541828  0.49175550  0.25388442  1
  Zn  Zn72  1  0.13136937  0.25239209  0.36078137  1
  Zn  Zn73  1  0.86660296  0.38480007  -0.00262159  1
  Zn  Zn74  1  0.64746342  0.79183273  0.89519380  1
  Zn  Zn75  1  -0.00057694  0.12019120  0.12487201  1
  Zn  Zn76  1  0.18767324  0.18972939  0.17600145  1
  Zn  Zn77  1  0.18780512  0.18077224  0.68257321  1
  Zn  Zn78  1  0.18371376  0.67388969  0.17490294  1
  Zn  Zn79  1  0.23541520  0.68672975  0.68310762  1
  Zn  Zn80  1  0.68648349  0.19714085  0.20474375  1
  Zn  Zn81  1  0.68683995  0.17268798  0.68124627  1
  Zn  Zn82  1  0.69096776  0.68848517  0.17808300  1
  Zn  Zn83  1  0.73932986  0.70058938  0.73438502  1
  Zn  Zn84  1  0.31073131  0.31590369  0.30939279  1
  Zn  Zn85  1  0.31617388  0.30855280  0.81328967  1
  Zn  Zn86  1  0.31246835  0.81288273  0.30768865  1
  Zn  Zn87  1  0.30925050  0.81455019  0.82034673  1
  Zn  Zn88  1  0.82911097  0.31421248  0.44050181  1
  Zn  Zn89  1  0.80701631  0.31259598  0.81803790  1
  Zn  Zn90  1  0.81400476  0.82315648  0.32132962  1
  Zn  Zn91  1  0.81216841  0.83759083  0.81050805  1
  Zn  Zn92  1  0.18181768  0.44200986  0.43426852  1
  Zn  Zn93  1  0.18520514  0.43402778  0.93794925  1
  Zn  Zn94  1  0.18466017  0.93598747  0.41973566  1
  Zn  Zn95  1  0.19212950  0.93660627  0.93019163  1
  Zn  Zn96  1  0.68051104  0.44732438  0.47024582  1
  Zn  Zn97  1  0.68091485  0.43412001  0.94401530  1
  Zn  Zn98  1  0.66542683  0.97793327  0.40668053  1
  Zn  Zn99  1  0.69794574  0.94904132  0.98595071  1
  Zn  Zn100  1  0.31674351  0.05311752  0.06188024  1
  Zn  Zn101  1  0.30244591  0.05952153  0.55661792  1
  Zn  Zn102  1  0.31612994  0.56102959  0.05735569  1
  Zn  Zn103  1  0.42086756  0.62075632  0.62053440  1
  Zn  Zn104  1  0.80750302  0.06292742  0.06675493  1
  Zn  Zn105  1  0.83030081  0.17767457  0.57316746  1
  Zn  Zn106  1  0.81478615  0.56935908  0.08213058  1
  Zn  Zn107  1  0.81261418  0.55835260  0.59156079  1
  Zn  Zn108  1  0.44157364  0.43489903  0.18490809  1
  Zn  Zn109  1  0.43174851  0.43004141  0.68591813  1
  Zn  Zn110  1  0.42600892  0.93000009  0.18626131  1
  Zn  Zn111  1  0.42293276  0.93601480  0.67782932  1
  Zn  Zn112  1  1.00792887  0.47271163  0.18918805  1
  Zn  Zn113  1  0.94266940  0.43404450  0.69768200  1
  Zn  Zn114  1  0.94366922  0.92483554  0.18429695  1
  Zn  Zn115  1  0.95835675  0.94684654  0.68765160  1
  Zn  Zn116  1  0.05747312  0.06985644  0.30903641  1
  Zn  Zn117  1  0.06165107  0.06175973  0.81363482  1
  Zn  Zn118  1  0.04697827  0.57301317  0.31498503  1
  Zn  Zn119  1  0.06072817  0.56229547  0.80377946  1
  Zn  Zn120  1  0.54281736  0.08138984  0.31787219  1
  Zn  Zn121  1  0.60364946  -0.00831700  0.84193248  1
  Zn  Zn122  1  0.55765487  0.55272106  0.31797563  1
  Zn  Zn123  1  0.57772937  0.55344539  0.81182324  1
  Zn  Zn124  1  0.42144993  0.19453394  0.43134278  1
  Zn  Zn125  1  0.43708582  0.18394459  0.93610618  1
  Zn  Zn126  1  0.43063638  0.67985226  0.43254454  1
  Zn  Zn127  1  0.44072806  0.68980460  0.92249552  1
  Zn  Zn128  1  0.95400786  0.17919584  0.42330537  1
  Zn  Zn129  1  0.94380090  0.18980467  0.93739651  1
  Zn  Zn130  1  0.95280810  0.71655252  0.50327987  1
  Zn  Zn131  1  0.93107090  0.67734052  0.91604810  1
  Zn  Zn132  1  0.06106571  0.31158359  0.05951075  1
  Zn  Zn133  1  0.05952401  0.31228255  0.57483938  1
  Zn  Zn134  1  0.06142564  0.80082975  0.06037760  1
  Zn  Zn135  1  0.06175242  0.81875801  0.56899012  1
  Zn  Zn136  1  0.56444751  0.30870970  0.06289634  1
  Zn  Zn137  1  0.55108329  0.30886757  0.55015234  1
  Zn  Zn138  1  0.57130970  0.79818017  0.06475055  1
  Zn  Zn139  1  0.56275990  0.83382691  0.54652002  1
  O  O140  1  0.12755928  0.10903006  0.11113904  1
  O  O141  1  0.10711062  0.11976074  0.63808973  1
  O  O142  1  0.11315778  0.62598542  0.10298340  1
  O  O143  1  0.15111386  0.62691787  0.62085755  1
  O  O144  1  0.61767328  0.15589110  0.12455862  1
  O  O145  1  0.61451520  0.11595963  0.60352775  1
  O  O146  1  0.61580805  0.62284323  0.11253061  1
  O  O147  1  0.62177770  0.68379635  0.60309804  1
  O  O148  1  0.36702834  0.39823272  0.36442019  1
  O  O149  1  0.38467641  0.37320056  0.88078051  1
  O  O150  1  0.37851612  0.88573390  0.37362102  1
  O  O151  1  0.37707597  0.88553820  0.88187503  1
  O  O152  1  0.90585439  0.37635169  0.38277259  1
  O  O153  1  0.88419038  0.37241923  0.87951959  1
  O  O154  1  0.89404723  0.89404785  0.36983920  1
  O  O155  1  0.89365041  0.88235896  0.88454223  1
  O  O156  1  0.25597064  0.00107808  0.35757241  1
  O  O157  1  0.26188356  0.00807954  0.86828933  1
  O  O158  1  0.25049459  0.51198809  0.36864297  1
  O  O159  1  0.25881645  0.50274553  0.87162591  1
  O  O160  1  0.77197285  -0.00821313  0.38100500  1
  O  O161  1  0.77381733  0.00085119  0.89758777  1
  O  O162  1  0.73255075  0.51886339  0.38803409  1
  O  O163  1  0.73910001  0.47490237  0.85321060  1
  O  O164  1  0.25579007  0.48646081  0.12145258  1
  O  O165  1  0.25688659  0.48018038  0.64708745  1
  O  O166  1  0.24366296  0.99697913  0.13454753  1
  O  O167  1  0.25772349  1.00160018  0.64320109  1
  O  O168  1  0.73631509  0.50522819  0.13204923  1
  O  O169  1  0.75119687  0.47058067  0.63669348  1
  O  O170  1  0.75404548  0.96749783  0.09692282  1
  O  O171  1  0.71295694  0.98150960  0.61558735  1
  O  O172  1  -0.00179457  0.36399374  0.23193123  1
  O  O173  1  0.01220891  0.35636130  0.75432327  1
  O  O174  1  0.01485528  0.87775393  0.26371990  1
  O  O175  1  0.02272174  0.88152303  0.75947861  1
  O  O176  1  0.50289348  0.35580372  0.23511254  1
  O  O177  1  0.50535684  0.35594360  0.75216848  1
  O  O178  1  0.48597149  0.85731596  0.25386936  1
  O  O179  1  0.45664803  0.83115610  0.72777188  1
  O  O180  1  0.50012056  0.15643406  0.24887233  1
  O  O181  1  0.48495514  0.13108748  0.74873192  1
  O  O182  1  0.49110473  0.63400756  0.25563736  1
  O  O183  1  0.51538096  0.64199924  0.76020563  1
  O  O184  1  0.98892549  0.13621237  0.24137002  1
  O  O185  1  0.99995989  0.13488202  0.75305950  1
  O  O186  1  0.96063536  0.56105902  0.24662921  1
  O  O187  1  1.01724007  0.64211020  0.73734610  1
  O  O188  1  0.36623485  0.25347662  0.00570232  1
  O  O189  1  0.36254555  0.24881095  0.51420797  1
  O  O190  1  0.37211768  0.75997382  -0.01181433  1
  O  O191  1  0.36253913  0.76193949  0.48354293  1
  O  O192  1  0.86179675  0.23801687  0.00661530  1
  O  O193  1  0.88744268  0.23558632  0.49466558  1
  O  O194  1  0.89125770  0.75522706  -0.00605078  1
  O  O195  1  0.85737373  0.78203459  0.51912447  1
  O  O196  1  0.13433309  0.25312523  0.50662822  1
  O  O197  1  0.13974182  0.23463605  1.00839339  1
  O  O198  1  0.12886737  0.74288708  0.50219425  1
  O  O199  1  0.13802788  0.73877974  0.99534807  1
  O  O200  1  0.60853844  0.23197010  0.48077349  1
  O  O201  1  0.63167788  0.24408648  0.98602863  1
  O  O202  1  0.67357650  0.80926333  0.50409522  1
  O  O203  1  0.62846061  0.72889436  0.99283115  1
  O  O204  1  0.48058070  0.25190862  0.11701951  1
  O  O205  1  0.47962480  0.25183720  0.62885142  1
  O  O206  1  0.49656286  0.73532581  0.13621485  1
  O  O207  1  0.55729887  0.71894146  0.58993026  1
  O  O208  1  0.99038366  0.24384332  0.12216856  1
  O  O209  1  1.00129296  0.23839642  0.64090103  1
  O  O210  1  0.98853621  0.75434841  0.13049586  1
  O  O211  1  0.96850778  0.76644732  0.61196740  1
  O  O212  1  0.00215924  0.26026008  0.35318926  1
  O  O213  1  -0.00413967  0.25752769  0.85989211  1
  O  O214  1  -0.01349458  0.76807920  0.39843831  1
  O  O215  1  0.00328852  0.76502327  0.86983616  1
  O  O216  1  0.48587932  0.26580543  0.37205649  1
  O  O217  1  0.50671138  0.24895349  0.86304655  1
  O  O218  1  0.49442245  0.76013616  0.36558782  1
  O  O219  1  0.52713617  0.74029392  0.85667896  1
  O  O220  1  0.24789033  0.13956232  0.49941113  1
  O  O221  1  0.24812543  0.12586890  0.99468932  1
  O  O222  1  0.23629499  0.63973774  0.48258847  1
  O  O223  1  0.24732668  0.62508242  0.98666188  1
  O  O224  1  0.73640014  0.12697389  0.50473892  1
  O  O225  1  0.73346527  0.13846453  1.00871375  1
  O  O226  1  0.75798869  0.62773685  0.48462906  1
  O  O227  1  0.75533798  0.62047923  0.99673150  1
  O  O228  1  0.25856407  0.36438209  0.00004635  1
  O  O229  1  0.23930600  0.37461699  0.51782907  1
  O  O230  1  0.25193245  0.85521299  -0.01284019  1
  O  O231  1  0.25405758  0.86468594  0.47669361  1
  O  O232  1  0.75142187  0.35192025  -0.01167341  1
  O  O233  1  0.75931771  0.37670687  0.51481435  1
  O  O234  1  0.77296376  0.85412775  -0.01469603  1
  O  O235  1  0.71638545  0.86533115  0.47863696  1
  O  O236  1  0.10608785  0.51142467  0.23583809  1
  O  O237  1  0.13837981  0.48236973  0.75833076  1
  O  O238  1  0.13346166  0.99983798  0.24036387  1
  O  O239  1  0.14122913  0.99927217  0.75586664  1
  O  O240  1  0.61098065  0.50324601  0.23201969  1
  O  O241  1  0.61709378  0.47054336  0.74212859  1
  O  O242  1  0.57530685  1.00558536  0.21159059  1
  O  O243  1  0.59996170  1.01780181  0.73171047  1
  O  O244  1  0.35870498  -0.00428237  0.25210060  1
  O  O245  1  0.36836229  0.00110681  0.75898349  1
  O  O246  1  0.38238203  0.51313747  0.25015650  1
  O  O247  1  0.35965059  0.48160255  0.76708051  1
  O  O248  1  0.88143172  0.00942686  0.23714656  1
  O  O249  1  0.88123580  -0.00631598  0.76660692  1
  O  O250  1  0.81730794  0.41911277  0.25306247  1
  O  O251  1  0.86008360  0.49258455  0.75080102  1
  O  O252  1  0.10877190  0.36966905  0.37853382  1
  O  O253  1  0.11722949  0.36806542  0.86844093  1
  O  O254  1  0.11531277  0.86681605  0.36128531  1
  O  O255  1  0.12024244  0.87362782  0.86632294  1
  O  O256  1  0.62565569  0.37622294  0.39644546  1
  O  O257  1  0.61408616  0.36026015  0.86334488  1
  O  O258  1  0.59704949  0.89324055  0.36621827  1
  O  O259  1  0.63098683  0.90428246  0.90456651  1
  O  O260  1  0.36864386  0.13643495  0.12055509  1
  O  O261  1  0.35978997  0.13723786  0.63496324  1
  O  O262  1  0.38735338  0.62307157  0.12770700  1
  O  O263  1  0.35119624  0.67769594  0.67972962  1
  O  O264  1  0.87727346  0.13010103  0.12868331  1
  O  O265  1  0.90319588  0.11081126  0.63100437  1
  O  O266  1  0.86948887  0.64595695  0.13985623  1
  O  O267  1  0.86643030  0.63767050  0.65392617  1
  O  O268  1  0.26132324  0.25963222  0.11603826  1
  O  O269  1  0.25230677  0.25500667  0.61654815  1
  O  O270  1  0.25659643  0.73565108  0.10044976  1
  O  O271  1  0.25136568  0.76181338  0.59496901  1
  O  O272  1  0.75873856  0.25128519  0.11757778  1
  O  O273  1  0.75468777  0.25239242  0.62640899  1
  O  O274  1  0.76660752  0.76512583  0.13601512  1
  O  O275  1  0.76368257  0.77128085  0.64590406  1
  O  O276  1  0.24923968  0.26425539  0.39282124  1
  O  O277  1  0.26130629  0.23411103  0.88594166  1
  O  O278  1  0.24957550  0.73682188  0.37221876  1
  O  O279  1  0.26197149  0.72795997  0.87876206  1
  O  O280  1  0.74039665  0.26715654  0.38151129  1
  O  O281  1  0.73601730  0.23983126  0.87583840  1
  O  O282  1  0.76087923  0.72779982  0.37905875  1
  O  O283  1  0.73008620  0.76254533  0.82582304  1
  O  O284  1  0.01403239  0.11376429  -0.00254976  1
  O  O285  1  0.01292898  0.11798278  0.50657344  1
  O  O286  1  0.01023151  0.62386567  -0.02416045  1
  O  O287  1  0.01966989  0.62231355  0.51289288  1
  O  O288  1  0.51162244  0.13567136  0.00234818  1
  O  O289  1  0.48588328  0.11328333  0.48745965  1
  O  O290  1  0.49458085  0.62825769  0.00668075  1
  O  O291  1  0.46906845  0.61785618  0.51712727  1
  O  O292  1  0.49137172  0.39914565  0.51767459  1
  O  O293  1  0.49167630  0.36289695  0.98461763  1
  O  O294  1  0.48253673  0.88189195  0.48023842  1
  O  O295  1  0.49435429  0.86079029  0.99790645  1
  O  O296  1  1.00867758  0.39291419  0.50879095  1
  O  O297  1  0.99958611  0.36615308  0.98113173  1
  O  O298  1  1.02000024  0.89281145  0.48606234  1
  O  O299  1  1.00576759  0.87805957  0.98765301  1
  O  O300  1  0.48324882  0.51465948  0.39765601  1
  O  O301  1  0.48879118  0.48519489  0.86116358  1
  O  O302  1  0.47965845  0.99428189  0.37264528  1
  O  O303  1  0.48702213  1.00304341  0.86879568  1
  O  O304  1  1.00918045  0.49759569  0.40158325  1
  O  O305  1  1.00185383  0.47822055  0.85770492  1
  O  O306  1  1.00186486  0.99941761  0.38805205  1
  O  O307  1  1.00047941  0.99108625  0.88391147  1
  O  O308  1  0.01221214  -0.00431780  0.11211642  1
  O  O309  1  0.01161178  0.00397459  0.60354808  1
  O  O310  1  -0.02654110  0.49662808  0.07602295  1
  O  O311  1  0.00927143  0.49678385  0.62781417  1
  O  O312  1  0.52148583  0.00319820  0.15916346  1
  O  O313  1  0.48134272  0.00662817  0.60474546  1
  O  O314  1  0.50404535  0.51467737  0.12162865  1
  O  O315  1  0.46959463  0.51502951  0.62377759  1
  O  O316  1  0.24692420  0.37658876  0.23202289  1
  O  O317  1  0.23927710  0.37386245  0.75830564  1
  O  O318  1  0.23157443  0.88043729  0.25477212  1
  O  O319  1  0.24409720  0.88683657  0.75913079  1
  O  O320  1  0.75461260  0.38413556  0.24556396  1
  O  O321  1  0.73651300  0.36614849  0.73880041  1
  O  O322  1  0.74993743  0.88473515  0.24699312  1
  O  O323  1  0.74052574  0.92601410  0.76068938  1
  O  O324  1  0.24548338  0.11487898  0.24409704  1
  O  O325  1  0.25714008  0.11586229  0.75803555  1
  O  O326  1  0.25243800  0.61971016  0.25256132  1
  O  O327  1  0.24332566  0.60265841  0.76565876  1
  O  O328  1  0.76953998  0.13041398  0.24582112  1
  O  O329  1  0.75499763  0.08639252  0.72141391  1
  O  O330  1  0.73561171  0.62714764  0.27540946  1
  O  O331  1  0.72418803  0.59040727  0.73793424  1
  O  O332  1  0.37131224  0.11160462  0.36805050  1
  O  O333  1  0.36959528  0.11286899  0.86790177  1
  O  O334  1  0.35794118  0.61615953  0.36483023  1
  O  O335  1  0.37231721  0.60585142  0.87617692  1
  O  O336  1  0.88584033  0.10900938  0.35704375  1
  O  O337  1  0.88577801  0.10875557  0.88240437  1
  O  O338  1  0.84750222  0.60192046  0.36487971  1
  O  O339  1  0.87928468  0.64998013  0.81949796  1
  O  O340  1  0.14177586  0.37400291  0.11001333  1
  O  O341  1  0.13910930  0.36635388  0.64614739  1
  O  O342  1  0.11833513  0.87998838  0.13623480  1
  O  O343  1  0.12706768  0.87516058  0.64269983  1
  O  O344  1  0.62258976  0.39020821  0.11331776  1
  O  O345  1  0.62157628  0.35003389  0.63504104  1
  O  O346  1  0.64057078  0.86200332  0.12681335  1
  O  O347  1  0.58119172  0.89418117  0.63817551  1
  O  O348  1  0.10984145  0.24718749  0.23636239  1
  O  O349  1  0.13308885  0.25212872  0.75882255  1
  O  O350  1  0.13009883  0.75535100  0.23949420  1
  O  O351  1  0.15543907  0.75804399  0.74352074  1
  O  O352  1  0.61641607  0.25240988  0.28120269  1
  O  O353  1  0.61908137  0.24176061  0.75734234  1
  O  O354  1  0.60798932  0.74258292  0.24685469  1
  O  O355  1  0.54553860  0.71377683  0.78074391  1
  O  O356  1  0.37966211  0.25502797  0.23749308  1
  O  O357  1  0.37936010  0.23825971  0.74562992  1
  O  O358  1  0.37588520  0.73544273  0.24525053  1
  O  O359  1  0.40261978  0.78094229  0.74939566  1
  O  O360  1  0.88498695  0.24382216  0.23343253  1
  O  O361  1  0.87812715  0.24574536  0.75263869  1
  O  O362  1  0.88374055  0.76380959  0.25125678  1
  O  O363  1  0.88936181  0.78351387  0.73286471  1
  O  O364  1  0.36056118  0.49729166  0.48834518  1
  O  O365  1  0.37074481  0.48459544  0.98253533  1
  O  O366  1  0.37001990  0.99469377  0.48180933  1
  O  O367  1  0.37507552  0.98589261  0.98828449  1
  O  O368  1  0.89625123  0.51918373  0.52160149  1
  O  O369  1  0.90270330  0.49566856  1.04206179  1
  O  O370  1  0.88422494  1.01091591  0.49120188  1
  O  O371  1  0.89187463  0.98909982  0.99643620  1
  O  O372  1  0.12512717  -0.00107571  0.00551886  1
  O  O373  1  0.13310200  0.00720436  0.49258729  1
  O  O374  1  0.12402644  0.50896810  -0.00505144  1
  O  O375  1  0.12644435  0.51735732  0.50725466  1
  O  O376  1  0.62200734  0.02605873  0.02363605  1
  O  O377  1  0.59753469  0.00261400  0.50659884  1
  O  O378  1  0.63081038  0.51366272  0.01226241  1
  O  O379  1  0.60111676  0.51256351  0.51780596  1
  O  O380  1  0.36785217  0.37051977  0.11145749  1
  O  O381  1  0.35398860  0.35429043  0.64018379  1
  O  O382  1  0.37657660  0.87202951  0.10314460  1
  O  O383  1  0.36906666  0.88031326  0.59296605  1
  O  O384  1  0.87850755  0.35552209  0.11302635  1
  O  O385  1  0.87272676  0.36400696  0.63149620  1
  O  O386  1  0.87483158  0.86304194  0.10988672  1
  O  O387  1  0.85645368  0.91254096  0.63514009  1
  O  O388  1  0.11647743  0.13990762  0.37301370  1
  O  O389  1  0.13856339  0.11395712  0.88789109  1
  O  O390  1  0.13207802  0.62646010  0.36766907  1
  O  O391  1  0.13822793  0.61822010  0.88027827  1
  O  O392  1  0.62695390  0.09460323  0.39271775  1
  O  O393  1  0.62273173  0.12604212  0.87762192  1
  O  O394  1  0.64017505  0.62811301  0.38198571  1
  O  O395  1  0.63471536  0.60985268  0.88961950  1
