# generated using pymatgen
data_V35Zn35O128
_symmetry_space_group_name_H-M   'P 1'
_cell_length_a   16.88670791
_cell_length_b   16.84080082
_cell_length_c   16.88351497
_cell_angle_alpha   90.06401363
_cell_angle_beta   89.97056067
_cell_angle_gamma   90.06336258
_symmetry_Int_Tables_number   1
_chemical_formula_structural   V35Zn35O128
_chemical_formula_sum   'V70 Zn70 O256'
_cell_volume   4801.42339621
_cell_formula_units_Z   2
loop_
 _symmetry_equiv_pos_site_id
 _symmetry_equiv_pos_as_xyz
  1  'x, y, z'
loop_
 _atom_site_type_symbol
 _atom_site_label
 _atom_site_symmetry_multiplicity
 _atom_site_fract_x
 _atom_site_fract_y
 _atom_site_fract_z
 _atom_site_occupancy
  V  V0  1  0.50472286  0.73942558  0.74748236  1
  V  V1  1  0.27072949  -0.00420690  0.75595402  1
  V  V2  1  0.25144371  0.63090999  0.37021178  1
  V  V3  1  0.63829597  0.50142533  0.62047136  1
  V  V4  1  0.88260478  0.74423258  0.12701159  1
  V  V5  1  0.24982695  0.37764477  0.12322391  1
  V  V6  1  0.00227236  0.49835962  0.50169358  1
  V  V7  1  0.87473177  0.39898851  0.00971630  1
  V  V8  1  0.12592350  0.87890522  0.24925416  1
  V  V9  1  0.61313793  0.37109108  0.76212126  1
  V  V10  1  0.12676864  0.63134769  0.50706617  1
  V  V11  1  0.62514542  0.62226736  0.01445476  1
  V  V12  1  0.13227432  0.47796041  0.62102915  1
  V  V13  1  0.75288419  0.74368352  -0.00598919  1
  V  V14  1  0.37240940  0.62055459  0.75465474  1
  V  V15  1  0.12655262  -0.00180967  0.63506022  1
  V  V16  1  0.00033258  0.75272259  0.25071094  1
  V  V17  1  0.50601745  0.50492181  0.01147621  1
  V  V18  1  0.75032866  0.23857983  0.48999905  1
  V  V19  1  0.13809533  0.24721809  0.37232949  1
  V  V20  1  0.00324707  0.24661675  0.76346808  1
  V  V21  1  0.50824962  0.14531008  0.13485106  1
  V  V22  1  0.25458954  0.12844712  0.86599019  1
  V  V23  1  0.25353692  0.86021998  0.11778792  1
  V  V24  1  0.37780643  0.49360003  0.37054551  1
  V  V25  1  0.75928592  0.88279550  0.62008097  1
  V  V26  1  0.12835792  0.00718421  0.12461973  1
  V  V27  1  0.00069546  0.00653044  0.00351262  1
  V  V28  1  0.74339982  0.87574488  0.13484663  1
  V  V29  1  0.00325625  0.37138042  0.37198930  1
  V  V30  1  0.63300956  0.88332463  0.75177855  1
  V  V31  1  0.12765553  0.36536358  0.77333410  1
  V  V32  1  0.86321655  0.00907832  0.86419096  1
  V  V33  1  0.36560959  0.36566145  0.50420227  1
  V  V34  1  0.35635917  0.13493348  0.23722786  1
  V  V35  1  0.48725726  0.87853836  0.87708706  1
  V  V36  1  -0.01017813  0.23891788  0.24123352  1
  V  V37  1  0.76113914  0.50203809  0.76280786  1
  V  V38  1  0.25204528  0.49416502  0.75875099  1
  V  V39  1  0.23325582  0.49949728  0.24581037  1
  V  V40  1  0.24716788  0.86907817  0.62484073  1
  V  V41  1  0.24942953  0.74345802  -0.02543927  1
  V  V42  1  0.37847632  0.74173311  0.62203252  1
  V  V43  1  0.49960646  0.12904694  0.64243835  1
  V  V44  1  0.36991099  0.24787025  0.64231684  1
  V  V45  1  0.01364668  0.87205116  0.86636809  1
  V  V46  1  0.63046342  0.73802367  0.86996717  1
  V  V47  1  0.73652997  0.02253058  0.24535971  1
  V  V48  1  0.39278397  0.36343342  -0.00345652  1
  V  V49  1  0.87630607  0.00211811  0.35547419  1
  V  V50  1  0.23784791  0.25000740  -0.00225334  1
  V  V51  1  0.39303644  0.49558717  0.87268429  1
  V  V52  1  0.88186709  0.61613920  0.26198387  1
  V  V53  1  0.00077533  0.12498307  0.62320588  1
  V  V54  1  0.14073094  0.12547457  0.49473444  1
  V  V55  1  0.37459468  0.01517349  0.36966040  1
  V  V56  1  0.87281083  0.24773789  0.62648911  1
  V  V57  1  0.11013400  0.62827026  0.02191740  1
  V  V58  1  0.12149127  0.75519172  0.37566601  1
  V  V59  1  0.49675664  0.50834133  0.51324840  1
  V  V60  1  -0.00602573  -0.01109073  0.49182434  1
  V  V61  1  0.86979049  0.37748402  0.49935828  1
  V  V62  1  0.38867372  0.88456486  0.50071992  1
  V  V63  1  0.61352736  0.26274832  0.36625156  1
  V  V64  1  0.72840878  0.49842989  0.25702207  1
  V  V65  1  0.50117132  -0.00578518  0.02126709  1
  V  V66  1  0.61024815  0.12085701  0.48858106  1
  V  V67  1  0.87630959  0.87313507  -0.00359770  1
  V  V68  1  0.73747144  0.63504289  0.38343460  1
  V  V69  1  0.88294384  0.73086879  0.62672977  1
  Zn  Zn70  1  0.73517878  0.26891565  0.00160404  1
  Zn  Zn71  1  0.74066337  0.38850995  0.13029774  1
  Zn  Zn72  1  -0.00748558  0.75203336  0.75250020  1
  Zn  Zn73  1  0.76816846  0.75703663  0.49431950  1
  Zn  Zn74  1  0.11391042  0.13740407  -0.00331677  1
  Zn  Zn75  1  0.62126927  0.00005383  0.61423964  1
  Zn  Zn76  1  0.17712364  0.19798665  0.18263151  1
  Zn  Zn77  1  0.18769010  0.18604675  0.68672074  1
  Zn  Zn78  1  0.18754889  0.68744063  0.18834286  1
  Zn  Zn79  1  0.19174760  0.68210292  0.69227024  1
  Zn  Zn80  1  0.68904740  0.20242421  0.17419759  1
  Zn  Zn81  1  0.67103712  0.20854562  0.66825037  1
  Zn  Zn82  1  0.69951432  0.68258822  0.18637617  1
  Zn  Zn83  1  0.69661284  0.68089937  0.67970540  1
  Zn  Zn84  1  0.31663063  0.31688199  0.30691228  1
  Zn  Zn85  1  0.31574236  0.31388597  0.81802905  1
  Zn  Zn86  1  0.29425397  0.84509467  0.33199175  1
  Zn  Zn87  1  0.30860472  0.80853126  0.80619889  1
  Zn  Zn88  1  0.81354069  0.31342031  0.31145981  1
  Zn  Zn89  1  0.82776802  0.34957080  0.78652572  1
  Zn  Zn90  1  0.81937994  0.81944141  0.31893303  1
  Zn  Zn91  1  0.81720531  0.81374447  0.80878593  1
  Zn  Zn92  1  0.18997175  0.43377592  0.43431371  1
  Zn  Zn93  1  0.19584196  0.43843068  0.94703500  1
  Zn  Zn94  1  0.19407883  0.94201031  0.44496935  1
  Zn  Zn95  1  0.19257446  0.93686289  0.93776257  1
  Zn  Zn96  1  0.68703304  0.44366588  0.43742761  1
  Zn  Zn97  1  0.69237560  0.44209498  0.93045661  1
  Zn  Zn98  1  0.69992289  0.94375527  0.43381369  1
  Zn  Zn99  1  0.68353722  0.93764019  0.93918973  1
  Zn  Zn100  1  0.31568140  0.05289152  0.06326782  1
  Zn  Zn101  1  0.32135598  0.06144575  0.56766187  1
  Zn  Zn102  1  0.30810021  0.60455242  0.07044429  1
  Zn  Zn103  1  0.30654342  0.55800994  0.56027362  1
  Zn  Zn104  1  0.81551866  0.05862888  0.06771803  1
  Zn  Zn105  1  0.81320395  0.06162327  0.56432061  1
  Zn  Zn106  1  0.81169113  0.56107310  0.07205413  1
  Zn  Zn107  1  0.81346270  0.56391043  0.56214028  1
  Zn  Zn108  1  0.40152741  0.49185372  0.15804735  1
  Zn  Zn109  1  0.44121631  0.42922212  0.68250429  1
  Zn  Zn110  1  0.42015208  0.95252311  0.18763657  1
  Zn  Zn111  1  0.44610712  0.93418363  0.68343242  1
  Zn  Zn112  1  0.92908259  0.43287768  0.18863519  1
  Zn  Zn113  1  0.94740918  0.43329968  0.68230051  1
  Zn  Zn114  1  0.94022684  0.93314052  0.18511069  1
  Zn  Zn115  1  0.93837934  0.94167311  0.68936132  1
  Zn  Zn116  1  0.06123258  0.06660111  0.31029579  1
  Zn  Zn117  1  0.06419969  0.06530802  0.82034708  1
  Zn  Zn118  1  0.06065573  0.56262256  0.31468040  1
  Zn  Zn119  1  0.06409004  0.55394501  0.81326041  1
  Zn  Zn120  1  0.55223611  0.06569044  0.31075095  1
  Zn  Zn121  1  0.55812359  0.06232922  0.81644225  1
  Zn  Zn122  1  0.56082142  0.56685228  0.32853572  1
  Zn  Zn123  1  0.56916941  0.55857896  0.80417024  1
  Zn  Zn124  1  0.43607718  0.19244984  0.42887483  1
  Zn  Zn125  1  0.41167818  0.14917880  0.96871716  1
  Zn  Zn126  1  0.43066114  0.68527615  0.44037614  1
  Zn  Zn127  1  0.43943230  0.68670107  0.93660927  1
  Zn  Zn128  1  0.94053220  0.18040853  0.43370877  1
  Zn  Zn129  1  0.91833715  0.19196218  0.95367350  1
  Zn  Zn130  1  0.94097407  0.68968250  0.44115740  1
  Zn  Zn131  1  0.94775783  0.68734613  0.93929482  1
  Zn  Zn132  1  0.04394711  0.36454689  0.08711028  1
  Zn  Zn133  1  0.06241310  0.30618023  0.55661377  1
  Zn  Zn134  1  0.06640612  0.81328418  0.05805072  1
  Zn  Zn135  1  0.05945335  0.81094805  0.56581297  1
  Zn  Zn136  1  0.56850545  0.30743929  0.05954771  1
  Zn  Zn137  1  0.55053414  0.32305541  0.56298884  1
  Zn  Zn138  1  0.56707792  0.81711748  0.05564136  1
  Zn  Zn139  1  0.56341996  0.81342639  0.56807347  1
  O  O140  1  0.12963170  0.11081581  0.11612945  1
  O  O141  1  0.12174267  0.11822537  0.61492759  1
  O  O142  1  0.12790076  0.61684185  0.12077208  1
  O  O143  1  0.13384674  0.62290347  0.60791285  1
  O  O144  1  0.60716772  0.12959219  0.13430954  1
  O  O145  1  0.61336264  0.12866856  0.61098332  1
  O  O146  1  0.62621594  0.62677345  0.11314586  1
  O  O147  1  0.62523820  0.60410680  0.62665865  1
  O  O148  1  0.36568446  0.38780500  0.38484124  1
  O  O149  1  0.37989864  0.38274153  0.88702221  1
  O  O150  1  0.38572335  0.84838327  0.40556796  1
  O  O151  1  0.38980103  0.86416921  0.86543282  1
  O  O152  1  0.89028896  0.36761573  0.39197219  1
  O  O153  1  0.85429805  0.34590362  0.90066506  1
  O  O154  1  0.87241604  0.89942252  0.37945595  1
  O  O155  1  0.87935742  0.88382192  0.88425783  1
  O  O156  1  0.27896882  -0.04052512  0.37085060  1
  O  O157  1  0.25194364  0.00057963  0.86121710  1
  O  O158  1  0.24889456  0.50584237  0.36397094  1
  O  O159  1  0.26518246  0.49155211  0.86371100  1
  O  O160  1  0.75897679  -0.00102640  0.35157273  1
  O  O161  1  0.76396138  -0.00233570  0.88731549  1
  O  O162  1  0.74600973  0.51771661  0.36784876  1
  O  O163  1  0.75434836  0.51109192  0.86263493  1
  O  O164  1  0.25877379  0.49942172  0.14210201  1
  O  O165  1  0.23671396  0.50103076  0.63783850  1
  O  O166  1  0.23079252  0.98636329  0.10738316  1
  O  O167  1  0.24808632  0.99313254  0.63701093  1
  O  O168  1  0.74485518  0.50774341  0.15030883  1
  O  O169  1  0.73885223  0.49129483  0.60990853  1
  O  O170  1  0.76126908  0.98668682  0.13767922  1
  O  O171  1  0.74347387  0.98844571  0.62196647  1
  O  O172  1  -0.00499204  0.37317289  0.27128236  1
  O  O173  1  0.01780423  0.36069400  0.74770837  1
  O  O174  1  0.01285762  0.86539557  0.24834736  1
  O  O175  1  0.00124995  0.87840177  0.76303699  1
  O  O176  1  0.47522941  0.38377173  0.24060591  1
  O  O177  1  0.51039612  0.38667277  0.75784530  1
  O  O178  1  0.44892234  0.84383548  0.24843952  1
  O  O179  1  0.51252714  0.86173295  0.75485911  1
  O  O180  1  0.48485129  0.12127164  0.23721917  1
  O  O181  1  0.51119154  0.13506443  0.74189376  1
  O  O182  1  0.49064920  0.66171580  0.28900652  1
  O  O183  1  0.49202050  0.63240605  0.75055158  1
  O  O184  1  0.99908609  0.13755262  0.24648803  1
  O  O185  1  1.01308566  0.13770304  0.73833827  1
  O  O186  1  0.98979446  0.63441802  0.25558379  1
  O  O187  1  1.04715406  0.64345553  0.74438092  1
  O  O188  1  0.38782224  0.26207834  -0.00746377  1
  O  O189  1  0.37344018  0.26387893  0.49393391  1
  O  O190  1  0.35134142  0.73768842  -0.01269072  1
  O  O191  1  0.37911891  0.75158332  0.51972126  1
  O  O192  1  0.83132183  0.26766351  -0.07145026  1
  O  O193  1  0.86889852  0.25235808  0.50528789  1
  O  O194  1  0.87059418  0.75147129  0.00510705  1
  O  O195  1  0.88385805  0.74996544  0.51790081  1
  O  O196  1  0.12445280  0.23292131  0.49235345  1
  O  O197  1  0.13853191  0.25341900  0.99842966  1
  O  O198  1  0.11845384  0.73807513  0.49342010  1
  O  O199  1  0.12914844  0.73577759  1.00197901  1
  O  O200  1  0.63797467  0.24485339  0.49648620  1
  O  O201  1  0.62144417  0.24065799  0.96927623  1
  O  O202  1  0.61022154  0.78805768  0.45703063  1
  O  O203  1  0.63153139  0.73911928  0.99245872  1
  O  O204  1  0.49681201  0.24475221  0.12350566  1
  O  O205  1  0.48978268  0.23815015  0.61734320  1
  O  O206  1  0.54369971  0.75556344  0.16241670  1
  O  O207  1  0.48839778  0.75166557  0.63481820  1
  O  O208  1  1.02124309  0.26705113  0.14754236  1
  O  O209  1  0.99573198  0.23939427  0.62483537  1
  O  O210  1  0.99163052  0.75642220  0.13527347  1
  O  O211  1  0.98769030  0.75868733  0.63358427  1
  O  O212  1  0.00535215  0.25552141  0.37060665  1
  O  O213  1  -0.00721366  0.23799990  0.86044098  1
  O  O214  1  0.01206798  0.74814108  0.36612433  1
  O  O215  1  -0.00864991  0.76781984  0.87232804  1
  O  O216  1  0.51261515  0.25365032  0.37007685  1
  O  O217  1  0.58696518  0.20143521  0.90415719  1
  O  O218  1  0.49209346  0.71762633  0.34122877  1
  O  O219  1  0.51056164  0.75478795  0.86639043  1
  O  O220  1  0.23888708  0.11439125  0.50414548  1
  O  O221  1  0.26013234  0.14311201  0.99980275  1
  O  O222  1  0.23363879  0.61578041  0.48473813  1
  O  O223  1  0.23310487  0.63621133  0.99796136  1
  O  O224  1  0.74369818  0.13588217  0.50528631  1
  O  O225  1  0.77356463  0.17094047  1.05833112  1
  O  O226  1  0.75618309  0.62835560  0.48596311  1
  O  O227  1  0.74075192  0.63417230  1.00663383  1
  O  O228  1  0.26828466  0.36018151  -0.00632008  1
  O  O229  1  0.26556780  0.38608099  0.50499392  1
  O  O230  1  0.23639410  0.85491180  0.00696104  1
  O  O231  1  0.26343296  0.87726553  0.52131979  1
  O  O232  1  0.75640640  0.38750623  0.00632799  1
  O  O233  1  0.76677840  0.36757466  0.49546848  1
  O  O234  1  0.76048628  0.86561851  0.00648961  1
  O  O235  1  0.74231800  0.87230665  0.51485704  1
  O  O236  1  0.13400556  0.49681375  0.25325470  1
  O  O237  1  0.12830853  0.48232743  0.74306512  1
  O  O238  1  0.11543226  0.99405657  0.23378711  1
  O  O239  1  0.12637506  1.00483310  0.73655306  1
  O  O240  1  0.62798666  0.50595992  0.25839837  1
  O  O241  1  0.63808517  0.49642046  0.73912950  1
  O  O242  1  0.63790510  1.01012864  0.25490674  1
  O  O243  1  0.62562517  0.98409276  0.75624812  1
  O  O244  1  0.36404213  0.01712796  0.25987443  1
  O  O245  1  0.36872485  -0.00047930  0.74619207  1
  O  O246  1  0.36160611  0.49507387  0.26790556  1
  O  O247  1  0.37112329  0.50050620  0.75235574  1
  O  O248  1  0.87765124  0.00301949  0.25157830  1
  O  O249  1  0.87321598  0.00006876  0.76391655  1
  O  O250  1  0.87782842  0.51532851  0.25322138  1
  O  O251  1  0.86258616  0.46378023  0.74916174  1
  O  O252  1  0.11388445  0.35751308  0.38922429  1
  O  O253  1  0.12450934  0.37738999  0.87131443  1
  O  O254  1  0.14104816  0.86272593  0.36771824  1
  O  O255  1  0.11194827  0.87900092  0.87739711  1
  O  O256  1  0.62964575  0.36168964  0.38502259  1
  O  O257  1  0.62498810  0.38092699  0.86401554  1
  O  O258  1  0.61287033  0.84705893  0.40769363  1
  O  O259  1  0.62289527  0.86096591  0.86284657  1
  O  O260  1  0.37951826  0.12210051  0.13302158  1
  O  O261  1  0.38971936  0.13328025  0.62448312  1
  O  O262  1  0.39477580  0.60183127  0.13189554  1
  O  O263  1  0.36443107  0.63676027  0.63173744  1
  O  O264  1  0.86244909  0.16736506  0.06289997  1
  O  O265  1  0.88639556  0.13688156  0.62074255  1
  O  O266  1  0.86619155  0.63877086  0.14351178  1
  O  O267  1  0.88302414  0.63027698  0.62388265  1
  O  O268  1  0.24714100  0.26663468  0.11255996  1
  O  O269  1  0.27016988  0.23581991  0.62705243  1
  O  O270  1  0.25218658  0.75634363  0.12258311  1
  O  O271  1  0.26047468  0.76178516  0.64048771  1
  O  O272  1  0.67399772  0.29735445  0.10642341  1
  O  O273  1  0.76801503  0.24710182  0.61702830  1
  O  O274  1  0.75981115  0.75809487  0.11653269  1
  O  O275  1  0.76258644  0.75613423  0.61859010  1
  O  O276  1  0.23594014  0.25870818  0.37056602  1
  O  O277  1  0.25210767  0.23923902  0.88309024  1
  O  O278  1  0.24339494  0.73672200  0.36598675  1
  O  O279  1  0.23803755  0.75183117  0.87478185  1
  O  O280  1  0.75367665  0.24815076  0.38921382  1
  O  O281  1  0.76008326  0.18196475  0.81319953  1
  O  O282  1  0.75726631  0.74208285  0.37680715  1
  O  O283  1  0.74602674  0.75513669  0.88594363  1
  O  O284  1  -0.00088525  0.11040198  -0.00379414  1
  O  O285  1  0.01113814  0.11498428  0.50939835  1
  O  O286  1  0.00864112  0.63318147  0.01544211  1
  O  O287  1  0.01726795  0.60986205  0.48875274  1
  O  O288  1  0.49834841  0.10898874  0.02630895  1
  O  O289  1  0.50911197  0.12742557  0.49909047  1
  O  O290  1  0.51350315  0.61893416  -0.00138380  1
  O  O291  1  0.49739372  0.60852905  0.48969861  1
  O  O292  1  0.47906623  0.39285217  0.50105935  1
  O  O293  1  0.49918397  0.38388694  1.00300439  1
  O  O294  1  0.48655042  0.88457021  0.52321663  1
  O  O295  1  0.49878314  0.87301278  0.98522778  1
  O  O296  1  0.99517507  0.37904053  0.49460504  1
  O  O297  1  0.96774688  0.35615315  0.99976076  1
  O  O298  1  1.01266126  0.89092809  0.50040670  1
  O  O299  1  0.99177167  0.87913912  0.99166940  1
  O  O300  1  0.48075042  0.50240256  0.37637768  1
  O  O301  1  0.49642692  0.50473451  0.87794978  1
  O  O302  1  0.47513413  0.99500006  0.36573256  1
  O  O303  1  0.49793582  0.98007982  0.86740008  1
  O  O304  1  1.01386749  0.48326414  0.38858936  1
  O  O305  1  0.95100486  0.53804674  0.85819897  1
  O  O306  1  0.99515804  1.00261942  0.38448171  1
  O  O307  1  0.99384536  0.99038800  0.88578597  1
  O  O308  1  0.00855061  -0.00722577  0.11074447  1
  O  O309  1  0.00889770  0.00555075  0.61962051  1
  O  O310  1  0.01735669  0.46748759  0.13012139  1
  O  O311  1  0.02042352  0.49475320  0.61691096  1
  O  O312  1  0.50748281  -0.02264926  0.12182213  1
  O  O313  1  0.50510564  0.01897561  0.63220189  1
  O  O314  1  0.51197512  0.49392557  0.10932651  1
  O  O315  1  0.48946863  0.51100950  0.61484655  1
  O  O316  1  0.24966098  0.38183267  0.23201619  1
  O  O317  1  0.23584010  0.37692376  0.75544855  1
  O  O318  1  0.23343658  0.86799240  0.23362494  1
  O  O319  1  0.25446233  0.88778643  0.74057281  1
  O  O320  1  0.75264184  0.39563797  0.25819471  1
  O  O321  1  0.73088116  0.39104460  0.74583673  1
  O  O322  1  0.74995629  0.86799071  0.23618081  1
  O  O323  1  0.73731703  0.86766066  0.74033021  1
  O  O324  1  0.25551002  0.13052045  0.23415369  1
  O  O325  1  0.24656226  0.11301173  0.75953750  1
  O  O326  1  0.24402818  0.61337400  0.26110578  1
  O  O327  1  0.26239499  0.60994107  0.74939623  1
  O  O328  1  0.75283324  0.11971070  0.23017384  1
  O  O329  1  0.74112631  0.13507707  0.75928342  1
  O  O330  1  0.75886816  0.62112321  0.26286903  1
  O  O331  1  0.76074177  0.59971969  0.73172010  1
  O  O332  1  0.36506263  0.11840326  0.37243917  1
  O  O333  1  0.35603162  0.12024174  0.87675784  1
  O  O334  1  0.35496640  0.61443637  0.38324009  1
  O  O335  1  0.38060598  0.61302550  0.86201135  1
  O  O336  1  0.87439936  0.10165742  0.38689928  1
  O  O337  1  0.88093249  0.10669768  0.88223287  1
  O  O338  1  0.87242087  0.63097291  0.36450680  1
  O  O339  1  0.90999063  0.60332862  0.85784289  1
  O  O340  1  0.15729183  0.39632223  0.08736759  1
  O  O341  1  0.13138041  0.37754676  0.62053493  1
  O  O342  1  0.12926006  0.88079040  0.13092848  1
  O  O343  1  0.14038367  0.88026299  0.62075334  1
  O  O344  1  0.54358570  0.36586134  0.22387922  1
  O  O345  1  0.60833337  0.39357951  0.63462047  1
  O  O346  1  0.64602247  0.87481214  0.11541926  1
  O  O347  1  0.63074158  0.87483666  0.63844933  1
  O  O348  1  0.11548661  0.24387592  0.26903920  1
  O  O349  1  0.11973658  0.25692048  0.75138523  1
  O  O350  1  0.11740111  0.75477007  0.25566060  1
  O  O351  1  0.10889092  0.70241934  0.76779581  1
  O  O352  1  0.64416017  0.24855164  0.27145869  1
  O  O353  1  0.62475780  0.26991974  0.74630629  1
  O  O354  1  0.59932678  0.75365982  0.21442069  1
  O  O355  1  0.62180843  0.74733133  0.75222919  1
  O  O356  1  0.37343305  0.23386756  0.25825076  1
  O  O357  1  0.37781223  0.25639363  0.74167671  1
  O  O358  1  0.39274722  0.79410277  0.24969406  1
  O  O359  1  0.38309327  0.73912015  0.74489691  1
  O  O360  1  0.88937845  0.25681671  0.24883140  1
  O  O361  1  0.89142098  0.26239154  0.73458201  1
  O  O362  1  0.88509734  0.74923627  0.24613559  1
  O  O363  1  0.87350575  0.74798477  0.73551500  1
  O  O364  1  0.37775742  0.49715006  0.49279540  1
  O  O365  1  0.39633291  0.49568345  0.98879775  1
  O  O366  1  0.37247319  0.99098730  0.48975642  1
  O  O367  1  0.39661185  0.99970892  1.00056598  1
  O  O368  1  0.88722498  0.48506463  0.51111243  1
  O  O369  1  0.88058273  0.50007170  1.00466493  1
  O  O370  1  0.89354469  0.99926531  0.50799055  1
  O  O371  1  0.88609485  0.99048068  1.00213301  1
  O  O372  1  0.11101246  -0.00564363  0.00687414  1
  O  O373  1  0.12010102  0.00849473  0.50663440  1
  O  O374  1  0.11755730  0.52034517  -0.02568767  1
  O  O375  1  0.12429344  0.50134822  0.51095777  1
  O  O376  1  0.60068298  -0.00640223  -0.01063264  1
  O  O377  1  0.63181665  0.01755246  0.49327455  1
  O  O378  1  0.61835219  0.51458160  -0.00834648  1
  O  O379  1  0.60710060  0.49102789  0.50949715  1
  O  O380  1  0.36340303  0.38920294  0.10110552  1
  O  O381  1  0.37739139  0.35816217  0.61669209  1
  O  O382  1  0.34947097  0.88576320  0.12384783  1
  O  O383  1  0.36845695  0.86499207  0.62404051  1
  O  O384  1  0.86003546  0.37742963  0.11445007  1
  O  O385  1  0.89018139  0.35672394  0.60784493  1
  O  O386  1  0.87069331  0.86446823  0.11524499  1
  O  O387  1  0.86003088  0.87821471  0.63112048  1
  O  O388  1  0.12626302  0.13000230  0.38631934  1
  O  O389  1  0.14610968  0.11317379  0.88752696  1
  O  O390  1  0.13225310  0.63413680  0.37950340  1
  O  O391  1  0.12196653  0.57872203  0.91015404  1
  O  O392  1  0.61847478  0.13673545  0.38553502  1
  O  O393  1  0.62445800  0.13402707  0.88713527  1
  O  O394  1  0.63745572  0.63732577  0.37474627  1
  O  O395  1  0.62440759  0.63545997  0.87692717  1
