# generated using pymatgen
data_V35Zn35O128
_symmetry_space_group_name_H-M   'P 1'
_cell_length_a   16.90412991
_cell_length_b   16.89936367
_cell_length_c   16.95170967
_cell_angle_alpha   89.91465062
_cell_angle_beta   89.90965702
_cell_angle_gamma   90.29468064
_symmetry_Int_Tables_number   1
_chemical_formula_structural   V35Zn35O128
_chemical_formula_sum   'V70 Zn70 O256'
_cell_volume   4842.50311030
_cell_formula_units_Z   2
loop_
 _symmetry_equiv_pos_site_id
 _symmetry_equiv_pos_as_xyz
  1  'x, y, z'
loop_
 _atom_site_type_symbol
 _atom_site_label
 _atom_site_symmetry_multiplicity
 _atom_site_fract_x
 _atom_site_fract_y
 _atom_site_fract_z
 _atom_site_occupancy
  V  V0  1  0.24171094  0.13268086  0.88341362  1
  V  V1  1  0.13106972  0.00476052  0.63425058  1
  V  V2  1  0.00450781  0.87663757  0.37517758  1
  V  V3  1  0.63056320  0.86861902  0.74735889  1
  V  V4  1  0.37066377  0.62079954  0.76826684  1
  V  V5  1  0.25327633  0.13048885  0.38305583  1
  V  V6  1  0.64087978  0.75345690  0.88796759  1
  V  V7  1  0.77522309  0.86621800  0.61295539  1
  V  V8  1  0.24441095  0.87143891  0.61484183  1
  V  V9  1  0.88128873  0.62926735  0.76514755  1
  V  V10  1  0.38283526  0.88041288  0.00774391  1
  V  V11  1  0.00022483  0.62726630  0.60911684  1
  V  V12  1  0.88913876  -0.00215255  0.88460150  1
  V  V13  1  0.63264309  0.62612811  0.51258060  1
  V  V14  1  -0.00183378  0.12663062  0.10862804  1
  V  V15  1  0.61374528  0.25414284  0.86419705  1
  V  V16  1  0.76264330  0.25038581  0.00807427  1
  V  V17  1  0.75249609  0.26305904  0.50552355  1
  V  V18  1  0.86304493  0.62598721  0.24857064  1
  V  V19  1  -0.00118701  0.00146045  0.49597624  1
  V  V20  1  0.49187081  -0.01326134  0.49670469  1
  V  V21  1  0.12167840  0.85264079  0.75116482  1
  V  V22  1  0.36532969  -0.00691436  0.86097851  1
  V  V23  1  -0.02448852  0.37238624  0.90552892  1
  V  V24  1  0.62746862  0.75716652  0.38820491  1
  V  V25  1  0.37418137  0.36447639  0.48264767  1
  V  V26  1  0.24335409  0.48884655  0.21557364  1
  V  V27  1  0.12605583  0.01047636  0.11357822  1
  V  V28  1  0.48933628  0.64982932  0.12026719  1
  V  V29  1  0.88746650  0.37874259  0.50917466  1
  V  V30  1  0.62237144  -0.00365841  0.12134385  1
  V  V31  1  0.50425654  0.88264017  0.87274262  1
  V  V32  1  0.13043218  0.26095420  0.36661973  1
  V  V33  1  0.36837800  0.75526381  0.61471696  1
  V  V34  1  0.61271468  0.26166752  0.36640638  1
  V  V35  1  0.61590764  0.86542154  0.25148990  1
  V  V36  1  0.37603433  -0.01120140  0.37834680  1
  V  V37  1  -0.00462474  0.26409783  0.74918695  1
  V  V38  1  0.62642579  -0.00525790  0.62237428  1
  V  V39  1  0.23927022  0.50292023  0.77472235  1
  V  V40  1  0.62853369  0.12738284  0.49352809  1
  V  V41  1  0.36429142  0.26764420  0.11454913  1
  V  V42  1  0.75892229  0.49301150  0.76961444  1
  V  V43  1  0.76107999  0.12678822  0.86881209  1
  V  V44  1  0.73130126  0.40517404  0.17012654  1
  V  V45  1  0.25411489  0.01285657  0.25005437  1
  V  V46  1  0.74926372  0.61515862  0.38072688  1
  V  V47  1  0.00604793  0.74457349  0.25335973  1
  V  V48  1  0.25164288  0.86806790  0.12333657  1
  V  V49  1  0.76135692  0.00125285  0.74784344  1
  V  V50  1  -0.01961372  0.12920326  0.62642769  1
  V  V51  1  0.49393237  0.62376365  0.62271892  1
  V  V52  1  0.12450471  0.49978999  0.60365132  1
  V  V53  1  0.00476556  0.85844932  0.88242978  1
  V  V54  1  0.37145467  0.13192131  0.75000286  1
  V  V55  1  -0.00842407  0.24454298  0.25453059  1
  V  V56  1  0.63212836  0.48593392  0.63368663  1
  V  V57  1  0.50073577  0.12801399  0.12905172  1
  V  V58  1  0.61985501  0.11486516  -0.00834187  1
  V  V59  1  0.08414014  0.59549925  0.02118064  1
  V  V60  1  0.50082882  0.13470894  0.63203699  1
  V  V61  1  0.24248642  0.75468621  -0.02767366  1
  V  V62  1  0.12691537  0.13356233  0.49695115  1
  V  V63  1  0.87668345  0.75548885  0.11646343  1
  V  V64  1  0.12655693  0.87577353  0.25190025  1
  V  V65  1  0.75318538  -0.00609791  0.25106714  1
  V  V66  1  0.87827612  0.00340277  0.37103746  1
  V  V67  1  0.90263507  0.49500221  0.37320497  1
  V  V68  1  0.62701371  0.61456298  0.00288858  1
  V  V69  1  0.75590503  0.87121252  0.11632531  1
  Zn  Zn70  1  0.39528072  0.14520455  0.26432082  1
  Zn  Zn71  1  0.49981317  0.48637256  0.48489699  1
  Zn  Zn72  1  0.36117892  0.61831107  0.26598310  1
  Zn  Zn73  1  0.49613527  0.75084236  0.75358189  1
  Zn  Zn74  1  0.86756749  0.13010251  0.23723798  1
  Zn  Zn75  1  0.75241522  0.12918732  0.36999911  1
  Zn  Zn76  1  0.17490937  0.21441792  0.16783091  1
  Zn  Zn77  1  0.17408055  0.18378282  0.69763861  1
  Zn  Zn78  1  0.12977583  0.62344514  0.21619247  1
  Zn  Zn79  1  0.18777354  0.67520148  0.68549226  1
  Zn  Zn80  1  0.68402255  0.18711632  0.18792063  1
  Zn  Zn81  1  0.68862150  0.19048589  0.68565941  1
  Zn  Zn82  1  0.68492921  0.68534741  0.18092165  1
  Zn  Zn83  1  0.70831697  0.68829573  0.69426865  1
  Zn  Zn84  1  0.32024574  0.32270155  0.28873706  1
  Zn  Zn85  1  0.28161689  0.29561234  0.77994243  1
  Zn  Zn86  1  0.31177678  0.81303053  0.29909148  1
  Zn  Zn87  1  0.31084216  0.81268141  0.79501491  1
  Zn  Zn88  1  0.80051027  0.31534685  0.31939028  1
  Zn  Zn89  1  0.81669346  0.31491709  0.80632538  1
  Zn  Zn90  1  0.83071238  0.79470165  0.36658159  1
  Zn  Zn91  1  0.82300600  0.81459308  0.80796758  1
  Zn  Zn92  1  0.19568209  0.42933012  0.44813474  1
  Zn  Zn93  1  0.14039773  0.46625706  0.93758987  1
  Zn  Zn94  1  0.18731911  0.94395628  0.43928792  1
  Zn  Zn95  1  0.18571959  0.93585087  0.93215104  1
  Zn  Zn96  1  0.68014153  0.43677410  0.43904566  1
  Zn  Zn97  1  0.68584676  0.43012925  0.93929194  1
  Zn  Zn98  1  0.69027618  0.93805471  0.43842864  1
  Zn  Zn99  1  0.69638934  0.93740852  0.93395840  1
  Zn  Zn100  1  0.31687560  0.05799078  0.05735310  1
  Zn  Zn101  1  0.34092155  0.23846279  0.60538271  1
  Zn  Zn102  1  0.26277695  0.62955075  0.10640055  1
  Zn  Zn103  1  0.31925029  0.54263984  0.56637125  1
  Zn  Zn104  1  0.81190622  0.06275871  0.05816649  1
  Zn  Zn105  1  0.81017922  0.05371756  0.55571849  1
  Zn  Zn106  1  0.79268619  0.56899705  0.07485722  1
  Zn  Zn107  1  0.81838896  0.55575374  0.56511980  1
  Zn  Zn108  1  0.37501297  0.48426493  0.12157587  1
  Zn  Zn109  1  0.25152339  0.37957434  0.63095686  1
  Zn  Zn110  1  0.43834738  0.94524096  0.19214846  1
  Zn  Zn111  1  0.43803080  0.93697219  0.68365260  1
  Zn  Zn112  1  0.90305995  0.41969096  0.20151152  1
  Zn  Zn113  1  0.94165036  0.44933000  0.68944367  1
  Zn  Zn114  1  0.94120112  0.94118947  0.18511767  1
  Zn  Zn115  1  0.94609365  0.94330227  0.69465046  1
  Zn  Zn116  1  0.06764753  0.06661958  0.30607648  1
  Zn  Zn117  1  0.06157072  0.08799887  0.80720351  1
  Zn  Zn118  1  0.07294795  0.43153233  0.29207877  1
  Zn  Zn119  1  0.05652902  0.56064369  0.82090006  1
  Zn  Zn120  1  0.56401479  0.05456441  0.31192645  1
  Zn  Zn121  1  0.56600194  0.05893724  0.80812266  1
  Zn  Zn122  1  0.54393904  0.62296189  0.31742103  1
  Zn  Zn123  1  0.57257121  0.57431708  0.80732768  1
  Zn  Zn124  1  0.44092056  0.18267044  0.44433538  1
  Zn  Zn125  1  0.43269445  0.18266758  0.93805164  1
  Zn  Zn126  1  0.41929414  0.71383942  0.41491717  1
  Zn  Zn127  1  0.44209404  0.69892288  0.94352661  1
  Zn  Zn128  1  0.93784187  0.19220112  0.43668384  1
  Zn  Zn129  1  0.94482063  0.19297506  0.92962310  1
  Zn  Zn130  1  0.94115616  0.68379831  0.44193350  1
  Zn  Zn131  1  0.93739919  0.68031045  0.94061706  1
  Zn  Zn132  1  0.02780499  0.34467793  0.10386057  1
  Zn  Zn133  1  0.06413432  0.31399367  0.56476444  1
  Zn  Zn134  1  0.06526011  0.81228030  0.06508093  1
  Zn  Zn135  1  0.02239561  0.82799455  0.58164324  1
  Zn  Zn136  1  0.58355833  0.29900179  0.06541596  1
  Zn  Zn137  1  0.49617804  0.34792985  0.61064715  1
  Zn  Zn138  1  0.55810663  0.81305513  0.06539452  1
  Zn  Zn139  1  0.55990771  0.80883935  0.56599339  1
  O  O140  1  0.11889690  0.11638085  0.12704700  1
  O  O141  1  0.12106672  0.11681182  0.61403705  1
  O  O142  1  0.13482105  0.64134288  0.10120533  1
  O  O143  1  0.11487173  0.61379190  0.62426208  1
  O  O144  1  0.62151273  0.11406737  0.11331458  1
  O  O145  1  0.62159708  0.11123760  0.61905666  1
  O  O146  1  0.60502289  0.63432212  0.11555898  1
  O  O147  1  0.62747748  0.63452946  0.61788863  1
  O  O148  1  0.36457668  0.36777710  0.38269593  1
  O  O149  1  0.45319686  0.37710841  0.84114975  1
  O  O150  1  0.36546502  0.88980348  0.37155314  1
  O  O151  1  0.38396852  0.88346024  0.86443810  1
  O  O152  1  0.87673921  0.39562832  0.36224159  1
  O  O153  1  0.88033351  0.38426369  0.87717460  1
  O  O154  1  0.89316176  0.89240287  0.36264698  1
  O  O155  1  0.89511067  0.88759157  0.86587136  1
  O  O156  1  0.25653434  0.00981462  0.37063038  1
  O  O157  1  0.26378130  -0.00347124  0.86697068  1
  O  O158  1  0.25917398  0.51335877  0.38780254  1
  O  O159  1  0.23348288  0.49410292  0.87471338  1
  O  O160  1  0.76142787  -0.00303191  0.36733322  1
  O  O161  1  0.76158053  0.00494502  0.86629590  1
  O  O162  1  0.74319515  0.51429917  0.37941267  1
  O  O163  1  0.74410925  0.50002065  0.86824359  1
  O  O164  1  0.25016078  0.49407390  0.11330323  1
  O  O165  1  0.23459478  0.50622923  0.63114882  1
  O  O166  1  0.24432417  0.99985857  0.13300252  1
  O  O167  1  0.22976982  0.98893873  0.62010257  1
  O  O168  1  0.73389333  0.50558477  0.14612332  1
  O  O169  1  0.73214296  0.49229867  0.61283602  1
  O  O170  1  0.74478165  0.99047210  0.12999174  1
  O  O171  1  0.74512655  0.99320669  0.63062277  1
  O  O172  1  0.00367205  0.36358801  0.22162280  1
  O  O173  1  0.00615712  0.36231004  0.73443253  1
  O  O174  1  0.01015753  0.87708334  0.25652708  1
  O  O175  1  0.01546060  0.87746890  0.75613685  1
  O  O176  1  0.51505842  0.40484638  0.25325419  1
  O  O177  1  0.48983206  0.43617219  0.81457842  1
  O  O178  1  0.51684155  0.87911270  0.24621326  1
  O  O179  1  0.51516879  0.87542383  0.75300052  1
  O  O180  1  0.50528009  0.11352525  0.23393688  1
  O  O181  1  0.49745728  0.11299604  0.73547121  1
  O  O182  1  0.48750551  0.62137972  0.22321883  1
  O  O183  1  0.49366961  0.63060373  0.74056954  1
  O  O184  1  0.99562178  0.13497097  0.24661686  1
  O  O185  1  0.97935826  0.10494689  0.72346590  1
  O  O186  1  1.01346118  0.64425089  0.24808000  1
  O  O187  1  0.98637927  0.61254069  0.74899070  1
  O  O188  1  0.39692764  0.24931497  0.01850133  1
  O  O189  1  0.37173409  0.25292318  0.49629656  1
  O  O190  1  0.36464780  0.77774954  -0.01467339  1
  O  O191  1  0.38262730  0.74937295  0.51588277  1
  O  O192  1  0.86078366  0.23873355  -0.00991181  1
  O  O193  1  0.86176112  0.26511997  0.48686631  1
  O  O194  1  0.87799146  0.74999323  0.01946679  1
  O  O195  1  0.87092420  0.76278450  0.46596193  1
  O  O196  1  0.11579465  0.24220204  0.48230010  1
  O  O197  1  0.19461216  0.35090710  1.04606332  1
  O  O198  1  0.14918048  0.71410036  0.46615888  1
  O  O199  1  0.14389097  0.76568189  0.99824501  1
  O  O200  1  0.63321048  0.23288917  0.49192638  1
  O  O201  1  0.63710804  0.22797883  0.98783859  1
  O  O202  1  0.62782236  0.74631738  0.49344900  1
  O  O203  1  0.62673963  0.76354909  0.98833569  1
  O  O204  1  0.50944491  0.22932161  0.12312764  1
  O  O205  1  0.51748992  0.23144945  0.62703616  1
  O  O206  1  0.47941548  0.75025037  0.12243632  1
  O  O207  1  0.49051862  0.74420240  0.63105524  1
  O  O208  1  1.00568204  0.23163824  0.13984840  1
  O  O209  1  1.00546871  0.23484503  0.63282559  1
  O  O210  1  0.98377699  0.76841579  0.14139595  1
  O  O211  1  1.00619582  0.72943136  0.62368159  1
  O  O212  1  0.01202645  0.24802668  0.36130719  1
  O  O213  1  0.00056450  0.27357869  0.86838195  1
  O  O214  1  0.00256235  0.76324966  0.36067062  1
  O  O215  1  -0.00440535  0.76012982  0.87788559  1
  O  O216  1  0.51576518  0.23222975  0.37422995  1
  O  O217  1  0.51655185  0.23042934  0.87684187  1
  O  O218  1  0.52686322  0.73552197  0.36966302  1
  O  O219  1  0.51358295  0.76870055  0.87153232  1
  O  O220  1  0.23809926  0.12755012  0.48676165  1
  O  O221  1  0.26592315  0.12084084  0.98059687  1
  O  O222  1  0.27113370  0.61396488  0.47817866  1
  O  O223  1  0.26592441  0.65894722  0.99742435  1
  O  O224  1  0.73736513  0.12286961  0.49776726  1
  O  O225  1  0.74444194  0.12280501  0.98304440  1
  O  O226  1  0.73895702  0.62119412  0.49820499  1
  O  O227  1  0.72651270  0.63675819  1.01509417  1
  O  O228  1  0.35174106  0.40639331  -0.05460053  1
  O  O229  1  0.26819340  0.37339368  0.51307083  1
  O  O230  1  0.25883808  0.87394132  0.00544323  1
  O  O231  1  0.23226393  0.87121848  0.51452686  1
  O  O232  1  0.74383987  0.34957816  -0.00360161  1
  O  O233  1  0.75426555  0.36622335  0.49645404  1
  O  O234  1  0.74853325  0.87819223  0.01791751  1
  O  O235  1  0.75446071  0.88591651  0.51536725  1
  O  O236  1  0.14047409  0.51156715  0.24899773  1
  O  O237  1  0.14013794  0.51397576  0.75183953  1
  O  O238  1  0.13642356  0.99472871  0.24286709  1
  O  O239  1  0.12061275  1.01125408  0.73286252  1
  O  O240  1  0.56143983  0.45916024  0.24041413  1
  O  O241  1  0.64300119  0.51224649  0.73745464  1
  O  O242  1  0.63262460  0.98850062  0.24316903  1
  O  O243  1  0.63625189  0.98979581  0.74079566  1
  O  O244  1  0.36807839  0.00606693  0.25958596  1
  O  O245  1  0.38045074  0.00457663  0.75686380  1
  O  O246  1  0.34820450  0.50502749  0.23931781  1
  O  O247  1  0.36574261  0.52046901  0.75978920  1
  O  O248  1  0.86890200  0.00322827  0.25360119  1
  O  O249  1  0.86459580  -0.00277711  0.75713116  1
  O  O250  1  0.88905006  0.52077640  0.25751806  1
  O  O251  1  0.86569438  0.50404016  0.75367446  1
  O  O252  1  0.12925459  0.36469632  0.37537633  1
  O  O253  1  0.16580287  0.34852088  0.97420992  1
  O  O254  1  0.11962392  0.88599947  0.36183613  1
  O  O255  1  0.11634601  0.88033277  0.85866673  1
  O  O256  1  0.61437931  0.36120880  0.38540683  1
  O  O257  1  0.62070416  0.35269687  0.88329843  1
  O  O258  1  0.63246187  0.86472772  0.36593296  1
  O  O259  1  0.62441320  0.87485809  0.86635250  1
  O  O260  1  0.39975204  0.11046500  0.11802218  1
  O  O261  1  0.38974945  0.13190245  0.63764595  1
  O  O262  1  0.39650702  0.59980283  0.10225451  1
  O  O263  1  0.38566798  0.62914864  0.62407218  1
  O  O264  1  0.89391117  0.11101286  0.12337755  1
  O  O265  1  0.88314661  0.12731444  0.60434572  1
  O  O266  1  0.86451012  0.64308311  0.14164498  1
  O  O267  1  0.89503016  0.60973672  0.62727167  1
  O  O268  1  0.27086863  0.22728450  0.11357034  1
  O  O269  1  0.24719660  0.26263876  0.66644843  1
  O  O270  1  0.25983870  0.77066832  0.12906754  1
  O  O271  1  0.26177394  0.75040147  0.62449329  1
  O  O272  1  0.75197060  0.22365358  0.10559399  1
  O  O273  1  0.74547051  0.24382062  0.60369018  1
  O  O274  1  0.76193697  0.76371404  0.13465617  1
  O  O275  1  0.75215090  0.76934656  0.62642228  1
  O  O276  1  0.23575951  0.24192655  0.36037416  1
  O  O277  1  0.24736833  0.23348934  0.86894088  1
  O  O278  1  0.16740968  0.72126357  0.39647406  1
  O  O279  1  0.24513017  0.76198349  0.87269281  1
  O  O280  1  0.73665251  0.24494904  0.38796939  1
  O  O281  1  0.74633861  0.23278187  0.87406771  1
  O  O282  1  0.73311659  0.73459586  0.36924767  1
  O  O283  1  0.73946558  0.76648292  0.87531673  1
  O  O284  1  0.00375762  0.13513565  0.01022608  1
  O  O285  1  0.00760818  0.12166916  0.50355404  1
  O  O286  1  -0.01211095  0.62772327  0.02602261  1
  O  O287  1  0.00202811  0.61926506  0.50745589  1
  O  O288  1  0.51780148  0.11690496  0.00498864  1
  O  O289  1  0.51234846  0.11461336  0.51366888  1
  O  O290  1  0.51366132  0.63833321  0.00830020  1
  O  O291  1  0.51666178  0.63370839  0.51814304  1
  O  O292  1  0.48605728  0.36997987  0.49557495  1
  O  O293  1  0.50762529  0.39131602  1.02286883  1
  O  O294  1  0.50685809  0.88776429  0.50133885  1
  O  O295  1  0.48824096  0.87506842  0.99262429  1
  O  O296  1  0.98511246  0.36300976  0.49507391  1
  O  O297  1  0.97997428  0.36103400  1.00542405  1
  O  O298  1  1.01287879  0.88825816  0.48709982  1
  O  O299  1  1.01240986  0.87632962  0.98101979  1
  O  O300  1  0.48065056  0.54428894  0.38075898  1
  O  O301  1  0.51720678  0.49029291  0.87009066  1
  O  O302  1  0.49209343  1.00448375  0.38763829  1
  O  O303  1  0.49748819  0.98757561  0.87018132  1
  O  O304  1  1.00102276  0.49419052  0.36827254  1
  O  O305  1  1.03929597  0.45019744  0.87519491  1
  O  O306  1  0.99903669  0.99847256  0.37723198  1
  O  O307  1  0.98761371  1.01569027  0.86938848  1
  O  O308  1  0.01691438  0.01023206  0.12897949  1
  O  O309  1  0.00702112  0.00685785  0.61115943  1
  O  O310  1  -0.06651603  0.48858247  0.09060611  1
  O  O311  1  0.01795537  0.50708840  0.62596528  1
  O  O312  1  0.51820706  -0.00012461  0.12445073  1
  O  O313  1  0.50840315  0.00167013  0.61424443  1
  O  O314  1  0.50038354  0.45011147  0.06812512  1
  O  O315  1  0.51943864  0.52398312  0.63081822  1
  O  O316  1  0.24034876  0.38996280  0.24454742  1
  O  O317  1  0.26141100  0.40241101  0.74968536  1
  O  O318  1  0.24659371  0.88585331  0.24355112  1
  O  O319  1  0.22929735  0.87239079  0.73332972  1
  O  O320  1  0.73189944  0.39258452  0.27166895  1
  O  O321  1  0.75389143  0.39199982  0.75125793  1
  O  O322  1  0.73994112  0.88672429  0.24040405  1
  O  O323  1  0.74771703  0.88312097  0.73886952  1
  O  O324  1  0.24819585  0.11591994  0.26003683  1
  O  O325  1  0.26741152  0.12137275  0.75924112  1
  O  O326  1  0.24848977  0.61655405  0.21980572  1
  O  O327  1  0.26150707  0.62008637  0.75586541  1
  O  O328  1  0.74899654  0.10855767  0.24964477  1
  O  O329  1  0.74297350  0.11412962  0.76125719  1
  O  O330  1  0.76055907  0.62937479  0.25870146  1
  O  O331  1  0.76897737  0.60738918  0.74038356  1
  O  O332  1  0.36755632  0.11831542  0.37492641  1
  O  O333  1  0.37851747  0.10722353  0.86595595  1
  O  O334  1  0.41223417  0.58887393  0.38467434  1
  O  O335  1  0.38676513  0.63754395  0.86467888  1
  O  O336  1  0.87492510  0.11372167  0.37155142  1
  O  O337  1  0.86498565  0.11642264  0.87399581  1
  O  O338  1  0.87115964  0.61172315  0.36889303  1
  O  O339  1  0.87820545  0.62147070  0.86654562  1
  O  O340  1  0.14369184  0.32457280  0.10592832  1
  O  O341  1  0.12769053  0.39196418  0.61682277  1
  O  O342  1  0.13322071  0.88860964  0.13325966  1
  O  O343  1  0.11771045  0.88488827  0.63500731  1
  O  O344  1  0.64695099  0.35924071  0.13307744  1
  O  O345  1  0.60271895  0.39018343  0.63140950  1
  O  O346  1  0.63424802  0.87552565  0.13341644  1
  O  O347  1  0.62815218  0.88197572  0.63118255  1
  O  O348  1  0.11373417  0.24911727  0.26038143  1
  O  O349  1  0.08545248  0.20523930  0.76541709  1
  O  O350  1  0.11302889  0.76633472  0.24113081  1
  O  O351  1  0.12278357  0.75441717  0.74652799  1
  O  O352  1  0.63343210  0.24502689  0.26838413  1
  O  O353  1  0.63026215  0.24280437  0.76486091  1
  O  O354  1  0.62917205  0.76252867  0.25182825  1
  O  O355  1  0.63188888  0.76000526  0.75884251  1
  O  O356  1  0.38034703  0.24978619  0.22540897  1
  O  O357  1  0.38364347  0.22932403  0.76585762  1
  O  O358  1  0.35319564  0.71756645  0.32273509  1
  O  O359  1  0.37573780  0.73858572  0.73486007  1
  O  O360  1  0.88740286  0.24974271  0.26296318  1
  O  O361  1  0.89472484  0.24549924  0.75690805  1
  O  O362  1  0.88817584  0.73487072  0.25905052  1
  O  O363  1  0.86976291  0.73021592  0.75016517  1
  O  O364  1  0.38678807  0.47632575  0.50890553  1
  O  O365  1  0.36544813  0.47465317  0.96556042  1
  O  O366  1  0.39047635  0.99884270  0.49429012  1
  O  O367  1  0.37286204  0.98428875  0.97842384  1
  O  O368  1  0.87502712  0.48806053  0.48145320  1
  O  O369  1  0.88352148  0.49895015  1.03547316  1
  O  O370  1  0.89019133  1.00387665  0.48671038  1
  O  O371  1  0.87337491  0.99850927  0.98308285  1
  O  O372  1  0.13516104  -0.00296825  0.01639381  1
  O  O373  1  0.11534986  0.01407386  0.50130106  1
  O  O374  1  0.09082341  0.49474456  0.04026050  1
  O  O375  1  0.12832199  0.50441772  0.50369699  1
  O  O376  1  0.63695841  0.00693625  0.00751071  1
  O  O377  1  0.61959179  0.00506702  0.50572410  1
  O  O378  1  0.62572074  0.51548613  -0.00801682  1
  O  O379  1  0.61585754  0.51272042  0.50886059  1
  O  O380  1  0.36554663  0.36842211  0.11813180  1
  O  O381  1  0.38307503  0.34934586  0.61898068  1
  O  O382  1  0.37047315  0.89234190  0.11201102  1
  O  O383  1  0.36315403  0.86286851  0.63219977  1
  O  O384  1  0.82372482  0.36739595  0.14331745  1
  O  O385  1  0.87853229  0.38924818  0.60668319  1
  O  O386  1  0.86444429  0.86980160  0.13177845  1
  O  O387  1  0.87588215  0.87982191  0.62593982  1
  O  O388  1  0.13208583  0.13179937  0.37979141  1
  O  O389  1  0.14540761  0.10335560  0.88097964  1
  O  O390  1  0.24701144  0.58965230  0.40822851  1
  O  O391  1  0.10791570  0.59949446  0.91937939  1
  O  O392  1  0.62669384  0.11590801  0.38891457  1
  O  O393  1  0.63503831  0.11551916  0.88271162  1
  O  O394  1  0.63259747  0.63200002  0.39047236  1
  O  O395  1  0.62102809  0.64542472  0.88820513  1
