# generated using pymatgen
data_V35Zn35O128
_symmetry_space_group_name_H-M   'P 1'
_cell_length_a   16.93115070
_cell_length_b   16.92676793
_cell_length_c   16.90266795
_cell_angle_alpha   89.97294753
_cell_angle_beta   89.87788223
_cell_angle_gamma   90.17383962
_symmetry_Int_Tables_number   1
_chemical_formula_structural   V35Zn35O128
_chemical_formula_sum   'V70 Zn70 O256'
_cell_volume   4844.09598242
_cell_formula_units_Z   2
loop_
 _symmetry_equiv_pos_site_id
 _symmetry_equiv_pos_as_xyz
  1  'x, y, z'
loop_
 _atom_site_type_symbol
 _atom_site_label
 _atom_site_symmetry_multiplicity
 _atom_site_fract_x
 _atom_site_fract_y
 _atom_site_fract_z
 _atom_site_occupancy
  V  V0  1  0.11914082  0.50084904  0.11672938  1
  V  V1  1  0.73789911  0.63177811  0.38397472  1
  V  V2  1  0.75967045  0.26337949  0.49594865  1
  V  V3  1  0.36595862  0.86883414  0.00586515  1
  V  V4  1  0.24789161  0.75986924  0.50883410  1
  V  V5  1  0.61916508  0.37491847  0.25162084  1
  V  V6  1  0.50049016  0.50074311  -0.01031943  1
  V  V7  1  0.24833547  0.01221321  0.23338802  1
  V  V8  1  0.51809703  0.75287461  0.24925426  1
  V  V9  1  0.36685422  0.25596296  0.12892309  1
  V  V10  1  0.37412377  0.63099982  0.24674503  1
  V  V11  1  0.62842535  0.14675657  0.00248626  1
  V  V12  1  0.51255642  0.35792367  0.86718624  1
  V  V13  1  0.26827477  0.50332256  0.76107297  1
  V  V14  1  0.63807066  0.73425335  0.88633956  1
  V  V15  1  0.24782291  0.63064058  0.37324215  1
  V  V16  1  0.35833405  0.38070658  0.51694488  1
  V  V17  1  0.10879476  0.38972274  0.73528684  1
  V  V18  1  0.37261390  0.37661763  -0.00994681  1
  V  V19  1  0.37342060  0.50527309  0.37656306  1
  V  V20  1  0.74140273  0.00370014  0.23840633  1
  V  V21  1  -0.01267083  0.86956021  0.37475768  1
  V  V22  1  0.50217762  0.50535909  0.51174879  1
  V  V23  1  -0.00253940  -0.00834175  0.02005287  1
  V  V24  1  0.49026991  0.24193180  0.25161840  1
  V  V25  1  0.62761648  0.48226326  0.63247447  1
  V  V26  1  0.75545105  0.48489104  0.75241032  1
  V  V27  1  0.61679843  0.24228188  0.38180962  1
  V  V28  1  -0.00057839  0.15019151  0.12009353  1
  V  V29  1  0.23867015  0.23038895  0.50176058  1
  V  V30  1  0.73712904  0.11641697  0.38259856  1
  V  V31  1  0.00024228  0.48976389  0.50077625  1
  V  V32  1  0.75920007  0.36472962  0.12167513  1
  V  V33  1  0.36998512  -0.00521391  0.86746013  1
  V  V34  1  -0.01536552  0.63012629  0.62122438  1
  V  V35  1  0.51272299  -0.01102080  0.01187129  1
  V  V36  1  0.62087759  0.50468670  0.12152562  1
  V  V37  1  0.12970973  0.74738340  0.86530159  1
  V  V38  1  0.13059877  0.87709305  0.23608529  1
  V  V39  1  0.13779491  0.63142925  -0.00479607  1
  V  V40  1  0.76099199  0.74833866  0.51630635  1
  V  V41  1  0.76271378  0.61445444  0.88950305  1
  V  V42  1  0.24785222  0.24807168  -0.01119925  1
  V  V43  1  -0.00402151  0.75944533  0.74306049  1
  V  V44  1  0.37716786  0.87285549  0.50327903  1
  V  V45  1  0.87902438  0.85549451  0.00856366  1
  V  V46  1  0.50300875  0.87574046  0.36685959  1
  V  V47  1  0.88369395  0.63103870  0.24757192  1
  V  V48  1  0.92042446  0.24103831  0.65058920  1
  V  V49  1  -0.00053378  0.88539946  0.87141216  1
  V  V50  1  0.86452285  0.00692522  0.38041663  1
  V  V51  1  0.12307979  0.38189431  0.25639279  1
  V  V52  1  -0.00396501  0.49322152  -0.02313592  1
  V  V53  1  0.49222912  0.37823816  0.37852977  1
  V  V54  1  0.39198282  0.64808573  0.73656000  1
  V  V55  1  0.35487771  0.75101065  0.12176075  1
  V  V56  1  0.01611029  0.02249191  0.48398998  1
  V  V57  1  0.12447662  0.23291952  0.36663910  1
  V  V58  1  0.11817169  0.75237817  0.36269520  1
  V  V59  1  0.56820201  0.67570508  0.56720104  1
  V  V60  1  0.14033093  0.09776311  0.00138992  1
  V  V61  1  0.87668369  0.49058462  0.38267657  1
  V  V62  1  0.49814446  0.12310215  0.12626204  1
  V  V63  1  0.75011176  0.12140767  0.86190166  1
  V  V64  1  0.74702438  0.85934004  0.13132296  1
  V  V65  1  0.12113703  0.62871014  0.50581755  1
  V  V66  1  0.36694314  0.00384688  0.36560238  1
  V  V67  1  0.51773812  0.86213486  0.87453495  1
  V  V68  1  0.74956527  0.50137203  0.25508168  1
  V  V69  1  0.25255058  0.50205220  0.23740402  1
  Zn  Zn70  1  -0.06080119  0.79355857  0.18843676  1
  Zn  Zn71  1  0.07595183  0.28286622  0.87590422  1
  Zn  Zn72  1  0.50385006  0.63151301  0.11628957  1
  Zn  Zn73  1  0.88039279  0.61383658  0.75936011  1
  Zn  Zn74  1  0.58702880  0.81815897  0.69678156  1
  Zn  Zn75  1  -0.02420973  0.27745542  0.24577418  1
  Zn  Zn76  1  0.18289129  0.19148924  0.18095350  1
  Zn  Zn77  1  0.13054029  0.20297748  0.67289280  1
  Zn  Zn78  1  0.06621681  0.67493782  0.17973006  1
  Zn  Zn79  1  0.18772134  0.68458568  0.68837253  1
  Zn  Zn80  1  0.68447717  0.18310526  0.19115278  1
  Zn  Zn81  1  0.75748066  0.16337652  0.66146412  1
  Zn  Zn82  1  0.69484856  0.68260708  0.18639470  1
  Zn  Zn83  1  0.69666409  0.67923248  0.70340349  1
  Zn  Zn84  1  0.30317139  0.31623319  0.31486239  1
  Zn  Zn85  1  0.23946608  0.31177164  0.80562034  1
  Zn  Zn86  1  0.31104716  0.81591996  0.30948652  1
  Zn  Zn87  1  0.33617607  0.77031642  0.84441885  1
  Zn  Zn88  1  0.80577304  0.30907566  0.30979988  1
  Zn  Zn89  1  0.80551446  0.29290496  0.80632261  1
  Zn  Zn90  1  0.79860494  0.81412070  0.31824365  1
  Zn  Zn91  1  0.82129446  0.80033120  0.82630449  1
  Zn  Zn92  1  0.18528395  0.44658845  0.43881325  1
  Zn  Zn93  1  0.19205228  0.44254458  0.93074060  1
  Zn  Zn94  1  0.18628561  0.93896794  0.42483604  1
  Zn  Zn95  1  0.18927047  0.92687210  0.92899009  1
  Zn  Zn96  1  0.68123301  0.44241112  0.43837310  1
  Zn  Zn97  1  0.69099067  0.42877926  0.93590111  1
  Zn  Zn98  1  0.72116149  0.91035052  0.60082862  1
  Zn  Zn99  1  0.70048455  0.93569581  0.94951164  1
  Zn  Zn100  1  0.32348991  0.06063550  0.05991179  1
  Zn  Zn101  1  0.33185341  0.06603759  0.54406796  1
  Zn  Zn102  1  0.31589501  0.56611177  0.05572530  1
  Zn  Zn103  1  0.31654372  0.57269529  0.57136177  1
  Zn  Zn104  1  0.81772501  0.06739754  0.05727324  1
  Zn  Zn105  1  0.88614361  0.04314231  0.59341974  1
  Zn  Zn106  1  0.82001103  0.55116091  0.06657808  1
  Zn  Zn107  1  0.80654594  0.55644588  0.56395863  1
  Zn  Zn108  1  0.43390792  0.43702567  0.18530970  1
  Zn  Zn109  1  0.43319207  0.44205074  0.70060162  1
  Zn  Zn110  1  0.43371354  0.93282319  0.18975894  1
  Zn  Zn111  1  0.40446745  0.86699342  0.71347029  1
  Zn  Zn112  1  0.93740062  0.44826113  0.18383592  1
  Zn  Zn113  1  0.93124629  0.42848388  0.67497264  1
  Zn  Zn114  1  0.92961503  0.95217845  0.19670177  1
  Zn  Zn115  1  1.05506184  0.95897115  0.67499159  1
  Zn  Zn116  1  0.05464588  0.05641879  0.29536585  1
  Zn  Zn117  1  0.03772556  0.10262453  0.84205987  1
  Zn  Zn118  1  0.06294234  0.55647695  0.31763726  1
  Zn  Zn119  1  0.07053693  0.56194310  0.80727845  1
  Zn  Zn120  1  0.56271340  0.05313184  0.30746541  1
  Zn  Zn121  1  0.59811313  0.03047848  0.84931995  1
  Zn  Zn122  1  0.55781215  0.56469874  0.31303051  1
  Zn  Zn123  1  0.56631604  0.56440770  0.80760821  1
  Zn  Zn124  1  0.40772015  0.20281403  0.42696716  1
  Zn  Zn125  1  0.43679101  0.17888463  0.93553328  1
  Zn  Zn126  1  0.43625244  0.69437456  0.43585250  1
  Zn  Zn127  1  0.43905318  0.67998850  0.93388569  1
  Zn  Zn128  1  0.92899808  0.20288933  0.40023804  1
  Zn  Zn129  1  0.91798608  0.17652782  0.95515495  1
  Zn  Zn130  1  0.92841367  0.68486475  0.43284822  1
  Zn  Zn131  1  0.95209531  0.67916664  0.94161384  1
  Zn  Zn132  1  0.07280417  0.32548163  0.06471923  1
  Zn  Zn133  1  0.06709945  0.30849036  0.55582967  1
  Zn  Zn134  1  0.07125555  0.80810601  0.05576655  1
  Zn  Zn135  1  0.06299975  0.82137587  0.55553376  1
  Zn  Zn136  1  0.55675901  0.31766941  0.06653949  1
  Zn  Zn137  1  0.55951327  0.31408744  0.56182819  1
  Zn  Zn138  1  0.57060355  0.80479106  0.06385800  1
  Zn  Zn139  1  0.60489658  0.84763315  0.50510823  1
  O  O140  1  0.11184339  0.13861569  0.10627887  1
  O  O141  1  0.14614023  0.09188669  0.70086191  1
  O  O142  1  0.13260485  0.61333006  0.10988300  1
  O  O143  1  0.11216555  0.63517069  0.60896989  1
  O  O144  1  0.60505817  0.13204802  0.12139809  1
  O  O145  1  0.64255081  0.10265750  0.60793954  1
  O  O146  1  0.62606085  0.60761508  0.13087787  1
  O  O147  1  0.62436275  0.61468278  0.62772344  1
  O  O148  1  0.37921536  0.38476893  0.38041807  1
  O  O149  1  0.38872049  0.37577829  0.89212869  1
  O  O150  1  0.37887661  0.88226178  0.37416903  1
  O  O151  1  0.39555194  0.86499088  0.89507768  1
  O  O152  1  0.86910800  0.39379876  0.36769065  1
  O  O153  1  0.87405931  0.34555399  0.90797070  1
  O  O154  1  0.88385553  0.87708972  0.37086134  1
  O  O155  1  0.89032661  0.86922105  0.89333764  1
  O  O156  1  0.26131419  -0.00179464  0.35964783  1
  O  O157  1  0.26948901  -0.01389249  0.87681391  1
  O  O158  1  0.25377541  0.51673923  0.36954729  1
  O  O159  1  0.25296162  0.50998625  0.86170413  1
  O  O160  1  0.75045885  0.00778563  0.37364843  1
  O  O161  1  0.71067758  0.01278361  0.86909226  1
  O  O162  1  0.75626626  0.50711680  0.37242532  1
  O  O163  1  0.74419551  0.50376494  0.86371504  1
  O  O164  1  0.24796596  0.50955958  0.13348622  1
  O  O165  1  0.24429372  0.53872224  0.65151655  1
  O  O166  1  0.26050860  0.99779465  0.13450060  1
  O  O167  1  0.27650495  1.02720646  0.65047177  1
  O  O168  1  0.73737712  0.49122920  0.13830596  1
  O  O169  1  0.73592943  0.49687854  0.63285737  1
  O  O170  1  0.76366773  0.99933593  0.13728366  1
  O  O171  1  0.80800502  0.96511048  0.64504431  1
  O  O172  1  0.01850591  0.38560584  0.24103358  1
  O  O173  1  0.00981989  0.39220352  0.75092631  1
  O  O174  1  0.00499982  0.87734694  0.25826466  1
  O  O175  1  -0.00443113  0.86831495  0.76153925  1
  O  O176  1  0.50053820  0.36991105  0.25996441  1
  O  O177  1  0.49380058  0.37633544  0.76878183  1
  O  O178  1  0.50192101  0.86154126  0.25263569  1
  O  O179  1  0.51056368  0.86989883  0.77189535  1
  O  O180  1  0.50055827  0.13633787  0.24593375  1
  O  O181  1  0.50986423  0.18209536  0.74036580  1
  O  O182  1  0.48770757  0.63581464  0.25299519  1
  O  O183  1  0.48992746  0.63095231  0.75865804  1
  O  O184  1  0.99354136  0.11707616  0.21542098  1
  O  O185  1  0.93481575  0.09442431  0.76965599  1
  O  O186  1  0.98923632  0.62071645  0.25388151  1
  O  O187  1  0.99980496  0.62475914  0.73117118  1
  O  O188  1  0.37057024  0.25769703  0.00903862  1
  O  O189  1  0.34795908  0.27042395  0.49555942  1
  O  O190  1  0.38525051  0.75615396  0.01404289  1
  O  O191  1  0.35619494  0.75897600  0.49078797  1
  O  O192  1  0.88241234  0.30405150  -0.03081982  1
  O  O193  1  0.85777618  0.25003017  0.47970567  1
  O  O194  1  0.88633267  0.75729535  0.00278048  1
  O  O195  1  0.86051238  0.74846717  0.49952328  1
  O  O196  1  0.12944716  0.24757391  0.47815987  1
  O  O197  1  0.14576523  0.26056513  0.99716284  1
  O  O198  1  0.13213760  0.74831983  0.48583981  1
  O  O199  1  0.12655835  0.73765216  0.98492746  1
  O  O200  1  0.61879429  0.25413011  0.48336061  1
  O  O201  1  0.62247865  0.24594543  1.00983117  1
  O  O202  1  0.63032134  0.72963734  0.50559896  1
  O  O203  1  0.63005166  0.74299748  0.98771528  1
  O  O204  1  0.49085176  0.24675155  0.13654969  1
  O  O205  1  0.48017501  0.23915759  0.60386107  1
  O  O206  1  0.50276991  0.74676370  0.13918235  1
  O  O207  1  0.52386466  0.74427988  0.62376134  1
  O  O208  1  1.00779796  0.25393456  0.13118870  1
  O  O209  1  1.02289670  0.22580535  0.62919601  1
  O  O210  1  1.00411504  0.74110128  0.11631884  1
  O  O211  1  0.99866134  0.74315565  0.63340234  1
  O  O212  1  0.02523986  0.26052295  0.36237238  1
  O  O213  1  -0.00100918  0.20455563  0.88072439  1
  O  O214  1  0.00343853  0.76143144  0.38032881  1
  O  O215  1  0.00771754  0.75526373  0.86342249  1
  O  O216  1  0.49397575  0.25769035  0.37101850  1
  O  O217  1  0.49485685  0.25919138  0.88184207  1
  O  O218  1  0.49004446  0.75906290  0.35636975  1
  O  O219  1  0.51686754  0.75694525  0.88727958  1
  O  O220  1  0.25630281  0.13250670  0.49216190  1
  O  O221  1  0.24429888  0.13442104  1.01434975  1
  O  O222  1  0.24265504  0.63629937  0.49060287  1
  O  O223  1  0.23798083  0.61924221  0.99361456  1
  O  O224  1  0.74093655  0.13570015  0.48018482  1
  O  O225  1  0.72570518  0.12161448  1.01794172  1
  O  O226  1  0.75295983  0.62758820  0.48933230  1
  O  O227  1  0.75229193  0.60043238  0.98840136  1
  O  O228  1  0.26546166  0.36586710  -0.00598134  1
  O  O229  1  0.25803116  0.39457902  0.50741446  1
  O  O230  1  0.26817021  0.86975208  -0.00396485  1
  O  O231  1  0.25286689  0.86434480  0.48960731  1
  O  O232  1  0.74535595  0.38017431  0.02287282  1
  O  O233  1  0.74509049  0.36272455  0.48275862  1
  O  O234  1  0.77374772  0.87865970  0.01469063  1
  O  O235  1  0.73400622  0.84888801  0.50216477  1
  O  O236  1  0.13249768  0.50315187  0.23881477  1
  O  O237  1  0.14096758  0.49127357  0.75224026  1
  O  O238  1  0.13600082  0.98696892  0.24968590  1
  O  O239  1  0.08691173  1.05242711  0.74126663  1
  O  O240  1  0.62703431  0.49284331  0.24684235  1
  O  O241  1  0.63357142  0.49973517  0.73850146  1
  O  O242  1  0.64099347  0.99369307  0.24919347  1
  O  O243  1  0.57843885  1.02626948  0.72862717  1
  O  O244  1  0.36106979  -0.00455876  0.25457030  1
  O  O245  1  0.38461200  -0.03321659  0.77073065  1
  O  O246  1  0.37189234  0.51013390  0.25324430  1
  O  O247  1  0.37385115  0.52491114  0.75145905  1
  O  O248  1  0.85722642  -0.00356771  0.26876380  1
  O  O249  1  0.92052004  0.02790839  0.73982683  1
  O  O250  1  0.86700616  0.50832376  0.26157170  1
  O  O251  1  0.85924234  0.49653928  0.73362116  1
  O  O252  1  0.12537014  0.39346561  0.35722494  1
  O  O253  1  0.14065373  0.37289965  0.85897782  1
  O  O254  1  0.11487199  0.86691994  0.36146032  1
  O  O255  1  0.10599449  0.86196730  0.88383263  1
  O  O256  1  0.60874582  0.37135026  0.36860706  1
  O  O257  1  0.61208455  0.37072680  0.87984110  1
  O  O258  1  0.59960338  0.87926286  0.38976187  1
  O  O259  1  0.62106322  0.86591636  0.88949019  1
  O  O260  1  0.38810315  0.14292638  0.11552807  1
  O  O261  1  0.41700162  0.12219582  0.60099218  1
  O  O262  1  0.37818509  0.63591708  0.13008495  1
  O  O263  1  0.38747669  0.63559205  0.63447283  1
  O  O264  1  0.90207104  0.14795369  0.07522670  1
  O  O265  1  0.86752870  0.15239306  0.61905125  1
  O  O266  1  0.86558983  0.61650333  0.14952050  1
  O  O267  1  0.88424275  0.62532305  0.62102388  1
  O  O268  1  0.26453915  0.25037581  0.11970322  1
  O  O269  1  0.21854352  0.23797195  0.60075791  1
  O  O270  1  0.26012594  0.74687442  0.11974152  1
  O  O271  1  0.23967462  0.75221915  0.60668243  1
  O  O272  1  0.74278621  0.26706802  0.14241414  1
  O  O273  1  0.73693654  0.25016683  0.59590110  1
  O  O274  1  0.75702009  0.75947091  0.13347044  1
  O  O275  1  0.75070333  0.73631706  0.61658293  1
  O  O276  1  0.23562873  0.25732973  0.38360554  1
  O  O277  1  0.26572298  0.23967385  0.89090152  1
  O  O278  1  0.23937864  0.74216895  0.37330402  1
  O  O279  1  0.22506072  0.77466695  0.85689581  1
  O  O280  1  0.73200576  0.23884714  0.37380614  1
  O  O281  1  0.74520957  0.22513883  0.87110542  1
  O  O282  1  0.74578266  0.73553716  0.38239334  1
  O  O283  1  0.74918605  0.73019792  0.88209796  1
  O  O284  1  0.02067807  0.09874852  0.00750899  1
  O  O285  1  -0.00591242  0.11842831  0.46633920  1
  O  O286  1  0.02419415  0.60651828  -0.00756279  1
  O  O287  1  0.00242813  0.62935975  0.50704449  1
  O  O288  1  0.50899460  0.11146594  0.00701193  1
  O  O289  1  0.46912940  0.17028694  0.56166621  1
  O  O290  1  0.49300788  0.60537399  0.00172012  1
  O  O291  1  0.49836564  0.62117065  0.50210438  1
  O  O292  1  0.48673140  0.38409439  0.49277885  1
  O  O293  1  0.49375843  0.38292653  0.99546753  1
  O  O294  1  0.48088422  0.85996481  0.47962517  1
  O  O295  1  0.50004048  0.88104852  1.00820772  1
  O  O296  1  1.00928796  0.39200707  0.49997447  1
  O  O297  1  1.02048207  0.39232251  0.99056463  1
  O  O298  1  1.00800067  0.88944927  0.47571678  1
  O  O299  1  0.99715178  0.87917547  0.99585554  1
  O  O300  1  0.49421655  0.49558913  0.38495332  1
  O  O301  1  0.50961213  0.49364931  0.88927388  1
  O  O302  1  0.48448371  0.98287187  0.35500593  1
  O  O303  1  0.50232345  0.97949424  0.89439703  1
  O  O304  1  0.98493628  0.50725860  0.38661161  1
  O  O305  1  0.99812986  0.50421582  0.87632108  1
  O  O306  1  0.98512494  0.99405654  0.36934387  1
  O  O307  1  1.00807448  0.98661306  0.88245210  1
  O  O308  1  0.00645562  -0.00819130  0.12013494  1
  O  O309  1  -0.00329550  0.01112268  0.58969226  1
  O  O310  1  0.01745156  0.50290269  0.11974657  1
  O  O311  1  -0.00989132  0.51323196  0.60615115  1
  O  O312  1  0.48718160  0.00752573  0.11809605  1
  O  O313  1  0.51550512  0.04732226  0.69604748  1
  O  O314  1  0.51168526  0.50123345  0.12584094  1
  O  O315  1  0.50956060  0.49584378  0.61912639  1
  O  O316  1  0.24406141  0.39592079  0.25535303  1
  O  O317  1  0.27220583  0.40115423  0.74377268  1
  O  O318  1  0.23404881  0.87654885  0.24964909  1
  O  O319  1  0.24654169  0.96028092  0.66038891  1
  O  O320  1  0.73559433  0.38494637  0.25391585  1
  O  O321  1  0.75472287  0.38493593  0.76239963  1
  O  O322  1  0.75532261  0.88288450  0.23771844  1
  O  O323  1  0.77504207  0.87347081  0.74064077  1
  O  O324  1  0.24134205  0.11168277  0.23969031  1
  O  O325  1  0.32678255  0.15775863  0.73343692  1
  O  O326  1  0.26300085  0.61995393  0.25855457  1
  O  O327  1  0.26690830  0.62572408  0.74358246  1
  O  O328  1  0.74291938  0.11175331  0.25851893  1
  O  O329  1  0.75470754  0.11387155  0.75906488  1
  O  O330  1  0.75447300  0.61489633  0.26165793  1
  O  O331  1  0.76019710  0.60794471  0.76451035  1
  O  O332  1  0.38826032  0.10218694  0.38598890  1
  O  O333  1  0.38910993  0.09478591  0.87614886  1
  O  O334  1  0.36730279  0.62547562  0.36833670  1
  O  O335  1  0.36452876  0.65873793  0.85447151  1
  O  O336  1  0.85472418  0.11076198  0.37590091  1
  O  O337  1  0.84274730  0.10594566  0.90436743  1
  O  O338  1  0.86232040  0.61561878  0.36588521  1
  O  O339  1  0.86677106  0.62470649  0.88004004  1
  O  O340  1  0.13556122  0.39532051  0.13562992  1
  O  O341  1  0.11824397  0.37756857  0.63455353  1
  O  O342  1  0.12204142  0.86902710  0.13769920  1
  O  O343  1  0.11295829  0.87532831  0.63695791  1
  O  O344  1  0.62513655  0.38328081  0.13963992  1
  O  O345  1  0.61928177  0.38255402  0.62920014  1
  O  O346  1  0.64925631  0.87194074  0.11464647  1
  O  O347  1  0.61359992  0.88897655  0.61277251  1
  O  O348  1  0.13948339  0.27297602  0.25472050  1
  O  O349  1  0.13633727  0.27684961  0.75718852  1
  O  O350  1  0.11830109  0.75532244  0.25712229  1
  O  O351  1  0.10837802  0.73977064  0.75670638  1
  O  O352  1  0.60868920  0.25836840  0.26042199  1
  O  O353  1  0.57972885  0.20124154  0.73847203  1
  O  O354  1  0.61579128  0.74045449  0.25199525  1
  O  O355  1  0.64086978  0.75397271  0.77267515  1
  O  O356  1  0.37764402  0.25952349  0.24070950  1
  O  O357  1  0.33930021  0.22961200  0.73281063  1
  O  O358  1  0.37414466  0.74570605  0.23646386  1
  O  O359  1  0.37561364  0.75847174  0.73608556  1
  O  O360  1  0.88533631  0.23599502  0.29119464  1
  O  O361  1  0.89417643  0.24912255  0.74833499  1
  O  O362  1  0.87104699  0.73518093  0.26079300  1
  O  O363  1  0.89517307  0.74052230  0.75707945  1
  O  O364  1  0.38096944  0.49843608  0.49844342  1
  O  O365  1  0.38872370  0.48590264  1.01225890  1
  O  O366  1  0.36532491  0.97980912  0.48050431  1
  O  O367  1  0.38501711  0.98211126  0.99607450  1
  O  O368  1  0.88145971  0.50147880  0.49064256  1
  O  O369  1  0.89903651  0.49820311  1.00633224  1
  O  O370  1  0.87826430  0.99677634  0.48254880  1
  O  O371  1  0.89561593  0.98848907  1.00927078  1
  O  O372  1  0.12984304  -0.00554073  0.00610478  1
  O  O373  1  0.11591355  0.01230667  0.47606731  1
  O  O374  1  0.12907304  0.50475293  0.00705351  1
  O  O375  1  0.10732409  0.51710028  0.48785202  1
  O  O376  1  0.61231187  -0.00369107  0.01134735  1
  O  O377  1  0.63989220  0.04142913  0.56698417  1
  O  O378  1  0.61270739  0.49028615  0.01554134  1
  O  O379  1  0.61300097  0.49593304  0.51367127  1
  O  O380  1  0.38378722  0.36098991  0.11505549  1
  O  O381  1  0.37893797  0.38293080  0.61334622  1
  O  O382  1  0.37663716  0.86151079  0.11719969  1
  O  O383  1  0.38164810  0.88148061  0.60212097  1
  O  O384  1  0.85821602  0.37984828  0.14068991  1
  O  O385  1  0.89997760  0.33436375  0.61580149  1
  O  O386  1  0.87798814  0.87093669  0.12102734  1
  O  O387  1  0.83589598  0.91379795  0.70983847  1
  O  O388  1  0.12198573  0.13580379  0.34788333  1
  O  O389  1  0.13587250  0.11695388  0.90337551  1
  O  O390  1  0.12904606  0.63356883  0.37952760  1
  O  O391  1  0.12748038  0.63851580  0.87828925  1
  O  O392  1  0.62575391  0.12930103  0.36965936  1
  O  O393  1  0.62531380  0.13317435  0.89739286  1
  O  O394  1  0.63951915  0.61411762  0.37343684  1
  O  O395  1  0.63708373  0.62953663  0.87527048  1
