# generated using pymatgen
data_V35Zn35O128
_symmetry_space_group_name_H-M   'P 1'
_cell_length_a   16.89068615
_cell_length_b   16.85402969
_cell_length_c   16.88994508
_cell_angle_alpha   89.97723588
_cell_angle_beta   90.20769230
_cell_angle_gamma   90.13897729
_symmetry_Int_Tables_number   1
_chemical_formula_structural   V35Zn35O128
_chemical_formula_sum   'V70 Zn70 O256'
_cell_volume   4808.11803263
_cell_formula_units_Z   2
loop_
 _symmetry_equiv_pos_site_id
 _symmetry_equiv_pos_as_xyz
  1  'x, y, z'
loop_
 _atom_site_type_symbol
 _atom_site_label
 _atom_site_symmetry_multiplicity
 _atom_site_fract_x
 _atom_site_fract_y
 _atom_site_fract_z
 _atom_site_occupancy
  V  V0  1  0.25030634  0.25098922  -0.00172724  1
  V  V1  1  0.11039403  0.23836100  0.37235916  1
  V  V2  1  -0.00089436  0.60794776  0.11294189  1
  V  V3  1  0.61381857  0.63223602  0.49151557  1
  V  V4  1  0.24614333  0.11929145  0.38335164  1
  V  V5  1  0.11463904  0.37107479  0.74579721  1
  V  V6  1  0.49738633  -0.00609771  0.48322288  1
  V  V7  1  0.24429187  0.73655251  -0.01157209  1
  V  V8  1  0.37286835  0.85144752  0.50793097  1
  V  V9  1  0.13976749  0.74350262  0.38087822  1
  V  V10  1  0.50686248  0.37906637  0.88699365  1
  V  V11  1  0.88007170  0.24142240  0.63591110  1
  V  V12  1  0.89899049  0.75903503  0.13035671  1
  V  V13  1  0.40282805  0.65503346  0.25492986  1
  V  V14  1  0.86843463  0.36954569  0.00094850  1
  V  V15  1  0.49551749  0.74036363  0.73592443  1
  V  V16  1  0.12148968  0.12396644  0.51242128  1
  V  V17  1  0.50051205  0.85799714  0.36470702  1
  V  V18  1  0.48344076  0.26311971  0.73896027  1
  V  V19  1  0.37797580  0.51002864  0.86250100  1
  V  V20  1  0.38045941  0.24444581  0.12975499  1
  V  V21  1  0.12739277  0.86785342  0.24992094  1
  V  V22  1  0.63781968  0.75671551  0.36116771  1
  V  V23  1  0.62604687  0.51506119  0.62572127  1
  V  V24  1  0.75230963  0.11088806  0.85658248  1
  V  V25  1  0.62389430  0.88439094  0.75054333  1
  V  V26  1  -0.00265999  0.00269606  0.50894042  1
  V  V27  1  0.86026769  0.37003058  0.50327258  1
  V  V28  1  0.63373698  0.24649175  0.88122843  1
  V  V29  1  0.61875440  0.75269328  0.88252414  1
  V  V30  1  0.73519978  0.37882627  0.12242677  1
  V  V31  1  0.77086360  0.75029887  -0.00140782  1
  V  V32  1  0.24058409  -0.00690421  0.24789785  1
  V  V33  1  0.87096898  0.50501290  0.86832146  1
  V  V34  1  0.74924366  0.89897009  0.63150083  1
  V  V35  1  -0.01756415  0.37181522  0.36879757  1
  V  V36  1  0.73937114  0.88137584  0.12768519  1
  V  V37  1  0.75193134  0.74528208  0.51212614  1
  V  V38  1  0.37972023  0.38435214  0.00728157  1
  V  V39  1  0.00391091  0.74559735  0.76291352  1
  V  V40  1  0.75870080  0.63050899  0.86209419  1
  V  V41  1  0.37645776  0.86795685  0.02923861  1
  V  V42  1  0.61786086  0.10600994  -0.00074846  1
  V  V43  1  0.24021339  0.87638619  0.62865562  1
  V  V44  1  0.89551488  0.00360841  0.87881400  1
  V  V45  1  0.24737982  0.49520306  0.27845569  1
  V  V46  1  0.74173144  0.50340432  0.25558623  1
  V  V47  1  0.63513338  0.37787757  0.74075658  1
  V  V48  1  0.62634735  0.25049633  0.36694959  1
  V  V49  1  0.37316536  0.11699326  0.25458442  1
  V  V50  1  0.74703688  0.11258635  0.35201285  1
  V  V51  1  0.49145955  0.11869416  0.62661225  1
  V  V52  1  0.12939800  0.61948359  0.49366288  1
  V  V53  1  0.11244662  0.36306073  0.24851336  1
  V  V54  1  0.11668992  0.11862599  0.01361025  1
  V  V55  1  0.50201681  0.25305117  0.25510912  1
  V  V56  1  0.25979348  0.36803279  0.62271684  1
  V  V57  1  0.11337416  0.24688551  0.86969352  1
  V  V58  1  0.12313761  0.49839754  0.11399385  1
  V  V59  1  0.24735386  0.37227213  0.12994220  1
  V  V60  1  0.12519790  0.50108661  0.62907452  1
  V  V61  1  -0.00361249  0.86443030  0.37700437  1
  V  V62  1  0.87137644  -0.00016808  0.36284784  1
  V  V63  1  0.26351239  0.12431679  0.86384601  1
  V  V64  1  -0.01543127  0.50128257  0.50478315  1
  V  V65  1  0.12774881  0.88151515  0.77252699  1
  V  V66  1  0.00405636  0.38638736  0.87892453  1
  V  V67  1  0.88095474  0.61397954  0.25999600  1
  V  V68  1  0.87967733  0.23906851  0.13598903  1
  V  V69  1  0.74638710  0.24106585  0.50477699  1
  Zn  Zn70  1  -0.10243497  0.72734372  0.62327151  1
  Zn  Zn71  1  0.48153241  0.48309914  0.48019119  1
  Zn  Zn72  1  -0.00212078  0.12267268  0.64341289  1
  Zn  Zn73  1  0.62957273  0.10610873  0.50512126  1
  Zn  Zn74  1  0.87204565  0.87804138  0.51081673  1
  Zn  Zn75  1  0.37442063  0.00223819  0.90879369  1
  Zn  Zn76  1  0.18688422  0.18496945  0.19288806  1
  Zn  Zn77  1  0.19611331  0.19147055  0.68668801  1
  Zn  Zn78  1  0.24041470  0.69239322  0.20315975  1
  Zn  Zn79  1  0.14371231  0.71407141  0.65649186  1
  Zn  Zn80  1  0.68856631  0.19066537  0.17062529  1
  Zn  Zn81  1  0.67156101  0.18905879  0.68699001  1
  Zn  Zn82  1  0.70340964  0.69010371  0.18121696  1
  Zn  Zn83  1  0.68577808  0.69495678  0.69112148  1
  Zn  Zn84  1  0.30167621  0.30135352  0.31716510  1
  Zn  Zn85  1  0.30391613  0.33214578  0.81592865  1
  Zn  Zn86  1  0.31563862  0.81342834  0.32472887  1
  Zn  Zn87  1  0.31238299  0.81439788  0.81774285  1
  Zn  Zn88  1  0.80143700  0.31023409  0.30207387  1
  Zn  Zn89  1  0.81373789  0.31454817  0.81293494  1
  Zn  Zn90  1  0.81501499  0.80602932  0.30712484  1
  Zn  Zn91  1  0.82317490  0.81623802  0.80181432  1
  Zn  Zn92  1  0.16096854  0.41560289  0.44682148  1
  Zn  Zn93  1  0.20383868  0.55828549  0.93781873  1
  Zn  Zn94  1  0.18798241  0.93680932  0.44519808  1
  Zn  Zn95  1  0.19864155  0.93822121  0.94687691  1
  Zn  Zn96  1  0.62452306  0.45034950  0.40648012  1
  Zn  Zn97  1  0.68723082  0.44584414  0.94252348  1
  Zn  Zn98  1  0.68385338  0.93212978  0.44252491  1
  Zn  Zn99  1  0.70499029  0.93362301  0.93440904  1
  Zn  Zn100  1  0.30004799  0.06032251  0.06858824  1
  Zn  Zn101  1  0.32508279  0.05393232  0.57028012  1
  Zn  Zn102  1  0.32490370  0.57059195  0.08041345  1
  Zn  Zn103  1  0.29380519  0.49850210  0.48505458  1
  Zn  Zn104  1  0.80210295  0.06316301  0.04654426  1
  Zn  Zn105  1  0.81380500  0.06297657  0.55949468  1
  Zn  Zn106  1  0.81621902  0.55790622  0.05377238  1
  Zn  Zn107  1  0.79715473  0.55407752  0.56092561  1
  Zn  Zn108  1  0.42795026  0.43502592  0.20263604  1
  Zn  Zn109  1  0.44718933  0.45050797  0.68247346  1
  Zn  Zn110  1  0.42931922  0.93345728  0.19836319  1
  Zn  Zn111  1  0.44025812  0.92356465  0.68446643  1
  Zn  Zn112  1  0.92775120  0.43789989  0.18535857  1
  Zn  Zn113  1  0.93480799  0.56288353  0.68863428  1
  Zn  Zn114  1  0.95428738  0.95294323  0.18708396  1
  Zn  Zn115  1  0.93502456  0.93105454  0.71079200  1
  Zn  Zn116  1  0.05236374  0.05706778  0.30469125  1
  Zn  Zn117  1  0.07669541  0.05393169  0.82521058  1
  Zn  Zn118  1  0.06039809  0.55444463  0.31116966  1
  Zn  Zn119  1  0.06759373  0.56768470  0.81326967  1
  Zn  Zn120  1  0.56322900  0.05769629  0.30837479  1
  Zn  Zn121  1  0.55298796  0.07175041  0.80287471  1
  Zn  Zn122  1  0.54321730  0.55507952  0.27023689  1
  Zn  Zn123  1  0.56795605  0.56499379  0.81787711  1
  Zn  Zn124  1  0.43741994  0.18241607  0.44112972  1
  Zn  Zn125  1  0.44532082  0.19601331  0.94016944  1
  Zn  Zn126  1  0.40275759  0.64598023  0.46016875  1
  Zn  Zn127  1  0.43233067  0.69746290  0.95185447  1
  Zn  Zn128  1  0.93056413  0.18149286  0.43285163  1
  Zn  Zn129  1  0.93115008  0.18039176  0.94361670  1
  Zn  Zn130  1  0.92995041  0.68679052  0.44301364  1
  Zn  Zn131  1  0.94815130  0.68665001  0.94150448  1
  Zn  Zn132  1  0.05705196  0.30450856  0.05944065  1
  Zn  Zn133  1  0.05239095  0.31031959  0.56139571  1
  Zn  Zn134  1  0.10757309  0.76565708  0.09177518  1
  Zn  Zn135  1  0.06279877  0.81951771  0.56379827  1
  Zn  Zn136  1  0.59163581  0.49714742  0.10114342  1
  Zn  Zn137  1  0.55923640  0.32555456  0.55830307  1
  Zn  Zn138  1  0.56387375  0.92816507  0.05883967  1
  Zn  Zn139  1  0.56425126  0.81532155  0.56646332  1
  O  O140  1  0.12715068  0.13538947  0.11288515  1
  O  O141  1  0.12018237  0.13128378  0.61477142  1
  O  O142  1  0.11362043  0.60103039  0.13520240  1
  O  O143  1  0.11875036  0.60986046  0.60839744  1
  O  O144  1  0.63266293  0.12439302  0.09730599  1
  O  O145  1  0.59712953  0.14453807  0.61136100  1
  O  O146  1  0.61826061  0.63522775  0.11593348  1
  O  O147  1  0.62866205  0.62033794  0.62020324  1
  O  O148  1  0.37074738  0.33597277  0.41255622  1
  O  O149  1  0.38607581  0.38651658  0.88648845  1
  O  O150  1  0.39270361  0.86397730  0.39027943  1
  O  O151  1  0.34645876  0.88446613  0.90648423  1
  O  O152  1  0.87933493  0.36263854  0.37828729  1
  O  O153  1  0.88486720  0.38002650  0.87842093  1
  O  O154  1  0.88552916  0.87805946  0.37741735  1
  O  O155  1  0.87841825  0.91432131  0.82585056  1
  O  O156  1  0.24288320  0.01393453  0.37294573  1
  O  O157  1  0.25207757  0.02331148  0.88020574  1
  O  O158  1  0.23148772  0.48318917  0.38082636  1
  O  O159  1  0.27805125  0.49705222  0.87821159  1
  O  O160  1  0.75876234  0.00326493  0.38155586  1
  O  O161  1  0.75298223  0.00837787  0.85763205  1
  O  O162  1  0.72499046  0.49309736  0.35346535  1
  O  O163  1  0.76092205  0.51640218  0.87555335  1
  O  O164  1  0.23776796  0.48251536  0.14082077  1
  O  O165  1  0.22438285  0.49204322  0.62840743  1
  O  O166  1  0.23829426  1.00311342  0.14957059  1
  O  O167  1  0.27164252  0.97901542  0.63092916  1
  O  O168  1  0.76024402  0.48491038  0.12127221  1
  O  O169  1  0.72355975  0.48694623  0.61443301  1
  O  O170  1  0.75999614  0.97955160  0.11312704  1
  O  O171  1  0.74231281  0.99885928  0.62372513  1
  O  O172  1  -0.00199402  0.37877313  0.26194435  1
  O  O173  1  0.00945783  0.36698020  0.76910950  1
  O  O174  1  0.01593274  0.88017221  0.27315664  1
  O  O175  1  0.02108977  0.86435970  0.74485525  1
  O  O176  1  0.49298497  0.35069374  0.26021291  1
  O  O177  1  0.50929608  0.37269723  0.76017271  1
  O  O178  1  0.49074648  0.86591568  0.26554544  1
  O  O179  1  0.51946172  0.86100069  0.74454696  1
  O  O180  1  0.47510503  0.12455397  0.26496063  1
  O  O181  1  0.49472803  0.14674828  0.73318900  1
  O  O182  1  0.50326936  0.66318650  0.24641741  1
  O  O183  1  0.50775161  0.64123866  0.75989792  1
  O  O184  1  1.00196203  0.05174469  0.20455795  1
  O  O185  1  0.98544801  0.09680819  0.75566993  1
  O  O186  1  0.98725408  0.60740660  0.23991563  1
  O  O187  1  1.00401827  0.63621451  0.74784439  1
  O  O188  1  0.37114720  0.25591340  0.01244363  1
  O  O189  1  0.38066971  0.28488612  0.46957711  1
  O  O190  1  0.36339486  0.75758363  0.01707605  1
  O  O191  1  0.37493642  0.75183483  0.49821666  1
  O  O192  1  0.87256703  0.26608251  -0.00723189  1
  O  O193  1  0.86162503  0.24908218  0.49745171  1
  O  O194  1  0.88292671  0.74958866  0.01678278  1
  O  O195  1  0.86538525  0.75766519  0.50640659  1
  O  O196  1  0.11048742  0.23111152  0.48954881  1
  O  O197  1  0.13350777  0.24806133  0.98952836  1
  O  O198  1  0.11563716  0.72883880  0.49245958  1
  O  O199  1  0.14070085  0.74638593  0.98428246  1
  O  O200  1  0.63817550  0.24695818  0.48103649  1
  O  O201  1  0.62063073  0.23763413  0.97874481  1
  O  O202  1  0.63890827  0.74843551  0.50416790  1
  O  O203  1  0.65689267  0.75229005  0.97887153  1
  O  O204  1  0.48348991  0.24117259  0.14425576  1
  O  O205  1  0.49365513  0.26902606  0.63599556  1
  O  O206  1  0.56116969  0.68136254  0.08146756  1
  O  O207  1  0.50363699  0.74494566  0.63545995  1
  O  O208  1  0.98064551  0.25064635  0.12194870  1
  O  O209  1  0.98554625  0.24334666  0.62630727  1
  O  O210  1  1.00289673  0.72655521  0.12610087  1
  O  O211  1  1.01557750  0.74400783  0.63004980  1
  O  O212  1  -0.00049988  0.25564617  0.37603013  1
  O  O213  1  0.01253265  0.24643640  0.87768632  1
  O  O214  1  -0.00109923  0.76280003  0.38329945  1
  O  O215  1  -0.00727323  0.75235017  0.86317028  1
  O  O216  1  0.51658591  0.23527956  0.36805021  1
  O  O217  1  0.50701035  0.26234705  0.86372305  1
  O  O218  1  0.52195729  0.75799461  0.37729429  1
  O  O219  1  0.51964382  0.74775512  0.89221138  1
  O  O220  1  0.23075055  0.11543008  0.49233607  1
  O  O221  1  0.24599089  0.14127650  0.99934913  1
  O  O222  1  0.22609754  0.60525176  0.49153745  1
  O  O223  1  0.26017825  0.62928408  1.01159982  1
  O  O224  1  0.74703572  0.13124955  0.48856323  1
  O  O225  1  0.72766031  0.11603051  0.97028247  1
  O  O226  1  0.74710167  0.64317201  0.49992508  1
  O  O227  1  0.76423084  0.64236410  0.99255316  1
  O  O228  1  0.26142977  0.36343519  0.01565387  1
  O  O229  1  0.24796361  0.39316977  0.51734443  1
  O  O230  1  0.25815787  0.85711942  0.00106877  1
  O  O231  1  0.26913118  0.87962964  0.50315982  1
  O  O232  1  0.76060315  0.37714471  0.00408990  1
  O  O233  1  0.75850051  0.35295661  0.48454390  1
  O  O234  1  0.76159921  0.85964097  0.00669806  1
  O  O235  1  0.74860869  0.87198919  0.51944503  1
  O  O236  1  0.12825743  0.47636505  0.25172907  1
  O  O237  1  0.10580533  0.49078763  0.73300212  1
  O  O238  1  0.13487379  0.98134990  0.26709059  1
  O  O239  1  0.12424756  0.98256992  0.75224933  1
  O  O240  1  0.64733067  0.52299555  0.22021318  1
  O  O241  1  0.61674812  0.49195442  0.73609794  1
  O  O242  1  0.58617377  1.00408851  0.20622191  1
  O  O243  1  0.61564892  0.98349996  0.76252754  1
  O  O244  1  0.35951344  0.01077454  0.25569174  1
  O  O245  1  0.40280047  -0.00443442  0.76882755  1
  O  O246  1  0.34440374  0.46636826  0.27406004  1
  O  O247  1  0.38864020  0.50762614  0.76217363  1
  O  O248  1  0.86991893  -0.01250386  0.26564104  1
  O  O249  1  0.92126053  0.04232615  0.75768662  1
  O  O250  1  0.86450054  0.50582169  0.25265686  1
  O  O251  1  0.88278231  0.49700569  0.76893953  1
  O  O252  1  0.10593624  0.35618387  0.36878958  1
  O  O253  1  0.11479613  0.36226892  0.87109670  1
  O  O254  1  0.11702690  0.85894674  0.38629745  1
  O  O255  1  0.13255549  0.87854649  0.87194808  1
  O  O256  1  0.64407787  0.34571313  0.35284744  1
  O  O257  1  0.61869809  0.36796593  0.87547571  1
  O  O258  1  0.61555017  0.86684271  0.37567963  1
  O  O259  1  0.64301732  0.85925849  0.86277354  1
  O  O260  1  0.35836742  0.13228454  0.14714728  1
  O  O261  1  0.39530512  0.14229965  0.59333472  1
  O  O262  1  0.37276556  0.59564345  0.17551698  1
  O  O263  1  0.32862638  0.63339248  0.67137069  1
  O  O264  1  0.85672041  0.14417925  0.10582369  1
  O  O265  1  0.87548235  0.13748359  0.61987709  1
  O  O266  1  0.89186837  0.61946721  0.12622367  1
  O  O267  1  0.87185966  0.61665800  0.61491107  1
  O  O268  1  0.25545717  0.25633065  0.12423972  1
  O  O269  1  0.24782095  0.26697902  0.62013414  1
  O  O270  1  0.21997599  0.74795944  0.11051806  1
  O  O271  1  0.23664754  0.77017783  0.61739278  1
  O  O272  1  0.75936034  0.27152058  0.12912812  1
  O  O273  1  0.75093870  0.23958581  0.60681709  1
  O  O274  1  0.77340616  0.75685196  0.11299264  1
  O  O275  1  0.75321252  0.75482632  0.61674562  1
  O  O276  1  0.22508033  0.23172656  0.37277278  1
  O  O277  1  0.24614905  0.25023360  0.88436335  1
  O  O278  1  0.23757097  0.74794860  0.38797972  1
  O  O279  1  0.26690640  0.73559995  0.88978623  1
  O  O280  1  0.74322360  0.22775447  0.36836735  1
  O  O281  1  0.73710615  0.24439868  0.86887057  1
  O  O282  1  0.74328182  0.77089723  0.39349793  1
  O  O283  1  0.78003536  0.74270668  0.88310576  1
  O  O284  1  0.01746128  0.12887471  -0.00304297  1
  O  O285  1  0.00449700  0.11474935  0.49867189  1
  O  O286  1  0.00287108  0.61478235  0.01345556  1
  O  O287  1  -0.00404752  0.60282577  0.48765475  1
  O  O288  1  0.51664796  0.11776231  -0.01826291  1
  O  O289  1  0.50345994  0.10549827  0.49292821  1
  O  O290  1  0.50855960  0.63999451  0.04341092  1
  O  O291  1  0.51664718  0.64422545  0.49880492  1
  O  O292  1  0.54032171  0.38692555  0.46887912  1
  O  O293  1  0.49242208  0.36684255  0.98834015  1
  O  O294  1  0.49271561  0.87717557  0.49801745  1
  O  O295  1  0.47770364  0.87135929  1.01475365  1
  O  O296  1  0.98399058  0.37517825  0.48888225  1
  O  O297  1  0.99310512  0.36823683  0.98341207  1
  O  O298  1  1.00006230  0.88824375  0.49136648  1
  O  O299  1  1.01695217  0.87980560  1.00374813  1
  O  O300  1  0.53146586  0.51080279  0.37223752  1
  O  O301  1  0.50352774  0.48288641  0.87413451  1
  O  O302  1  0.50490891  0.98347364  0.37897032  1
  O  O303  1  0.45960031  0.99987450  0.82888225  1
  O  O304  1  1.00170186  0.47796777  0.38658334  1
  O  O305  1  0.99767304  0.48925753  0.87611135  1
  O  O306  1  0.98531419  0.99419869  0.38204177  1
  O  O307  1  0.99533944  1.00782216  0.89067539  1
  O  O308  1  0.00204659  -0.05932214  0.04033675  1
  O  O309  1  -0.00851448  0.00076124  0.60964025  1
  O  O310  1  0.01123083  0.49520008  0.12401397  1
  O  O311  1  -0.00220268  0.49320185  0.60783696  1
  O  O312  1  0.52332168  -0.00210875  0.15568068  1
  O  O313  1  0.49253144  0.01646833  0.62812218  1
  O  O314  1  0.50548546  0.50484359  0.17005560  1
  O  O315  1  0.52493623  0.48019651  0.60492225  1
  O  O316  1  0.23243716  0.36645222  0.24701369  1
  O  O317  1  0.22687881  0.37326881  0.73882246  1
  O  O318  1  0.24114506  0.88478635  0.26619202  1
  O  O319  1  0.23578388  0.86608106  0.74139280  1
  O  O320  1  0.75384768  0.39088148  0.23428388  1
  O  O321  1  0.73215092  0.37971426  0.76457602  1
  O  O322  1  0.76201667  0.86564850  0.22635833  1
  O  O323  1  0.73954514  0.87042421  0.73727842  1
  O  O324  1  0.24824440  0.11405361  0.26422057  1
  O  O325  1  0.25577295  0.13505267  0.76422403  1
  O  O326  1  0.23492382  0.59424703  0.26204676  1
  O  O327  1  0.28016521  0.63497333  0.72473063  1
  O  O328  1  0.73991725  0.11549596  0.25379724  1
  O  O329  1  0.73981900  0.13071680  0.75730005  1
  O  O330  1  0.76999470  0.61356551  0.23644817  1
  O  O331  1  0.76349726  0.63956718  0.76315203  1
  O  O332  1  0.35253968  0.13535716  0.37114696  1
  O  O333  1  0.36488717  0.13030927  0.88670509  1
  O  O334  1  0.38248491  0.62265428  0.34955041  1
  O  O335  1  0.40239308  0.60202703  0.89842890  1
  O  O336  1  0.86213752  0.11026073  0.37005583  1
  O  O337  1  0.86008672  0.11855603  0.87640104  1
  O  O338  1  0.87843365  0.62998194  0.35838426  1
  O  O339  1  0.87651834  0.61075952  0.88245691  1
  O  O340  1  0.12647681  0.37375381  0.13079067  1
  O  O341  1  0.11851899  0.38046016  0.62737380  1
  O  O342  1  0.11251456  0.86778261  0.15246008  1
  O  O343  1  0.14018571  0.89119008  0.60929748  1
  O  O344  1  0.63714813  0.37919263  0.11617236  1
  O  O345  1  0.63244001  0.36543137  0.64066477  1
  O  O346  1  0.63969860  0.86726807  0.11956841  1
  O  O347  1  0.63629757  0.87381007  0.63867649  1
  O  O348  1  0.11668608  0.25403719  0.25580647  1
  O  O349  1  0.12535063  0.25129202  0.76349689  1
  O  O350  1  0.13563890  0.75972574  0.27056166  1
  O  O351  1  0.11558013  0.75935019  0.75637910  1
  O  O352  1  0.60875896  0.22907948  0.25248804  1
  O  O353  1  0.61360380  0.26405309  0.75794226  1
  O  O354  1  0.64833356  0.74895907  0.26347380  1
  O  O355  1  0.61760763  0.75485399  0.76346032  1
  O  O356  1  0.37740794  0.23949572  0.25132065  1
  O  O357  1  0.38588524  0.26984342  0.75806571  1
  O  O358  1  0.34333339  0.74249391  0.24148486  1
  O  O359  1  0.39971671  0.76471361  0.76287634  1
  O  O360  1  0.87048817  0.24507283  0.23731108  1
  O  O361  1  0.86489510  0.25366867  0.73295299  1
  O  O362  1  0.87625662  0.73190285  0.23385338  1
  O  O363  1  0.89920530  0.76077038  0.73572440  1
  O  O364  1  0.39130443  0.54158143  0.50783365  1
  O  O365  1  0.37721504  0.48422961  1.01960318  1
  O  O366  1  0.39378114  0.98809157  0.50016360  1
  O  O367  1  0.36832260  0.98654106  1.02104045  1
  O  O368  1  0.87435213  0.48082322  0.50020614  1
  O  O369  1  0.87641232  0.48211439  0.98406391  1
  O  O370  1  0.88476185  0.99855542  0.49061797  1
  O  O371  1  0.86411040  0.99323759  0.97467464  1
  O  O372  1  0.13863300  0.02014388  0.00075579  1
  O  O373  1  0.10859826  0.01281710  0.49283151  1
  O  O374  1  0.13841531  0.49353271  0.01701667  1
  O  O375  1  0.10507916  0.50091778  0.50714674  1
  O  O376  1  0.62216152  -0.00219616  -0.01149649  1
  O  O377  1  0.60482985  -0.00997766  0.50496543  1
  O  O378  1  0.62058703  0.51487961  -0.00368501  1
  O  O379  1  0.63059770  0.52782193  0.50285495  1
  O  O380  1  0.36697004  0.36332364  0.12770058  1
  O  O381  1  0.35613891  0.38936106  0.63777537  1
  O  O382  1  0.36311929  0.87593240  0.12978959  1
  O  O383  1  0.37562817  0.86323722  0.61284337  1
  O  O384  1  0.87673168  0.36698249  0.10914770  1
  O  O385  1  0.86857980  0.35315617  0.60312915  1
  O  O386  1  0.90839644  0.85880410  0.13886806  1
  O  O387  1  0.85758337  0.88865921  0.63260571  1
  O  O388  1  0.12075971  0.12485561  0.37459660  1
  O  O389  1  0.13896325  0.13811219  0.88186643  1
  O  O390  1  0.11272996  0.63377689  0.38113723  1
  O  O391  1  0.13470640  0.62061277  0.87937111  1
  O  O392  1  0.63807829  0.11721451  0.37424251  1
  O  O393  1  0.62711606  0.13324623  0.86683392  1
  O  O394  1  0.63246831  0.64947896  0.38822439  1
  O  O395  1  0.64997467  0.64002257  0.86953879  1
