# generated using pymatgen
data_V35Zn35O128
_symmetry_space_group_name_H-M   'P 1'
_cell_length_a   16.90849907
_cell_length_b   16.94425264
_cell_length_c   16.92058514
_cell_angle_alpha   89.79908324
_cell_angle_beta   90.20933658
_cell_angle_gamma   89.82708939
_symmetry_Int_Tables_number   1
_chemical_formula_structural   V35Zn35O128
_chemical_formula_sum   'V70 Zn70 O256'
_cell_volume   4847.69502933
_cell_formula_units_Z   2
loop_
 _symmetry_equiv_pos_site_id
 _symmetry_equiv_pos_as_xyz
  1  'x, y, z'
loop_
 _atom_site_type_symbol
 _atom_site_label
 _atom_site_symmetry_multiplicity
 _atom_site_fract_x
 _atom_site_fract_y
 _atom_site_fract_z
 _atom_site_occupancy
  V  V0  1  0.25780986  0.62286251  0.36122089  1
  V  V1  1  0.25343125  0.74966828  0.50060736  1
  V  V2  1  0.73770603  0.24799255  0.51445207  1
  V  V3  1  0.25210801  0.25601497  0.50121605  1
  V  V4  1  0.61911622  0.26179679  0.38032650  1
  V  V5  1  0.50786521  0.48991938  0.50844305  1
  V  V6  1  0.62896626  0.75446610  0.85868015  1
  V  V7  1  0.48756835  0.03478086  0.49843645  1
  V  V8  1  0.25440431  -0.00408004  0.25373915  1
  V  V9  1  0.51438019  0.11452123  0.12344023  1
  V  V10  1  0.13379208  0.49670500  0.63821166  1
  V  V11  1  0.63052046  0.00804391  0.60872959  1
  V  V12  1  0.87933168  0.24465768  0.12270355  1
  V  V13  1  0.01118445  -0.01593683  -0.03114204  1
  V  V14  1  0.75645397  0.37240313  0.14759011  1
  V  V15  1  0.24884540  0.24544973  0.00027371  1
  V  V16  1  0.23406852  -0.00306179  0.75046817  1
  V  V17  1  0.11897395  0.86975740  0.25042147  1
  V  V18  1  0.37708084  0.88752584  0.49496898  1
  V  V19  1  0.87387374  0.60975021  0.75477290  1
  V  V20  1  0.51632929  0.23408844  0.75192665  1
  V  V21  1  0.37325335  0.12089687  0.25626443  1
  V  V22  1  0.25102290  0.12150876  0.37674988  1
  V  V23  1  0.12086378  0.25605356  0.37194445  1
  V  V24  1  0.74712800  0.74109853  -0.00243999  1
  V  V25  1  -0.00358381  0.50250390  0.49963130  1
  V  V26  1  0.74813622  -0.01440539  0.77190713  1
  V  V27  1  0.01860995  0.60978425  0.11091382  1
  V  V28  1  0.88770125  0.85888998  -0.01710760  1
  V  V29  1  0.11435034  0.11604623  0.50665306  1
  V  V30  1  0.50444780  0.36557323  0.88135466  1
  V  V31  1  0.11338773  0.23914595  0.86648963  1
  V  V32  1  0.37365776  0.24569968  0.12721117  1
  V  V33  1  -0.02343112  0.40458361  0.87906732  1
  V  V34  1  0.63817635  0.64898699  0.50990046  1
  V  V35  1  0.50600654  0.50859137  0.00741511  1
  V  V36  1  0.13044010  0.62096547  0.50065394  1
  V  V37  1  -0.00902249  0.23201320  0.25529187  1
  V  V38  1  0.40063895  0.62607112  0.24965876  1
  V  V39  1  0.75578852  0.12996651  0.36958444  1
  V  V40  1  0.24611235  0.73088260  -0.00880915  1
  V  V41  1  0.88222612  0.73966328  0.12624485  1
  V  V42  1  0.73631792  0.40525676  0.62692669  1
  V  V43  1  0.00096234  0.73759024  0.24927373  1
  V  V44  1  0.38315582  0.74202248  0.62448274  1
  V  V45  1  -0.01077610  0.38360265  0.36971649  1
  V  V46  1  0.37696979  0.24310013  0.62681423  1
  V  V47  1  0.50160821  0.87176383  0.36854080  1
  V  V48  1  0.13237664  0.37018296  0.76074454  1
  V  V49  1  0.37701432  0.37360784  -0.00310056  1
  V  V50  1  0.25391109  0.37345442  0.62758523  1
  V  V51  1  0.49528617  0.87792286  0.87648401  1
  V  V52  1  0.62288385  0.50863881  0.13845251  1
  V  V53  1  0.86678122  0.75897202  0.63342109  1
  V  V54  1  0.75903600  0.51923366  0.26540041  1
  V  V55  1  0.50119270  0.26368992  0.25798390  1
  V  V56  1  0.88546773  0.36650118  0.53080043  1
  V  V57  1  0.12561017  0.75189534  0.37569380  1
  V  V58  1  0.73959415  0.60875695  0.86506113  1
  V  V59  1  0.24451125  0.88005426  0.63284037  1
  V  V60  1  0.25439223  0.11847384  0.87640134  1
  V  V61  1  0.23742056  0.38455947  0.12808327  1
  V  V62  1  0.49974191  0.74692658  0.73975842  1
  V  V63  1  0.00505217  0.63585039  0.63761014  1
  V  V64  1  0.38861263  0.74742635  0.12586353  1
  V  V65  1  0.37673069  0.11369787  0.74962769  1
  V  V66  1  0.11907816  0.11905958  0.00449477  1
  V  V67  1  0.10935285  -0.00364643  0.12702963  1
  V  V68  1  0.25849820  0.87236828  0.11471826  1
  V  V69  1  0.62226039  0.40517819  0.75630970  1
  Zn  Zn70  1  0.87221681  0.12661233  0.77965724  1
  Zn  Zn71  1  0.37671431  -0.00805970  0.89117155  1
  Zn  Zn72  1  0.38467507  0.48317626  0.37506916  1
  Zn  Zn73  1  0.83809027  0.03420914  0.91481143  1
  Zn  Zn74  1  -0.08648785  0.22489592  0.66074599  1
  Zn  Zn75  1  0.73493464  1.01384314  0.23290470  1
  Zn  Zn76  1  0.18125014  0.18813651  0.18857003  1
  Zn  Zn77  1  0.18464542  0.18093095  0.68563533  1
  Zn  Zn78  1  0.19054193  0.68562651  0.18037056  1
  Zn  Zn79  1  0.18213668  0.70001234  0.67730334  1
  Zn  Zn80  1  0.68944625  0.19279824  0.19351291  1
  Zn  Zn81  1  0.71103189  0.17669673  0.69580474  1
  Zn  Zn82  1  0.68444409  0.68939320  0.18633811  1
  Zn  Zn83  1  0.69073296  0.68421963  0.68203958  1
  Zn  Zn84  1  0.30269636  0.31130079  0.30652251  1
  Zn  Zn85  1  0.31714105  0.30563031  0.81264938  1
  Zn  Zn86  1  0.31942417  0.81140593  0.30883152  1
  Zn  Zn87  1  0.31839659  0.80949963  0.81224252  1
  Zn  Zn88  1  0.81627093  0.31183294  0.32493875  1
  Zn  Zn89  1  0.81508246  0.32438875  0.78863241  1
  Zn  Zn90  1  0.63032863  0.88339210  0.26994609  1
  Zn  Zn91  1  0.81892991  0.79978622  0.80214748  1
  Zn  Zn92  1  0.17537128  0.45462359  0.39290063  1
  Zn  Zn93  1  0.15131186  0.41477268  0.97449366  1
  Zn  Zn94  1  0.18490381  0.93550493  0.43991422  1
  Zn  Zn95  1  0.18856997  0.92794824  0.92801359  1
  Zn  Zn96  1  0.68650532  0.44148416  0.43854489  1
  Zn  Zn97  1  0.67774592  0.43430461  0.94372116  1
  Zn  Zn98  1  0.65405607  0.97813064  0.40787214  1
  Zn  Zn99  1  0.68423934  0.92388386  0.94957772  1
  Zn  Zn100  1  0.30942505  0.06032192  0.06955913  1
  Zn  Zn101  1  0.30610255  0.06445004  0.56431666  1
  Zn  Zn102  1  0.31867981  0.56139017  0.06513806  1
  Zn  Zn103  1  0.32172650  0.55421874  0.55934015  1
  Zn  Zn104  1  0.89196130  0.02938993  0.11336749  1
  Zn  Zn105  1  0.81020161  0.05987061  0.59723483  1
  Zn  Zn106  1  0.80483884  0.56100500  0.07168865  1
  Zn  Zn107  1  0.81652233  0.56946349  0.55988036  1
  Zn  Zn108  1  0.42527509  0.44235653  0.18671122  1
  Zn  Zn109  1  0.45234220  0.42191764  0.67446964  1
  Zn  Zn110  1  0.44865841  0.93952357  0.06081473  1
  Zn  Zn111  1  0.46895173  0.92517788  0.66967939  1
  Zn  Zn112  1  0.93073126  0.44793811  0.18664916  1
  Zn  Zn113  1  0.95086280  0.42517082  0.68545239  1
  Zn  Zn114  1  0.76764393  0.88427120  0.13794222  1
  Zn  Zn115  1  0.92930707  0.94238776  0.73728779  1
  Zn  Zn116  1  0.07105123  0.06606811  0.31153112  1
  Zn  Zn117  1  0.01059132  0.07858454  0.65965489  1
  Zn  Zn118  1  0.06296269  0.55951392  0.30395319  1
  Zn  Zn119  1  0.07256447  0.55906366  0.93530735  1
  Zn  Zn120  1  0.55281456  0.07375142  0.32284264  1
  Zn  Zn121  1  0.57073178  0.05174067  0.80946943  1
  Zn  Zn122  1  0.56959724  0.55270427  0.32964239  1
  Zn  Zn123  1  0.52968404  0.57436081  0.82903571  1
  Zn  Zn124  1  0.43164975  0.31860980  0.44145879  1
  Zn  Zn125  1  0.44372456  0.18300710  0.93800003  1
  Zn  Zn126  1  0.44959742  0.68370404  0.43737705  1
  Zn  Zn127  1  0.42631957  0.68889221  0.93901278  1
  Zn  Zn128  1  0.90859456  0.15676556  0.48360113  1
  Zn  Zn129  1  0.93473860  0.18761480  0.94683916  1
  Zn  Zn130  1  0.95736259  0.71854355  0.46121663  1
  Zn  Zn131  1  0.91096299  0.64433094  0.95856681  1
  Zn  Zn132  1  0.04753875  0.31091623  0.06108739  1
  Zn  Zn133  1  0.06744282  0.31376848  0.55975642  1
  Zn  Zn134  1  0.06914723  0.80468579  0.05980249  1
  Zn  Zn135  1  0.02803245  0.86467088  0.62043702  1
  Zn  Zn136  1  0.55374103  0.33069436  0.09124122  1
  Zn  Zn137  1  0.56608260  0.31197291  0.57452821  1
  Zn  Zn138  1  0.56793597  0.80116583  0.05468118  1
  Zn  Zn139  1  0.57829617  0.82960432  0.55524782  1
  O  O140  1  0.13097567  0.11183072  0.11303265  1
  O  O141  1  0.11214364  0.12928665  0.61271342  1
  O  O142  1  0.11828034  0.62061339  0.12219534  1
  O  O143  1  0.12382369  0.61752705  0.62205104  1
  O  O144  1  0.61354268  0.13114196  0.13622242  1
  O  O145  1  0.62902404  0.10457958  0.63982351  1
  O  O146  1  0.62389009  0.60749001  0.12658231  1
  O  O147  1  0.62482998  0.63004279  0.61092914  1
  O  O148  1  0.35657521  0.37331812  0.37849355  1
  O  O149  1  0.38576292  0.36384728  0.88779509  1
  O  O150  1  0.37080801  0.87574243  0.39013698  1
  O  O151  1  0.39155768  0.86943601  0.87993369  1
  O  O152  1  0.88878083  0.37185534  0.39520833  1
  O  O153  1  0.88202397  0.36944291  0.86585928  1
  O  O154  1  0.82768291  0.86926191  0.37911592  1
  O  O155  1  0.88243159  0.85894087  0.88355305  1
  O  O156  1  0.23866652  0.00900155  0.36381443  1
  O  O157  1  0.25425061  0.00364493  0.86883943  1
  O  O158  1  0.26619393  0.52477106  0.39186296  1
  O  O159  1  0.33445824  0.49449140  0.80090350  1
  O  O160  1  0.75280133  0.03337552  0.40074624  1
  O  O161  1  0.73522106  -0.00443685  0.87693547  1
  O  O162  1  0.74610956  0.49981141  0.36370510  1
  O  O163  1  0.73244509  0.51169657  0.87578065  1
  O  O164  1  0.25981573  0.48153569  0.12328352  1
  O  O165  1  0.24599877  0.48533258  0.61541047  1
  O  O166  1  0.23946180  0.98732562  0.13407142  1
  O  O167  1  0.25157070  0.98642223  0.63241158  1
  O  O168  1  0.73963653  0.49554382  0.14240168  1
  O  O169  1  0.74012093  0.50258953  0.62415707  1
  O  O170  1  0.78694658  0.99846004  0.13185246  1
  O  O171  1  0.72742063  0.98364403  0.59026561  1
  O  O172  1  -0.00983150  0.39063910  0.26955087  1
  O  O173  1  0.02020403  0.38662351  0.77746220  1
  O  O174  1  0.01741969  0.85263380  0.24432876  1
  O  O175  1  0.01138853  0.96772016  0.66809093  1
  O  O176  1  0.48571598  0.36079974  0.24561546  1
  O  O177  1  0.51201324  0.36410238  0.75957832  1
  O  O178  1  0.50541861  0.88600023  0.27012983  1
  O  O179  1  0.49793133  0.86133147  0.76483807  1
  O  O180  1  0.48705051  0.13501974  0.24664485  1
  O  O181  1  0.49474928  0.13049188  0.76255725  1
  O  O182  1  0.49825934  0.62945360  0.25895352  1
  O  O183  1  0.51214776  0.64914761  0.73920022  1
  O  O184  1  0.99360857  0.13239544  0.25761869  1
  O  O185  1  0.97371760  0.15475379  0.73302628  1
  O  O186  1  1.00801491  0.63129212  0.23476676  1
  O  O187  1  0.99527949  0.61901504  0.73672342  1
  O  O188  1  0.36686196  0.25022107  0.00880407  1
  O  O189  1  0.36373943  0.24975130  0.51523146  1
  O  O190  1  0.36571561  0.74177467  0.01876009  1
  O  O191  1  0.36769197  0.75618670  0.50704871  1
  O  O192  1  0.89865370  0.26290467  0.02503279  1
  O  O193  1  0.85311078  0.26713295  0.50934468  1
  O  O194  1  0.87534075  0.75035053  -0.00695377  1
  O  O195  1  0.88401715  0.75716051  0.53112403  1
  O  O196  1  0.13083327  0.24020542  0.49425874  1
  O  O197  1  0.12994079  0.23642840  0.99411571  1
  O  O198  1  0.13656668  0.73956112  0.49187456  1
  O  O199  1  0.14586834  0.74930451  0.99974793  1
  O  O200  1  0.62679495  0.25872281  0.49112268  1
  O  O201  1  0.70967078  0.24017383  0.97835016  1
  O  O202  1  0.63706384  0.75108298  0.50777565  1
  O  O203  1  0.64418314  0.74081973  0.98860993  1
  O  O204  1  0.48995269  0.24597759  0.13988304  1
  O  O205  1  0.49144567  0.25338495  0.64490290  1
  O  O206  1  0.48693091  0.75362160  0.11985600  1
  O  O207  1  0.49155559  0.76418268  0.63048915  1
  O  O208  1  0.99413915  0.26127188  0.14819309  1
  O  O209  1  0.96488318  0.31834870  0.61428668  1
  O  O210  1  0.99841254  0.73541089  0.12619629  1
  O  O211  1  1.01844804  0.73537454  0.62971623  1
  O  O212  1  0.00324428  0.26457204  0.36211250  1
  O  O213  1  0.01546116  0.23940460  0.87870472  1
  O  O214  1  0.01470522  0.73605643  0.36607837  1
  O  O215  1  0.10555967  0.70741669  0.82826817  1
  O  O216  1  0.50514070  0.25522001  0.36759574  1
  O  O217  1  0.49921767  0.25427446  0.86275831  1
  O  O218  1  0.48690041  0.77186453  0.37780791  1
  O  O219  1  0.51490884  0.75371176  0.86569791  1
  O  O220  1  0.24138254  0.13401382  0.49452414  1
  O  O221  1  0.24233413  0.12660488  0.99521267  1
  O  O222  1  0.24671085  0.63626094  0.50337014  1
  O  O223  1  0.25472190  0.63091525  1.00276383  1
  O  O224  1  0.74934632  0.14904542  0.50856080  1
  O  O225  1  0.64587415  0.08526662  0.96848701  1
  O  O226  1  0.73822057  0.62089303  0.50020083  1
  O  O227  1  0.76712839  0.63281039  0.97709710  1
  O  O228  1  0.26147775  0.36013750  0.00439408  1
  O  O229  1  0.23814278  0.35919173  0.51504776  1
  O  O230  1  0.24960708  0.87657374  0.01464083  1
  O  O231  1  0.25578009  0.86844765  0.50842476  1
  O  O232  1  0.77222716  0.40782378  0.01235844  1
  O  O233  1  0.75167634  0.37934772  0.51905712  1
  O  O234  1  0.76565991  0.85480398  -0.00040974  1
  O  O235  1  0.78308012  0.85641413  0.43429376  1
  O  O236  1  0.14359733  0.48792570  0.28876298  1
  O  O237  1  0.13438537  0.48816763  0.73878791  1
  O  O238  1  0.12906257  0.99023181  0.24470101  1
  O  O239  1  0.13860817  1.00344563  0.75321520  1
  O  O240  1  0.62637922  0.49841538  0.24217243  1
  O  O241  1  0.60100849  0.50055510  0.76243611  1
  O  O242  1  0.63285138  1.00154650  0.28725556  1
  O  O243  1  0.64582246  0.99676340  0.74640547  1
  O  O244  1  0.35786554  0.01134800  0.24559622  1
  O  O245  1  0.37500487  0.01146680  0.75296927  1
  O  O246  1  0.38240653  0.52109610  0.25590062  1
  O  O247  1  0.37852202  0.51208520  0.74494794  1
  O  O248  1  0.92195809  -0.02297248  0.31468625  1
  O  O249  1  0.86510113  0.00373413  0.80066748  1
  O  O250  1  0.85854906  0.51312007  0.24847548  1
  O  O251  1  0.88370723  0.51250013  0.73256980  1
  O  O252  1  0.11011110  0.36106096  0.38816264  1
  O  O253  1  0.14117591  0.34508028  0.87114498  1
  O  O254  1  0.13422440  0.86039572  0.36697765  1
  O  O255  1  0.10187028  0.87192183  0.89039439  1
  O  O256  1  0.63156906  0.36082564  0.37241940  1
  O  O257  1  0.62014953  0.37195687  0.86450979  1
  O  O258  1  0.60583992  0.87462664  0.39309184  1
  O  O259  1  0.62001411  0.85760888  0.87970296  1
  O  O260  1  0.37364643  0.13395097  0.13732439  1
  O  O261  1  0.36344581  0.13476802  0.63667198  1
  O  O262  1  0.37643681  0.63372470  0.14022874  1
  O  O263  1  0.37439876  0.64394702  0.61772580  1
  O  O264  1  0.87977712  0.14511501  0.12537231  1
  O  O265  1  0.90292662  0.12165638  0.59208024  1
  O  O266  1  0.89362955  0.63084634  0.09825906  1
  O  O267  1  0.89008442  0.63483299  0.62875826  1
  O  O268  1  0.25330602  0.24614837  0.11403847  1
  O  O269  1  0.25405714  0.25239569  0.62088268  1
  O  O270  1  0.25306881  0.76137271  0.11806180  1
  O  O271  1  0.26346900  0.75926672  0.62111773  1
  O  O272  1  0.76518111  0.26229062  0.13769223  1
  O  O273  1  0.72194961  0.26311689  0.61345049  1
  O  O274  1  0.76844868  0.72507013  0.10403753  1
  O  O275  1  0.76708315  0.76076379  0.63981530  1
  O  O276  1  0.23874694  0.24323413  0.38171168  1
  O  O277  1  0.25163908  0.23569618  0.88617658  1
  O  O278  1  0.24708155  0.74222970  0.38277538  1
  O  O279  1  0.26671944  0.75112523  0.89324940  1
  O  O280  1  0.73826138  0.25240164  0.38795716  1
  O  O281  1  0.72707095  0.22758815  0.90905477  1
  O  O282  1  0.76765424  0.70918123  0.37964851  1
  O  O283  1  0.74204198  0.74475283  0.87541674  1
  O  O284  1  0.01185005  0.10005117  -0.01238691  1
  O  O285  1  0.01872587  0.12650779  0.47951842  1
  O  O286  1  0.01403579  0.62566344  0.00077585  1
  O  O287  1  0.01087937  0.62146229  0.50925606  1
  O  O288  1  0.49648576  0.13672270  0.02571362  1
  O  O289  1  0.47813711  0.12933476  0.48539091  1
  O  O290  1  0.49553063  0.60562660  0.00801149  1
  O  O291  1  0.52189713  0.61780787  0.49434061  1
  O  O292  1  0.49602085  0.37958217  0.51316110  1
  O  O293  1  0.49355009  0.35780073  0.99664864  1
  O  O294  1  0.47942939  0.87753946  0.49971757  1
  O  O295  1  0.50980852  0.87250099  0.98791891  1
  O  O296  1  0.99935706  0.38677820  0.49202879  1
  O  O297  1  1.02090610  0.37677615  0.96940688  1
  O  O298  1  0.99756068  0.88638179  0.50513529  1
  O  O299  1  0.99517142  0.87356227  1.00059656  1
  O  O300  1  0.50079491  0.48775575  0.39099838  1
  O  O301  1  0.50785300  0.47757034  0.90041246  1
  O  O302  1  0.49344488  0.99539292  0.39415854  1
  O  O303  1  0.50099233  0.98046421  0.86748596  1
  O  O304  1  1.00177830  0.49588332  0.38890690  1
  O  O305  1  0.97678755  0.50410255  0.88509181  1
  O  O306  1  0.97913650  0.99304678  0.35930014  1
  O  O307  1  1.01125303  0.98633394  0.87363139  1
  O  O308  1  0.00824816  -0.00109062  0.12528121  1
  O  O309  1  -0.04813691  -0.04509877  0.50384822  1
  O  O310  1  0.00093327  0.51162219  0.12332855  1
  O  O311  1  0.01851768  0.50418924  0.61669025  1
  O  O312  1  0.50022113  0.01500522  0.13148383  1
  O  O313  1  0.48343365  0.01960414  0.60400039  1
  O  O314  1  0.51438728  0.47805490  0.11906899  1
  O  O315  1  0.48960324  0.50400872  0.61065533  1
  O  O316  1  0.23705734  0.35764402  0.22504404  1
  O  O317  1  0.24214359  0.36354677  0.74313210  1
  O  O318  1  0.24289310  0.87873167  0.24389903  1
  O  O319  1  0.26021700  0.88037136  0.73948628  1
  O  O320  1  0.75414898  0.38365731  0.24933551  1
  O  O321  1  0.72951134  0.39117919  0.74615826  1
  O  O322  1  0.74488794  0.89666943  0.25097867  1
  O  O323  1  0.76745936  0.88966140  0.74986962  1
  O  O324  1  0.25017426  0.11789920  0.25550080  1
  O  O325  1  0.25525002  0.11601182  0.75798654  1
  O  O326  1  0.24892450  0.62581234  0.26139470  1
  O  O327  1  0.25960620  0.64008604  0.75442453  1
  O  O328  1  0.75443732  0.12641430  0.26358345  1
  O  O329  1  0.77554026  0.07774826  0.71316816  1
  O  O330  1  0.73833418  0.61880908  0.25433114  1
  O  O331  1  0.75942907  0.62038982  0.75598752  1
  O  O332  1  0.35623231  0.13186175  0.36371866  1
  O  O333  1  0.36601838  0.12273526  0.87043200  1
  O  O334  1  0.36733203  0.64154002  0.35985953  1
  O  O335  1  0.42648622  0.61369516  0.86061895  1
  O  O336  1  0.85544175  0.14953905  0.38536705  1
  O  O337  1  0.84998476  0.14267649  0.89290502  1
  O  O338  1  0.83617572  0.68623464  0.37359622  1
  O  O339  1  0.86233956  0.61639851  0.86029515  1
  O  O340  1  0.13874158  0.37873019  0.09039718  1
  O  O341  1  0.13342986  0.37686361  0.63802067  1
  O  O342  1  0.13352228  0.87838974  0.13222699  1
  O  O343  1  0.14665471  0.85962106  0.62771389  1
  O  O344  1  0.65147643  0.37618529  0.11671835  1
  O  O345  1  0.62511330  0.38391554  0.64651246  1
  O  O346  1  0.65104032  0.83879369  0.12640670  1
  O  O347  1  0.58596663  0.91043012  0.63168407  1
  O  O348  1  0.11018891  0.24250598  0.26109932  1
  O  O349  1  0.12689185  0.25025524  0.76048822  1
  O  O350  1  0.12462214  0.75044640  0.25698472  1
  O  O351  1  0.12787814  0.75216064  0.77287119  1
  O  O352  1  0.60646197  0.25365218  0.25713540  1
  O  O353  1  0.61558748  0.23358823  0.74931886  1
  O  O354  1  0.62994538  0.78947884  0.19674028  1
  O  O355  1  0.62285017  0.75510257  0.75460535  1
  O  O356  1  0.37727913  0.24097638  0.24452892  1
  O  O357  1  0.38098661  0.23452033  0.74591942  1
  O  O358  1  0.37152977  0.74042425  0.23603163  1
  O  O359  1  0.38658178  0.75188464  0.73558073  1
  O  O360  1  0.88803838  0.25568776  0.25001078  1
  O  O361  1  0.81794803  0.22823672  0.73463729  1
  O  O362  1  0.88635415  0.74073428  0.22823546  1
  O  O363  1  0.88056105  0.72288939  0.74395575  1
  O  O364  1  0.39766202  0.51685261  0.48881916  1
  O  O365  1  0.39287796  0.48055759  1.01664937  1
  O  O366  1  0.37115119  0.99275100  0.49977913  1
  O  O367  1  0.37454267  1.00154664  1.00321167  1
  O  O368  1  0.89041703  0.48606391  0.52128225  1
  O  O369  1  0.82830807  0.46359899  1.00377100  1
  O  O370  1  0.87936474  0.94905035  0.52499295  1
  O  O371  1  0.89831591  0.97965636  0.99626498  1
  O  O372  1  0.11863232  -0.00166567  0.00634099  1
  O  O373  1  0.13112440  0.01661680  0.49691036  1
  O  O374  1  0.16394126  0.50754118  -0.08090588  1
  O  O375  1  0.12241439  0.51299745  0.50005267  1
  O  O376  1  0.62110486  0.01407964  -0.00450034  1
  O  O377  1  0.59974799  0.01810815  0.50392714  1
  O  O378  1  0.61403313  0.49523062  0.01627566  1
  O  O379  1  0.61193929  0.49393519  0.50461361  1
  O  O380  1  0.36441112  0.35987260  0.11961444  1
  O  O381  1  0.36269470  0.35813850  0.64028438  1
  O  O382  1  0.36392638  0.86380046  0.12723066  1
  O  O383  1  0.36761358  0.86745437  0.61172934  1
  O  O384  1  0.86232661  0.37240549  0.13308332  1
  O  O385  1  0.84226841  0.38288532  0.63846666  1
  O  O386  1  0.87681260  0.84386004  0.10602838  1
  O  O387  1  0.90959720  0.84893312  0.66486129  1
  O  O388  1  0.13441383  0.13385378  0.38039723  1
  O  O389  1  0.14002761  0.13130227  0.88416625  1
  O  O390  1  0.14095517  0.63319230  0.38283808  1
  O  O391  1  0.23158130  0.60871217  0.81543818  1
  O  O392  1  0.63700362  0.14987540  0.37230250  1
  O  O393  1  0.60914115  0.11562507  0.90519650  1
  O  O394  1  0.60952900  0.63013818  0.40177886  1
  O  O395  1  0.63477070  0.63755506  0.86538466  1
