# generated using pymatgen
data_V35Zn35O128
_symmetry_space_group_name_H-M   'P 1'
_cell_length_a   16.87099109
_cell_length_b   16.86879237
_cell_length_c   16.88675302
_cell_angle_alpha   89.82183964
_cell_angle_beta   90.01718059
_cell_angle_gamma   90.05350585
_symmetry_Int_Tables_number   1
_chemical_formula_structural   V35Zn35O128
_chemical_formula_sum   'V70 Zn70 O256'
_cell_volume   4805.83031336
_cell_formula_units_Z   2
loop_
 _symmetry_equiv_pos_site_id
 _symmetry_equiv_pos_as_xyz
  1  'x, y, z'
loop_
 _atom_site_type_symbol
 _atom_site_label
 _atom_site_symmetry_multiplicity
 _atom_site_fract_x
 _atom_site_fract_y
 _atom_site_fract_z
 _atom_site_occupancy
  V  V0  1  0.88064089  0.74996125  0.61444691  1
  V  V1  1  0.75371129  0.86612271  0.60613474  1
  V  V2  1  0.24440434  0.63610415  0.87204768  1
  V  V3  1  0.13853841  0.51918445  0.65268028  1
  V  V4  1  0.75372745  0.13389083  0.37852031  1
  V  V5  1  0.61485543  0.24880899  0.87835261  1
  V  V6  1  0.86885117  0.48987561  0.88204447  1
  V  V7  1  0.49423521  0.75466670  0.23986590  1
  V  V8  1  0.00383682  -0.00223678  -0.00605692  1
  V  V9  1  -0.00051378  0.74818978  0.24853200  1
  V  V10  1  0.49604628  0.50165365  0.01156885  1
  V  V11  1  0.51037134  -0.00576587  0.01281816  1
  V  V12  1  0.22708391  0.26028909  0.50315531  1
  V  V13  1  0.27227256  0.76378140  -0.00681204  1
  V  V14  1  0.86894080  -0.00567457  0.37742107  1
  V  V15  1  0.02435952  0.50974009  0.50188722  1
  V  V16  1  0.38795622  0.25204873  0.63539446  1
  V  V17  1  0.74592716  0.49513202  0.74917959  1
  V  V18  1  0.12231597  0.87085589  0.24717849  1
  V  V19  1  0.89014309  0.12837145  0.74170204  1
  V  V20  1  0.87728228  -0.01236169  0.87495084  1
  V  V21  1  0.76314070  0.25133572  -0.00198197  1
  V  V22  1  0.86323342  0.86905823  0.02474148  1
  V  V23  1  0.18586802  0.19797355  0.88448339  1
  V  V24  1  0.49420057  0.37320784  0.88184593  1
  V  V25  1  0.62577790  0.75081827  0.38257409  1
  V  V26  1  0.62083034  0.63609446  0.00664184  1
  V  V27  1  0.36934135  0.49717461  0.87322599  1
  V  V28  1  0.11674223  0.01152477  0.62112929  1
  V  V29  1  0.38388615  -0.00140926  0.88938662  1
  V  V30  1  0.86996408  0.49329615  0.38716442  1
  V  V31  1  0.51239399  0.24762614  0.23834122  1
  V  V32  1  0.37401173  0.75047079  0.61507254  1
  V  V33  1  0.61828439  0.37836511  0.75057120  1
  V  V34  1  -0.00501964  0.01947511  0.50329236  1
  V  V35  1  0.73923737  0.63819908  0.88119097  1
  V  V36  1  0.62118300  0.12018347  0.00895664  1
  V  V37  1  0.62606366  0.12641961  0.50043801  1
  V  V38  1  0.74143221  0.49537155  0.24292745  1
  V  V39  1  0.51406090  0.75525286  0.75237795  1
  V  V40  1  0.24552606  0.87444889  0.60805912  1
  V  V41  1  0.00265108  0.49309683  0.00557685  1
  V  V42  1  0.00679304  0.36987420  0.85232412  1
  V  V43  1  0.75677291  0.37063195  0.11615308  1
  V  V44  1  -0.02274789  0.13242693  0.12659992  1
  V  V45  1  -0.00390294  0.30793305  0.28648896  1
  V  V46  1  0.62167691  -0.01156967  0.62635428  1
  V  V47  1  0.37188383  0.63405753  0.21355815  1
  V  V48  1  0.87710923  0.62713441  0.75432694  1
  V  V49  1  0.86614952  0.62944386  0.24547316  1
  V  V50  1  0.11933735  0.64348801  -0.00045950  1
  V  V51  1  0.75275844  -0.00441577  0.23836397  1
  V  V52  1  0.25601467  0.86709927  0.12339619  1
  V  V53  1  0.37275532  0.62734398  0.75078212  1
  V  V54  1  0.12299683  0.87532429  0.76061346  1
  V  V55  1  0.23253294  0.71847454  0.49415238  1
  V  V56  1  -0.00021354  0.75600407  0.76598698  1
  V  V57  1  0.12879505  0.00797273  0.12596167  1
  V  V58  1  0.74868288  -0.01506218  0.75029999  1
  V  V59  1  0.00189751  0.86499725  0.38794594  1
  V  V60  1  0.26401825  0.00506825  0.74923786  1
  V  V61  1  0.21113091  0.13545527  0.38406135  1
  V  V62  1  0.48985549  -0.01004307  0.48650793  1
  V  V63  1  0.74978191  0.12214046  0.86637090  1
  V  V64  1  0.23925266  0.37688380  0.64375657  1
  V  V65  1  0.62569499  0.87808875  0.24028567  1
  V  V66  1  0.39053450  0.36774788  0.49452787  1
  V  V67  1  -0.00214187  0.63123744  0.12186026  1
  V  V68  1  0.38218021  0.51925194  0.38506649  1
  V  V69  1  0.50770066  0.61669980  0.61517450  1
  Zn  Zn70  1  0.51305317  0.87126454  0.87389801  1
  Zn  Zn71  1  0.61781202  0.50068984  0.12805388  1
  Zn  Zn72  1  0.74722805  0.63435037  0.38143359  1
  Zn  Zn73  1  0.48097636  0.11428373  0.64526725  1
  Zn  Zn74  1  0.62358034  0.49612089  0.59847937  1
  Zn  Zn75  1  0.33373206  0.07140670  0.30050050  1
  Zn  Zn76  1  0.14934172  0.18762602  0.21202897  1
  Zn  Zn77  1  0.18688081  0.19312034  0.69443830  1
  Zn  Zn78  1  0.16474109  0.64491603  0.21876569  1
  Zn  Zn79  1  0.18875286  0.69953303  0.69171641  1
  Zn  Zn80  1  0.70506456  0.17929407  0.18683670  1
  Zn  Zn81  1  0.64254310  0.18185410  0.69018887  1
  Zn  Zn82  1  0.68364758  0.69723454  0.18229933  1
  Zn  Zn83  1  0.69099287  0.68408158  0.68404033  1
  Zn  Zn84  1  0.33735076  0.26198328  0.33783936  1
  Zn  Zn85  1  0.31114237  0.30303007  0.81671094  1
  Zn  Zn86  1  0.28433192  0.77057162  0.29708118  1
  Zn  Zn87  1  0.32011230  0.82134209  0.80735415  1
  Zn  Zn88  1  0.81391869  0.31501772  0.30544810  1
  Zn  Zn89  1  0.80944387  0.30771159  0.80409337  1
  Zn  Zn90  1  0.81085610  0.81469781  0.31477772  1
  Zn  Zn91  1  0.80947554  0.81039316  0.81419790  1
  Zn  Zn92  1  0.22306790  0.46211127  0.44494146  1
  Zn  Zn93  1  0.17718442  0.45022139  0.92756894  1
  Zn  Zn94  1  0.18149555  0.94916896  0.42964941  1
  Zn  Zn95  1  0.19222807  0.95233110  0.93635587  1
  Zn  Zn96  1  0.68830441  0.45698639  0.42711785  1
  Zn  Zn97  1  0.68170699  0.43999579  0.94143120  1
  Zn  Zn98  1  0.67830100  0.92998857  0.43519362  1
  Zn  Zn99  1  0.68714187  0.92733019  0.93914001  1
  Zn  Zn100  1  0.33576936  0.04124334  0.09910825  1
  Zn  Zn101  1  0.29980904  0.06687794  0.56060939  1
  Zn  Zn102  1  0.30917752  0.56932949  0.04907202  1
  Zn  Zn103  1  0.32030056  0.55657401  0.56525711  1
  Zn  Zn104  1  0.81344677  0.06139630  0.05410266  1
  Zn  Zn105  1  0.80901507  0.06267243  0.56521196  1
  Zn  Zn106  1  0.81151139  0.56991023  0.06151140  1
  Zn  Zn107  1  0.81189055  0.56630258  0.57168455  1
  Zn  Zn108  1  0.44352583  0.45399901  0.22015947  1
  Zn  Zn109  1  0.43633735  0.43496216  0.68722163  1
  Zn  Zn110  1  0.43755178  0.93998413  0.19935112  1
  Zn  Zn111  1  0.43629512  0.92702463  0.67600401  1
  Zn  Zn112  1  0.92674056  0.44132712  0.18019350  1
  Zn  Zn113  1  1.01100398  0.39194609  0.64417099  1
  Zn  Zn114  1  0.94151443  0.94488206  0.19029661  1
  Zn  Zn115  1  0.93386722  0.93537629  0.68663045  1
  Zn  Zn116  1  0.05089251  0.05768671  0.30702414  1
  Zn  Zn117  1  0.07178089  0.06511531  0.81588675  1
  Zn  Zn118  1  0.03515561  0.52219200  0.29651417  1
  Zn  Zn119  1  0.05653520  0.56677117  0.82032252  1
  Zn  Zn120  1  0.57231917  0.05881124  0.31723521  1
  Zn  Zn121  1  0.56036270  0.05979435  0.81285892  1
  Zn  Zn122  1  0.55198161  0.57438353  0.31169515  1
  Zn  Zn123  1  0.55648129  0.56579806  0.81524759  1
  Zn  Zn124  1  0.40966671  0.15270724  0.47862105  1
  Zn  Zn125  1  0.42510891  0.17620856  0.92616958  1
  Zn  Zn126  1  0.44674009  0.70098342  0.43438490  1
  Zn  Zn127  1  0.44279205  0.68714882  0.93647115  1
  Zn  Zn128  1  0.92529130  0.19128487  0.43593607  1
  Zn  Zn129  1  0.93980978  0.17800199  0.92779726  1
  Zn  Zn130  1  0.94070364  0.67749586  0.43390274  1
  Zn  Zn131  1  0.92813140  0.69245469  0.93992223  1
  Zn  Zn132  1  0.05025617  0.28157270  0.01129122  1
  Zn  Zn133  1  0.04142257  0.32489419  0.47607989  1
  Zn  Zn134  1  0.05342497  0.81779585  0.06271301  1
  Zn  Zn135  1  0.06493807  0.80356333  0.56955895  1
  Zn  Zn136  1  0.57379942  0.32121675  0.05592992  1
  Zn  Zn137  1  0.59926675  0.33218107  0.49242243  1
  Zn  Zn138  1  0.56812974  0.81802290  0.06481419  1
  Zn  Zn139  1  0.55669051  0.81251127  0.56128936  1
  O  O140  1  0.13927025  0.10813515  0.12826527  1
  O  O141  1  0.12428857  0.10955932  0.63301723  1
  O  O142  1  0.10875078  0.62791094  0.11551766  1
  O  O143  1  0.14693124  0.61608205  0.62939836  1
  O  O144  1  0.63865194  0.12712499  0.10680716  1
  O  O145  1  0.64724303  0.09438130  0.60683437  1
  O  O146  1  0.62951977  0.62067582  0.11012224  1
  O  O147  1  0.61143812  0.61790716  0.63285208  1
  O  O148  1  0.37855661  0.35620415  0.39358886  1
  O  O149  1  0.37588349  0.39056445  0.87101752  1
  O  O150  1  0.34647257  0.87924698  0.37736763  1
  O  O151  1  0.39172673  0.89315815  0.86126125  1
  O  O152  1  0.85800003  0.39462725  0.37502891  1
  O  O153  1  0.87834279  0.38764089  0.86952432  1
  O  O154  1  0.89072376  0.88398799  0.37407899  1
  O  O155  1  0.87174720  0.88600900  0.87595153  1
  O  O156  1  0.24458160  0.03393909  0.38346106  1
  O  O157  1  0.27161844  -0.01025698  0.85947529  1
  O  O158  1  0.28866162  0.48787496  0.35783307  1
  O  O159  1  0.26349151  0.51550898  0.88510651  1
  O  O160  1  0.76371169  -0.00513648  0.37820904  1
  O  O161  1  0.75690497  0.00407679  0.86897101  1
  O  O162  1  0.75447949  0.51250680  0.35530960  1
  O  O163  1  0.75903553  0.50349955  0.87766051  1
  O  O164  1  0.24972364  0.46834902  0.07995954  1
  O  O165  1  0.24395347  0.48822772  0.62199759  1
  O  O166  1  0.23326037  0.98237428  0.10969207  1
  O  O167  1  0.23669941  0.99087824  0.62645968  1
  O  O168  1  0.75301073  0.49596917  0.13194234  1
  O  O169  1  0.74465291  0.50759998  0.64809042  1
  O  O170  1  0.75674234  1.00966324  0.14105661  1
  O  O171  1  0.74925999  0.98053163  0.62888258  1
  O  O172  1  0.00512478  0.41097914  0.25988111  1
  O  O173  1  -0.00611216  0.36546806  0.75278243  1
  O  O174  1  0.00364214  0.86569789  0.25502737  1
  O  O175  1  0.00995691  0.86813057  0.74766478  1
  O  O176  1  0.49854164  0.35159947  0.23847438  1
  O  O177  1  0.50845545  0.38643446  0.77023627  1
  O  O178  1  0.51604101  0.87494228  0.24801350  1
  O  O179  1  0.50089524  0.85673256  0.73722969  1
  O  O180  1  0.52719908  0.14321365  0.23995611  1
  O  O181  1  0.54645464  0.13660717  0.73237426  1
  O  O182  1  0.48269779  0.64229287  0.24171719  1
  O  O183  1  0.48974380  0.63442527  0.74512699  1
  O  O184  1  1.00313143  0.12169177  0.22666313  1
  O  O185  1  0.99039604  0.11768268  0.75620716  1
  O  O186  1  0.98929904  0.62625213  0.24256261  1
  O  O187  1  0.98854829  0.63955481  0.75999837  1
  O  O188  1  0.36600153  0.20379853  0.03624505  1
  O  O189  1  0.36141513  0.26104432  0.51510669  1
  O  O190  1  0.37111330  0.75809264  -0.00525304  1
  O  O191  1  0.36487577  0.73985237  0.51191305  1
  O  O192  1  0.86042048  0.24187231  -0.00840641  1
  O  O193  1  0.85814014  0.25819674  0.51013420  1
  O  O194  1  0.87835935  0.77103886  0.00086723  1
  O  O195  1  0.87954284  0.73567782  0.51620512  1
  O  O196  1  0.12703766  0.26500267  0.51515763  1
  O  O197  1  0.14628261  0.24880619  0.96292939  1
  O  O198  1  0.13360472  0.73524401  0.51044762  1
  O  O199  1  0.11601474  0.74511658  0.99652041  1
  O  O200  1  0.62336530  0.22443759  0.51541386  1
  O  O201  1  0.63117783  0.24006838  0.99243092  1
  O  O202  1  0.61675631  0.75586884  0.48310166  1
  O  O203  1  0.61411995  0.73529110  0.99990170  1
  O  O204  1  0.50966626  0.25301596  0.13197047  1
  O  O205  1  0.48570694  0.25414513  0.62699569  1
  O  O206  1  0.50220233  0.76094826  0.13934853  1
  O  O207  1  0.49246473  0.73962842  0.63087265  1
  O  O208  1  1.00897984  0.22711994  0.10163115  1
  O  O209  1  0.89613592  0.26456563  0.58215632  1
  O  O210  1  0.99611580  0.74261757  0.13588537  1
  O  O211  1  0.98420483  0.75473591  0.63738817  1
  O  O212  1  -0.01084595  0.27675892  0.38931179  1
  O  O213  1  -0.00637417  0.27508345  0.89639571  1
  O  O214  1  -0.00466391  0.76056466  0.37061887  1
  O  O215  1  -0.00408951  0.75558622  0.86473242  1
  O  O216  1  0.51914304  0.25165239  0.34139613  1
  O  O217  1  0.50041466  0.25951831  0.89062338  1
  O  O218  1  0.51380870  0.75297458  0.35924468  1
  O  O219  1  0.49346593  0.75163585  0.85624108  1
  O  O220  1  0.23960909  0.14745077  0.49739565  1
  O  O221  1  0.31546695  0.15932711  1.07205926  1
  O  O222  1  0.24916132  0.61821478  0.49672221  1
  O  O223  1  0.24148055  0.64606198  0.99233087  1
  O  O224  1  0.74428288  0.11623637  0.48730168  1
  O  O225  1  0.74356813  0.13212801  0.98883416  1
  O  O226  1  0.72518632  0.61549927  0.50235103  1
  O  O227  1  0.73720755  0.62057633  0.98954133  1
  O  O228  1  0.24539554  0.41370564  0.02562717  1
  O  O229  1  0.25447601  0.36953814  0.51070273  1
  O  O230  1  0.24735592  0.86860810  0.00116192  1
  O  O231  1  0.23909904  0.88266230  0.50850066  1
  O  O232  1  0.74902644  0.36052295  0.00022440  1
  O  O233  1  0.66704893  0.41690917  0.52791199  1
  O  O234  1  0.76428371  0.88815780  0.00857850  1
  O  O235  1  0.75402207  0.87306887  0.50779424  1
  O  O236  1  0.17780056  0.46330277  0.23038288  1
  O  O237  1  0.13093599  0.51338932  0.75218358  1
  O  O238  1  0.11662603  0.98741748  0.23442491  1
  O  O239  1  0.12592051  0.98842963  0.73706946  1
  O  O240  1  0.63870641  0.51085793  0.24694875  1
  O  O241  1  0.63563578  0.49268868  0.76657545  1
  O  O242  1  0.63991980  0.98876342  0.25624576  1
  O  O243  1  0.63502251  0.99722295  0.73267674  1
  O  O244  1  0.37784636  -0.06838842  0.33567638  1
  O  O245  1  0.36298864  -0.00238488  0.72943868  1
  O  O246  1  0.36183497  0.53390855  0.22866182  1
  O  O247  1  0.38062270  0.51282778  0.76432628  1
  O  O248  1  0.86661173  -0.00329629  0.26647549  1
  O  O249  1  0.86812549  0.00371820  0.75642145  1
  O  O250  1  0.86659877  0.51227151  0.25698364  1
  O  O251  1  0.85934833  0.51072940  0.76577911  1
  O  O252  1  0.17713230  0.40358234  0.27206792  1
  O  O253  1  0.10515784  0.38831513  0.86771458  1
  O  O254  1  0.10931644  0.88658542  0.36175638  1
  O  O255  1  0.13063660  0.88639338  0.85834107  1
  O  O256  1  0.63426395  0.36719806  0.38793846  1
  O  O257  1  0.61216919  0.36770217  0.88112496  1
  O  O258  1  0.63198167  0.86148469  0.35852350  1
  O  O259  1  0.62461662  0.88260434  0.86198523  1
  O  O260  1  0.37430926  0.03369509  0.20554755  1
  O  O261  1  0.37599334  0.14264821  0.60906727  1
  O  O262  1  0.37099916  0.63913673  0.11347672  1
  O  O263  1  0.38144482  0.62790444  0.63397816  1
  O  O264  1  0.87657734  0.12826838  0.12474067  1
  O  O265  1  0.87210507  0.11538610  0.64252807  1
  O  O266  1  0.88265808  0.62303690  0.13595981  1
  O  O267  1  0.86221573  0.63932258  0.64403465  1
  O  O268  1  0.19897969  0.27831456  0.12788818  1
  O  O269  1  0.24561993  0.26371368  0.62229859  1
  O  O270  1  0.24741722  0.76318930  0.10127375  1
  O  O271  1  0.25194545  0.75862361  0.61122095  1
  O  O272  1  0.74917265  0.25898597  0.11229795  1
  O  O273  1  0.72263777  0.24467213  0.64463684  1
  O  O274  1  0.76347743  0.75006366  0.12610425  1
  O  O275  1  0.75943449  0.75988693  0.62999630  1
  O  O276  1  0.23319500  0.25542684  0.39634074  1
  O  O277  1  0.28999430  0.21945442  0.89055943  1
  O  O278  1  0.24575813  0.75124551  0.39995478  1
  O  O279  1  0.25768420  0.74943863  0.88252978  1
  O  O280  1  0.76523935  0.23277364  0.36870801  1
  O  O281  1  0.74158437  0.24352997  0.88375684  1
  O  O282  1  0.73764130  0.74871707  0.37065841  1
  O  O283  1  0.74733067  0.73701693  0.87472652  1
  O  O284  1  -0.01047296  0.10643038  0.00729135  1
  O  O285  1  -0.00629644  0.11828288  0.50112068  1
  O  O286  1  0.00015161  0.62696870  0.00448009  1
  O  O287  1  -0.00260137  0.60759585  0.50438704  1
  O  O288  1  0.51478937  0.11715218  -0.00407578  1
  O  O289  1  0.51689549  0.11006146  0.50900615  1
  O  O290  1  0.51007507  0.61372917  -0.00510714  1
  O  O291  1  0.49727542  0.62991069  0.51664823  1
  O  O292  1  0.48889952  0.36503059  0.50908556  1
  O  O293  1  0.49948821  0.38925835  0.99355742  1
  O  O294  1  0.49055182  0.88945622  0.50652292  1
  O  O295  1  0.51226603  0.89026599  0.99631137  1
  O  O296  1  0.98830686  0.40540314  0.52880371  1
  O  O297  1  1.00917396  0.39360507  1.00701662  1
  O  O298  1  1.00914975  0.87137001  0.48824643  1
  O  O299  1  0.98479237  0.89215341  1.00789304  1
  O  O300  1  0.47213856  0.49089770  0.33309288  1
  O  O301  1  0.48840479  0.49538928  0.88391758  1
  O  O302  1  0.50195367  1.00282722  0.38597709  1
  O  O303  1  0.49839841  0.99659810  0.88450375  1
  O  O304  1  0.98035776  0.49943040  0.39515128  1
  O  O305  1  0.98638630  0.49114423  0.87886284  1
  O  O306  1  0.99212229  0.99456985  0.38804544  1
  O  O307  1  0.99453411  1.00353890  0.88750198  1
  O  O308  1  0.00829973  0.01190593  0.11688262  1
  O  O309  1  0.00601065  -0.00647122  0.61328759  1
  O  O310  1  -0.00911385  0.51273677  0.11001010  1
  O  O311  1  0.03658793  0.50867040  0.61849915  1
  O  O312  1  0.50185876  -0.00452740  0.11116825  1
  O  O313  1  0.51435140  -0.00356209  0.62381262  1
  O  O314  1  0.49353180  0.49020642  0.11509790  1
  O  O315  1  0.50107554  0.51146019  0.62747328  1
  O  O316  1  0.30180390  0.33335111  0.23221507  1
  O  O317  1  0.25673442  0.37469955  0.74191024  1
  O  O318  1  0.23331535  0.85768811  0.23463494  1
  O  O319  1  0.23786513  0.88010660  0.73909347  1
  O  O320  1  0.75285980  0.38750401  0.23525710  1
  O  O321  1  0.73888893  0.38828587  0.76071327  1
  O  O322  1  0.74759642  0.88806319  0.25061956  1
  O  O323  1  0.75388794  0.88220638  0.74396105  1
  O  O324  1  0.23640524  0.15391724  0.27996994  1
  O  O325  1  0.24686374  0.10220782  0.74020189  1
  O  O326  1  0.27353921  0.66652840  0.24210502  1
  O  O327  1  0.26105316  0.63926121  0.76080239  1
  O  O328  1  0.74178870  0.10771774  0.26903408  1
  O  O329  1  0.74914606  0.11170077  0.76123158  1
  O  O330  1  0.76057030  0.61872882  0.23933799  1
  O  O331  1  0.75081104  0.61662916  0.76614748  1
  O  O332  1  0.36717740  0.15422762  0.37304475  1
  O  O333  1  0.38888077  0.09521656  0.85562186  1
  O  O334  1  0.38211187  0.61969629  0.38144469  1
  O  O335  1  0.36769877  0.62153590  0.86902070  1
  O  O336  1  0.86513665  0.10879782  0.38076283  1
  O  O337  1  0.86695718  0.11014218  0.86736826  1
  O  O338  1  0.86956013  0.61754370  0.36226775  1
  O  O339  1  0.86180178  0.62065881  0.87175750  1
  O  O340  1  0.15091268  0.33222214  0.11111407  1
  O  O341  1  0.13605610  0.38706919  0.63807837  1
  O  O342  1  0.12503846  0.87935554  0.13219746  1
  O  O343  1  0.13374517  0.87907820  0.63085407  1
  O  O344  1  0.64590477  0.38715488  0.11399440  1
  O  O345  1  0.60801942  0.37825561  0.65425538  1
  O  O346  1  0.63547597  0.87359633  0.14008025  1
  O  O347  1  0.63914997  0.87975122  0.61751835  1
  O  O348  1  0.08051823  0.26559819  0.25281976  1
  O  O349  1  0.15251619  0.23566500  0.79424134  1
  O  O350  1  0.10819756  0.75157161  0.25204719  1
  O  O351  1  0.11167661  0.76248233  0.74807534  1
  O  O352  1  0.61799142  0.25643270  0.23145735  1
  O  O353  1  0.62949141  0.26992188  0.77247655  1
  O  O354  1  0.61675503  0.76084780  0.25143410  1
  O  O355  1  0.61264766  0.74257861  0.74504296  1
  O  O356  1  0.40965752  0.22995269  0.23818010  1
  O  O357  1  0.37081420  0.24986297  0.73491245  1
  O  O358  1  0.39153526  0.76125165  0.25390694  1
  O  O359  1  0.37758160  0.74375245  0.73549217  1
  O  O360  1  0.90854058  0.27534063  0.24790053  1
  O  O361  1  0.87117042  0.22682742  0.75945327  1
  O  O362  1  0.88279040  0.73614666  0.25929469  1
  O  O363  1  0.88458945  0.74689523  0.75001961  1
  O  O364  1  0.37931167  0.48621385  0.48994539  1
  O  O365  1  0.38798191  0.51077115  0.98622748  1
  O  O366  1  0.39057282  1.01897205  0.50339326  1
  O  O367  1  0.38918741  1.00841334  0.99600314  1
  O  O368  1  0.85295179  0.50674081  0.48663368  1
  O  O369  1  0.88490672  0.50936956  0.98683954  1
  O  O370  1  0.88797811  0.99847200  0.49458798  1
  O  O371  1  0.88115463  0.99098164  0.99277117  1
  O  O372  1  0.11099243  -0.00947908  0.01041503  1
  O  O373  1  0.11034146  0.00104743  0.51141508  1
  O  O374  1  0.10525859  0.52032153  -0.00957279  1
  O  O375  1  0.12096888  0.49696896  0.47532563  1
  O  O376  1  0.62124050  0.01125962  -0.00263051  1
  O  O377  1  0.61415617  -0.00441428  0.50589650  1
  O  O378  1  0.60869257  0.50757697  0.00078901  1
  O  O379  1  0.66426024  0.56208716  0.49356488  1
  O  O380  1  0.34165461  0.37495822  0.18412179  1
  O  O381  1  0.36501865  0.37026891  0.62144670  1
  O  O382  1  0.35352345  0.88231975  0.13276952  1
  O  O383  1  0.35448908  0.86453038  0.62400355  1
  O  O384  1  0.85772739  0.38227865  0.11443216  1
  O  O385  1  0.88129819  0.32810333  0.62185934  1
  O  O386  1  0.87658575  0.87978710  0.12436632  1
  O  O387  1  0.86539298  0.86217910  0.62502903  1
  O  O388  1  0.11139331  0.12736758  0.37957598  1
  O  O389  1  0.15303794  0.09866078  0.88832799  1
  O  O390  1  0.14221675  0.55025419  0.28282753  1
  O  O391  1  0.13712854  0.62664692  0.88171326  1
  O  O392  1  0.64025116  0.11875852  0.38957115  1
  O  O393  1  0.63270303  0.13153304  0.88186652  1
  O  O394  1  0.62612754  0.64243850  0.36183948  1
  O  O395  1  0.63416446  0.62079774  0.88385509  1
