# generated using pymatgen
data_V35Zn35O128
_symmetry_space_group_name_H-M   'P 1'
_cell_length_a   16.88105649
_cell_length_b   16.85016068
_cell_length_c   16.88713938
_cell_angle_alpha   89.99492605
_cell_angle_beta   89.88391992
_cell_angle_gamma   89.73699594
_symmetry_Int_Tables_number   1
_chemical_formula_structural   V35Zn35O128
_chemical_formula_sum   'V70 Zn70 O256'
_cell_volume   4803.46122648
_cell_formula_units_Z   2
loop_
 _symmetry_equiv_pos_site_id
 _symmetry_equiv_pos_as_xyz
  1  'x, y, z'
loop_
 _atom_site_type_symbol
 _atom_site_label
 _atom_site_symmetry_multiplicity
 _atom_site_fract_x
 _atom_site_fract_y
 _atom_site_fract_z
 _atom_site_occupancy
  V  V0  1  0.50664029  0.12455285  0.62182389  1
  V  V1  1  0.10524393  0.60922783  0.47501181  1
  V  V2  1  0.37361742  0.75555949  0.12643042  1
  V  V3  1  0.24686335  0.73481997  0.49244262  1
  V  V4  1  0.50227881  0.25358636  0.26495297  1
  V  V5  1  0.36326899  0.62880528  0.25940721  1
  V  V6  1  0.00789338  0.11558620  0.63589393  1
  V  V7  1  0.38421749  0.38811747  -0.00402239  1
  V  V8  1  0.49040166  0.63144048  0.62110969  1
  V  V9  1  0.87425186  0.24220064  0.11635470  1
  V  V10  1  0.75336370  0.00200616  0.26289654  1
  V  V11  1  -0.02038094  0.88371755  0.40277298  1
  V  V12  1  0.49347379  0.25217708  0.75374596  1
  V  V13  1  0.74356912  0.10128351  0.88357351  1
  V  V14  1  0.86661784  0.09993303  0.75382423  1
  V  V15  1  0.09927291  0.50167168  0.61772277  1
  V  V16  1  0.37095116  0.88300896  -0.01483637  1
  V  V17  1  -0.01494615  0.75674103  0.25933820  1
  V  V18  1  0.62822358  0.76420210  0.38027678  1
  V  V19  1  0.00233284  0.26142446  0.76341615  1
  V  V20  1  0.12277843  0.11515951  -0.00233662  1
  V  V21  1  0.24026281  0.25220583  0.50034234  1
  V  V22  1  0.87026069  0.72807896  0.61164972  1
  V  V23  1  0.86837190  0.25219889  0.62438109  1
  V  V24  1  0.36042146  0.49771828  0.36809081  1
  V  V25  1  0.50178707  0.75573910  0.25674230  1
  V  V26  1  0.37975157  0.25058504  0.12594533  1
  V  V27  1  0.27344980  0.51048876  0.72655346  1
  V  V28  1  0.37344528  0.24828782  0.62535251  1
  V  V29  1  0.74967207  0.50479954  0.75729751  1
  V  V30  1  0.88405264  0.49994396  0.37757221  1
  V  V31  1  0.62909400  0.49042387  0.61901921  1
  V  V32  1  0.50822049  -0.00224654  0.49354050  1
  V  V33  1  0.48319302  0.74735782  0.75126326  1
  V  V34  1  0.24209158  0.88513516  0.12599177  1
  V  V35  1  -0.01750192  0.00310196  -0.00080822  1
  V  V36  1  0.12341393  0.10487735  0.50844049  1
  V  V37  1  0.00595780  0.23088069  0.24917326  1
  V  V38  1  0.24162154  0.25299591  -0.00646308  1
  V  V39  1  0.24567919  0.38239276  0.13874360  1
  V  V40  1  0.75001314  0.62386282  0.37372348  1
  V  V41  1  0.37092482  0.87653080  0.52818746  1
  V  V42  1  0.63695846  -0.00466375  0.63105578  1
  V  V43  1  -0.00178030  0.36136146  0.38388802  1
  V  V44  1  0.74780447  0.50162260  0.24685526  1
  V  V45  1  0.24799377  0.00036731  0.24922657  1
  V  V46  1  0.86775635  0.12344071  0.26551162  1
  V  V47  1  0.12096283  0.38097684  0.25350208  1
  V  V48  1  0.00475311  0.50746837  0.02892450  1
  V  V49  1  0.73776590  0.24367125  0.48117582  1
  V  V50  1  0.51191604  0.62056107  0.11941938  1
  V  V51  1  0.62889450  0.24029167  0.88228541  1
  V  V52  1  0.62806127  0.37071985  0.75002119  1
  V  V53  1  0.37806368  0.12680586  0.24615962  1
  V  V54  1  0.61888878  0.37502495  0.26559309  1
  V  V55  1  0.37787706  -0.00883761  0.37520935  1
  V  V56  1  0.73999943  0.36047484  0.12458598  1
  V  V57  1  -0.00694629  0.73238351  0.74812860  1
  V  V58  1  0.87360805  0.86117274  -0.01934615  1
  V  V59  1  0.62843637  0.62703205  0.49740481  1
  V  V60  1  0.24479981  0.12633403  0.37789860  1
  V  V61  1  0.62117822  0.88369635  0.24013208  1
  V  V62  1  0.23415013  0.73772532  -0.00405850  1
  V  V63  1  0.26187518  0.11329376  0.86653003  1
  V  V64  1  0.37749324  0.37246199  0.49571507  1
  V  V65  1  0.13242690  0.88804110  0.73924853  1
  V  V66  1  0.64073789  0.86218731  0.74817498  1
  V  V67  1  0.50243589  0.49680149  0.48493236  1
  V  V68  1  0.76914323  0.87355947  0.12320911  1
  V  V69  1  0.55969319  0.06196260  0.06050717  1
  Zn  Zn70  1  0.10748147  0.01252652  0.13635309  1
  Zn  Zn71  1  0.23265275  0.37161633  0.64336573  1
  Zn  Zn72  1  0.92841864  0.36671367  -0.06599940  1
  Zn  Zn73  1  0.49998595  0.89966297  0.87276844  1
  Zn  Zn74  1  0.86855200  0.37274529  0.50664036  1
  Zn  Zn75  1  0.01071193  0.87582262  0.86699775  1
  Zn  Zn76  1  0.19169041  0.18705246  0.18232096  1
  Zn  Zn77  1  0.18453420  0.19294524  0.69369747  1
  Zn  Zn78  1  0.17587203  0.70505046  0.18465987  1
  Zn  Zn79  1  0.18984918  0.68612093  0.66520541  1
  Zn  Zn80  1  0.67925778  0.18149192  0.18878944  1
  Zn  Zn81  1  0.68727801  0.17989306  0.68865810  1
  Zn  Zn82  1  0.69014204  0.69317586  0.18591280  1
  Zn  Zn83  1  0.70065255  0.69155297  0.67738609  1
  Zn  Zn84  1  0.31215091  0.31071917  0.31732973  1
  Zn  Zn85  1  0.31264279  0.32893559  0.81494447  1
  Zn  Zn86  1  0.30492562  0.81316887  0.31562854  1
  Zn  Zn87  1  0.29525227  0.79628015  0.80962966  1
  Zn  Zn88  1  0.81247311  0.30995438  0.31072186  1
  Zn  Zn89  1  0.80709016  0.29411150  0.79534001  1
  Zn  Zn90  1  0.81037880  0.82158435  0.32518328  1
  Zn  Zn91  1  0.85588751  0.87594103  0.76030809  1
  Zn  Zn92  1  0.18261968  0.43199444  0.43498270  1
  Zn  Zn93  1  0.19012522  0.45443957  0.97084628  1
  Zn  Zn94  1  0.19005875  0.90748615  0.43983654  1
  Zn  Zn95  1  0.18846336  0.93370279  0.92572396  1
  Zn  Zn96  1  0.69471062  0.43054208  0.44010598  1
  Zn  Zn97  1  0.73547293  0.39664119  0.91411711  1
  Zn  Zn98  1  0.68446894  1.07079210  0.43634439  1
  Zn  Zn99  1  0.67230395  0.91286084  0.94657541  1
  Zn  Zn100  1  0.32045909  0.06651518  0.05465862  1
  Zn  Zn101  1  0.32027157  0.06619184  0.55792792  1
  Zn  Zn102  1  0.31157175  0.56673676  0.07688700  1
  Zn  Zn103  1  0.31097443  0.56361734  0.55186764  1
  Zn  Zn104  1  0.79391226  0.06241162  0.07210537  1
  Zn  Zn105  1  0.81697954  0.06976701  0.56590737  1
  Zn  Zn106  1  0.84135725  0.47732838  0.06056567  1
  Zn  Zn107  1  0.81356799  0.55754223  0.55952507  1
  Zn  Zn108  1  0.43922223  0.43963546  0.18380168  1
  Zn  Zn109  1  0.44518158  0.43649849  0.67937502  1
  Zn  Zn110  1  0.43660906  0.94031690  0.18208403  1
  Zn  Zn111  1  0.44567137  0.94622385  0.70739305  1
  Zn  Zn112  1  0.93263557  0.42402715  0.19923984  1
  Zn  Zn113  1  0.93061589  0.44239923  0.69212629  1
  Zn  Zn114  1  0.94189053  0.93707488  0.19250080  1
  Zn  Zn115  1  1.00044497  0.90210673  0.62563382  1
  Zn  Zn116  1  0.07569598  0.01995423  0.33968857  1
  Zn  Zn117  1  0.07114461  0.05819802  0.81778362  1
  Zn  Zn118  1  0.08726691  0.59145577  0.27084259  1
  Zn  Zn119  1  0.10034546  0.60824161  0.77551393  1
  Zn  Zn120  1  0.55988667  0.06445653  0.30548577  1
  Zn  Zn121  1  0.55425105  0.06054169  0.81150348  1
  Zn  Zn122  1  0.56321466  0.56742746  0.30444976  1
  Zn  Zn123  1  0.60007524  0.59423031  0.78699105  1
  Zn  Zn124  1  0.43752366  0.18238103  0.43773910  1
  Zn  Zn125  1  0.43603678  0.19054527  0.94141744  1
  Zn  Zn126  1  0.43691232  0.69431761  0.44024280  1
  Zn  Zn127  1  0.46098666  0.72753769  0.95387932  1
  Zn  Zn128  1  0.94057403  0.18009134  0.44353662  1
  Zn  Zn129  1  0.93107015  0.17654089  0.93181385  1
  Zn  Zn130  1  0.93983052  0.69233607  0.42226960  1
  Zn  Zn131  1  0.95830826  0.68766241  0.93372283  1
  Zn  Zn132  1  0.06062856  0.31018038  0.06772142  1
  Zn  Zn133  1  0.05769593  0.30887443  0.57611615  1
  Zn  Zn134  1  0.05609872  0.82048237  0.06705115  1
  Zn  Zn135  1  0.06872828  0.77924139  0.56152194  1
  Zn  Zn136  1  0.56108658  0.31055342  0.06573065  1
  Zn  Zn137  1  0.56300809  0.31038607  0.55508836  1
  Zn  Zn138  1  0.56245169  0.81580687  0.06137696  1
  Zn  Zn139  1  0.56335992  0.81683966  0.56462299  1
  O  O140  1  0.13691076  0.12229416  0.10559654  1
  O  O141  1  0.11764359  0.13050445  0.62021250  1
  O  O142  1  0.12252735  0.61115386  0.16549346  1
  O  O143  1  0.12934053  0.60644412  0.59574500  1
  O  O144  1  0.62993608  0.11868915  0.11097013  1
  O  O145  1  0.61295628  0.11573356  0.62471957  1
  O  O146  1  0.61205027  0.63642296  0.12638554  1
  O  O147  1  0.61952960  0.61711759  0.60814852  1
  O  O148  1  0.37493019  0.38927832  0.37608416  1
  O  O149  1  0.37624713  0.37824082  0.89577088  1
  O  O150  1  0.37741455  0.89079579  0.37057346  1
  O  O151  1  0.35630113  0.86819702  0.88598900  1
  O  O152  1  0.88536489  0.37601024  0.37413055  1
  O  O153  1  0.83701158  0.36147124  0.87664942  1
  O  O154  1  0.87791135  0.87277973  0.39922363  1
  O  O155  1  0.87078409  0.88007588  0.88158922  1
  O  O156  1  0.25922954  0.00734160  0.36642925  1
  O  O157  1  0.25720058  0.01286250  0.87753525  1
  O  O158  1  0.26228395  0.49919997  0.37485939  1
  O  O159  1  0.21306979  0.52991598  0.87799226  1
  O  O160  1  0.74793100  -0.00154633  0.36252282  1
  O  O161  1  0.73417397  0.00323338  0.87933527  1
  O  O162  1  0.75035494  0.50472814  0.36611479  1
  O  O163  1  0.73328544  0.49543388  0.85646683  1
  O  O164  1  0.25030674  0.48139751  0.13575144  1
  O  O165  1  0.25991281  0.49241462  0.62290043  1
  O  O166  1  0.26202495  0.99368858  0.13208564  1
  O  O167  1  0.26925048  1.00825457  0.65472254  1
  O  O168  1  0.76045393  0.48538299  0.14405015  1
  O  O169  1  0.73261897  0.50272184  0.62869184  1
  O  O170  1  0.75004608  0.98412475  0.14205672  1
  O  O171  1  0.73440536  1.00753203  0.61956244  1
  O  O172  1  0.00890554  0.35827442  0.25699504  1
  O  O173  1  -0.01378303  0.36040057  0.74910690  1
  O  O174  1  -0.01270144  0.87896250  0.27735690  1
  O  O175  1  0.01390981  0.86422134  0.74580682  1
  O  O176  1  0.50900080  0.36775733  0.24781922  1
  O  O177  1  0.50994268  0.36067346  0.74215059  1
  O  O178  1  0.51229394  0.87167933  0.24849925  1
  O  O179  1  0.50682848  0.85076008  0.74109823  1
  O  O180  1  0.48684259  0.13960663  0.25350038  1
  O  O181  1  0.50163299  0.14245274  0.73224650  1
  O  O182  1  0.49660436  0.64068360  0.24143184  1
  O  O183  1  0.50869875  0.63146516  0.72893722  1
  O  O184  1  0.98545464  0.12898582  0.25192317  1
  O  O185  1  0.99420756  0.12615093  0.74787642  1
  O  O186  1  0.99312414  0.65407239  0.27607117  1
  O  O187  1  0.98354425  0.63209815  0.76825398  1
  O  O188  1  0.36551194  0.26334318  0.01018600  1
  O  O189  1  0.36795441  0.25438833  0.50457029  1
  O  O190  1  0.35874986  0.75676097  0.01457861  1
  O  O191  1  0.36986994  0.77339558  0.49264451  1
  O  O192  1  0.88553606  0.24464284  0.01638965  1
  O  O193  1  0.87092015  0.24181766  0.51412077  1
  O  O194  1  0.88219492  0.76234372  -0.01104280  1
  O  O195  1  0.88298186  0.73779062  0.51106935  1
  O  O196  1  0.13906240  0.24841291  0.50835810  1
  O  O197  1  0.13775043  0.24275716  1.00805853  1
  O  O198  1  0.13593149  0.71815694  0.49155937  1
  O  O199  1  0.13556242  0.76092610  1.01034447  1
  O  O200  1  0.63787902  0.24575402  0.50167526  1
  O  O201  1  0.61645985  0.25402553  0.98020160  1
  O  O202  1  0.61807784  0.74388167  0.48706733  1
  O  O203  1  0.63853082  0.80486228  0.98234898  1
  O  O204  1  0.48457958  0.25548824  0.13757458  1
  O  O205  1  0.49453829  0.24208686  0.62472982  1
  O  O206  1  0.49035981  0.75446658  0.13655969  1
  O  O207  1  0.50313096  0.73613482  0.62301122  1
  O  O208  1  0.98506378  0.25240350  0.14084541  1
  O  O209  1  0.98998508  0.23752822  0.63551736  1
  O  O210  1  1.00463335  0.77019347  0.15279720  1
  O  O211  1  0.98730819  0.73998971  0.63351220  1
  O  O212  1  -0.00866533  0.25375485  0.36213168  1
  O  O213  1  -0.01638450  0.25471469  0.86622782  1
  O  O214  1  0.00198399  0.77422226  0.37144522  1
  O  O215  1  -0.00608769  0.75901180  0.85633042  1
  O  O216  1  0.48839141  0.25502125  0.36388526  1
  O  O217  1  0.50925205  0.24002997  0.85707787  1
  O  O218  1  0.51390403  0.74663131  0.36589444  1
  O  O219  1  0.50294813  0.73184656  0.85078425  1
  O  O220  1  0.24223245  0.12968294  0.49965806  1
  O  O221  1  0.24898747  0.13869724  0.99260717  1
  O  O222  1  0.27028641  0.63717059  0.47574482  1
  O  O223  1  0.24358019  0.64081096  1.02604502  1
  O  O224  1  0.75587538  0.13415876  0.49787755  1
  O  O225  1  0.75317514  0.12019408  0.98189599  1
  O  O226  1  0.73726108  0.61639028  0.48668766  1
  O  O227  1  0.82683281  0.62222469  1.07096086  1
  O  O228  1  0.24966242  0.36769221  0.01869010  1
  O  O229  1  0.26305025  0.36535877  0.49163689  1
  O  O230  1  0.25643354  0.87148518  0.01172074  1
  O  O231  1  0.27223256  0.90266406  0.51786434  1
  O  O232  1  0.74405169  0.39072464  0.02662000  1
  O  O233  1  0.75407327  0.35245605  0.49748088  1
  O  O234  1  0.76968360  0.88695104  0.01226854  1
  O  O235  1  0.83970973  0.90837033  0.56113895  1
  O  O236  1  0.11602477  0.47798557  0.25366109  1
  O  O237  1  0.12660957  0.51074019  0.71826380  1
  O  O238  1  0.14388324  1.01801406  0.24690268  1
  O  O239  1  0.12875881  0.99033348  0.74350957  1
  O  O240  1  0.63311324  0.48577974  0.25320656  1
  O  O241  1  0.61683734  0.48303522  0.73933370  1
  O  O242  1  0.63224397  0.98809869  0.25613094  1
  O  O243  1  0.62230934  0.99535339  0.73314758  1
  O  O244  1  0.37121958  0.00978899  0.25571948  1
  O  O245  1  0.31281181  -0.00199373  0.71413473  1
  O  O246  1  0.37834115  0.51382788  0.25995366  1
  O  O247  1  0.37390986  0.50548238  0.73752190  1
  O  O248  1  0.86449313  0.01296704  0.24763731  1
  O  O249  1  0.87572479  0.00119959  0.74785672  1
  O  O250  1  0.85604159  0.48645581  0.26759950  1
  O  O251  1  0.84830582  0.50109034  0.74332328  1
  O  O252  1  0.11004585  0.36945294  0.36675664  1
  O  O253  1  0.12434604  0.39907953  0.86872799  1
  O  O254  1  0.09980074  0.91041381  0.37631851  1
  O  O255  1  0.12695147  0.87315354  0.85379619  1
  O  O256  1  0.62397772  0.37307779  0.36434477  1
  O  O257  1  0.63080841  0.35656683  0.85773550  1
  O  O258  1  0.63155131  0.86280100  0.37117285  1
  O  O259  1  0.61371456  0.88608680  0.84758230  1
  O  O260  1  0.36472490  0.13590011  0.13774517  1
  O  O261  1  0.38386503  0.14039082  0.62161047  1
  O  O262  1  0.37974835  0.63808594  0.14349524  1
  O  O263  1  0.39212460  0.62248150  0.61142164  1
  O  O264  1  0.86262305  0.13855443  0.13428264  1
  O  O265  1  0.88897228  0.12585908  0.63605555  1
  O  O266  1  0.87099755  0.65576538  0.11828415  1
  O  O267  1  0.86617385  0.62718766  0.62833932  1
  O  O268  1  0.26055613  0.25759414  0.11970137  1
  O  O269  1  0.25671132  0.25583053  0.62095294  1
  O  O270  1  0.25620979  0.76950306  0.13049173  1
  O  O271  1  0.24798575  0.75189281  0.59271317  1
  O  O272  1  0.75507583  0.25477537  0.12963151  1
  O  O273  1  0.76592415  0.23890069  0.62786292  1
  O  O274  1  0.74861437  0.77390540  0.13405031  1
  O  O275  1  0.76898629  0.75519756  0.61872585  1
  O  O276  1  0.25587121  0.23509745  0.38596326  1
  O  O277  1  0.25029068  0.26315370  0.89325120  1
  O  O278  1  0.23730384  0.79660933  0.40365000  1
  O  O279  1  0.25052480  0.73639423  0.89653740  1
  O  O280  1  0.74985413  0.24508413  0.38095561  1
  O  O281  1  0.73129998  0.23355351  0.86498292  1
  O  O282  1  0.73564805  0.73776520  0.36624941  1
  O  O283  1  0.77400576  0.66303174  0.90288209  1
  O  O284  1  0.01299419  0.11579497  -0.00605420  1
  O  O285  1  0.01665677  0.12762678  0.51311194  1
  O  O286  1  -0.00465834  0.60434547  -0.00606634  1
  O  O287  1  0.00619488  0.61598767  0.47949656  1
  O  O288  1  0.49711312  0.12464718  0.00747345  1
  O  O289  1  0.49519371  0.11480412  0.51163515  1
  O  O290  1  0.48901061  0.64195357  0.02204018  1
  O  O291  1  0.50869336  0.61930297  0.50154830  1
  O  O292  1  0.48851129  0.38283413  0.49887458  1
  O  O293  1  0.48271025  0.37951006  1.01696547  1
  O  O294  1  0.49062810  0.89229104  0.50779168  1
  O  O295  1  0.47743901  0.85087237  0.98049256  1
  O  O296  1  0.99650178  0.35701582  0.48506395  1
  O  O297  1  1.01295731  0.38740729  1.00237214  1
  O  O298  1  1.00796451  0.86513569  0.50314057  1
  O  O299  1  0.98474672  0.88470907  0.99682238  1
  O  O300  1  0.49897296  0.50617447  0.38240638  1
  O  O301  1  0.45558807  0.54193862  0.88123389  1
  O  O302  1  0.49445629  1.00762210  0.38837054  1
  O  O303  1  0.46657467  0.99071895  0.81218472  1
  O  O304  1  0.98410489  0.48151864  0.36932838  1
  O  O305  1  1.06459457  0.43989062  0.85378592  1
  O  O306  1  0.98143631  0.99191083  0.39196781  1
  O  O307  1  1.00593159  0.99574093  0.89409059  1
  O  O308  1  -0.00026298  -0.00651316  0.10770766  1
  O  O309  1  0.00279842  0.01774844  0.62969685  1
  O  O310  1  -0.03740818  0.50372163  0.12427314  1
  O  O311  1  -0.00132112  0.49894851  0.61914808  1
  O  O312  1  0.50415095  0.01137578  0.13088454  1
  O  O313  1  0.49950023  0.01412526  0.62033126  1
  O  O314  1  0.49800773  0.52065006  0.13106231  1
  O  O315  1  0.50872686  0.50938863  0.60850006  1
  O  O316  1  0.23394650  0.36223209  0.24916743  1
  O  O317  1  0.25045586  0.40446636  0.75602288  1
  O  O318  1  0.25769110  0.88817933  0.23758208  1
  O  O319  1  0.23034728  0.85524786  0.73991594  1
  O  O320  1  0.73522505  0.37646346  0.24808450  1
  O  O321  1  0.73216144  0.38129137  0.74002370  1
  O  O322  1  0.74319697  0.88498590  0.24830200  1
  O  O323  1  0.73929176  0.87267774  0.75191317  1
  O  O324  1  0.25944716  0.12369679  0.25935733  1
  O  O325  1  0.24506787  0.13709741  0.76884637  1
  O  O326  1  0.26611259  0.64223501  0.25581058  1
  O  O327  1  0.24698998  0.60983251  0.73868741  1
  O  O328  1  0.75522949  0.11365717  0.24935923  1
  O  O329  1  0.76241793  0.11625466  0.75165991  1
  O  O330  1  0.73922550  0.60879180  0.25521396  1
  O  O331  1  0.71261564  0.60681187  0.75327326  1
  O  O332  1  0.36602782  0.11593859  0.36969117  1
  O  O333  1  0.35993730  0.13717973  0.87884438  1
  O  O334  1  0.38393853  0.61756126  0.36513697  1
  O  O335  1  0.39536848  0.58290286  0.88075538  1
  O  O336  1  0.87407267  0.12676295  0.36445321  1
  O  O337  1  0.85939264  0.11851589  0.86206783  1
  O  O338  1  0.86267664  0.60920484  0.37854725  1
  O  O339  1  0.83812265  0.63454607  0.88243336  1
  O  O340  1  0.13510673  0.36270564  0.14287265  1
  O  O341  1  0.12476033  0.39322253  0.61037351  1
  O  O342  1  0.14168376  0.89166921  0.11973048  1
  O  O343  1  0.11277838  0.86483355  0.63388293  1
  O  O344  1  0.63493575  0.36309083  0.13922681  1
  O  O345  1  0.61633794  0.38305291  0.62839031  1
  O  O346  1  0.62963175  0.87599476  0.14015735  1
  O  O347  1  0.62420564  0.88686666  0.63154291  1
  O  O348  1  0.10859963  0.23920996  0.24730355  1
  O  O349  1  0.10275487  0.25075620  0.75021490  1
  O  O350  1  0.10321222  0.77389353  0.23931564  1
  O  O351  1  0.10702395  0.72189427  0.73875882  1
  O  O352  1  0.60864787  0.25545130  0.25042330  1
  O  O353  1  0.61587746  0.25698032  0.74404829  1
  O  O354  1  0.61972795  0.76241649  0.25880342  1
  O  O355  1  0.62608240  0.75868938  0.73882962  1
  O  O356  1  0.38051101  0.24626445  0.24709059  1
  O  O357  1  0.38694947  0.26462445  0.74188950  1
  O  O358  1  0.38153319  0.74796954  0.25225324  1
  O  O359  1  0.38364445  0.74923089  0.74885992  1
  O  O360  1  0.87843421  0.23618892  0.24637669  1
  O  O361  1  0.88263752  0.23289629  0.73779013  1
  O  O362  1  0.88203471  0.76312355  0.25822951  1
  O  O363  1  0.88706676  0.76408926  0.73309124  1
  O  O364  1  0.38187352  0.49372525  0.48439508  1
  O  O365  1  0.35956926  0.48635364  1.01241855  1
  O  O366  1  0.38698525  0.99536693  0.49504104  1
  O  O367  1  0.37625810  0.98235859  1.00076819  1
  O  O368  1  0.86312712  0.48796761  0.48221924  1
  O  O369  1  0.90693207  0.48270543  0.97193617  1
  O  O370  1  0.87524409  0.97131106  0.53105229  1
  O  O371  1  0.88277531  1.00819100  1.00253577  1
  O  O372  1  0.12803035  0.00989889  0.00114673  1
  O  O373  1  0.13468597  0.00861559  0.51502824  1
  O  O374  1  0.10780274  0.49946066  0.02976571  1
  O  O375  1  0.12479583  0.50265487  0.50053682  1
  O  O376  1  0.60350634  -0.00583066  -0.00359091  1
  O  O377  1  0.61180051  0.00013527  0.50941856  1
  O  O378  1  0.61239448  0.54656705  -0.04616992  1
  O  O379  1  0.62020437  0.50236560  0.50044854  1
  O  O380  1  0.36084381  0.36882293  0.13203992  1
  O  O381  1  0.37794464  0.36388667  0.61066128  1
  O  O382  1  0.37037109  0.86925651  0.11849166  1
  O  O383  1  0.38507518  0.88207711  0.62611542  1
  O  O384  1  0.85746870  0.35711069  0.13697573  1
  O  O385  1  0.87996664  0.35610033  0.62507631  1
  O  O386  1  0.87137995  0.87573915  0.11975133  1
  O  O387  1  0.88268264  0.87362531  0.62336824  1
  O  O388  1  0.13562135  0.11229486  0.39430103  1
  O  O389  1  0.14030388  0.12489746  0.89141694  1
  O  O390  1  0.12933281  0.60290530  0.37687330  1
  O  O391  1  0.15559339  0.58255217  0.88073668  1
  O  O392  1  0.62082350  0.13018235  0.36837023  1
  O  O393  1  0.63014944  0.12905791  0.86394910  1
  O  O394  1  0.63079581  0.62939609  0.37999875  1
  O  O395  1  0.61243144  0.60742439  0.91116983  1
