# generated using pymatgen
data_V35Zn35O128
_symmetry_space_group_name_H-M   'P 1'
_cell_length_a   16.88587721
_cell_length_b   16.86445181
_cell_length_c   16.88608569
_cell_angle_alpha   90.09613684
_cell_angle_beta   90.00392666
_cell_angle_gamma   90.15043522
_symmetry_Int_Tables_number   1
_chemical_formula_structural   V35Zn35O128
_chemical_formula_sum   'V70 Zn70 O256'
_cell_volume   4808.64520641
_cell_formula_units_Z   2
loop_
 _symmetry_equiv_pos_site_id
 _symmetry_equiv_pos_as_xyz
  1  'x, y, z'
loop_
 _atom_site_type_symbol
 _atom_site_label
 _atom_site_symmetry_multiplicity
 _atom_site_fract_x
 _atom_site_fract_y
 _atom_site_fract_z
 _atom_site_occupancy
  V  V0  1  0.26541617  0.36944340  0.65241837  1
  V  V1  1  0.00338159  0.36941300  0.36779320  1
  V  V2  1  -0.00178127  0.62093301  0.13813762  1
  V  V3  1  0.88782770  0.24414179  0.62831199  1
  V  V4  1  -0.00258855  0.49803245  -0.01252652  1
  V  V5  1  0.12646704  0.75191692  0.37000826  1
  V  V6  1  0.87292470  0.51397726  0.35424347  1
  V  V7  1  0.49098073  0.12832776  0.59795125  1
  V  V8  1  0.25956998  0.27001072  0.00933710  1
  V  V9  1  0.75541355  0.75289971  -0.00673972  1
  V  V10  1  0.39006499  0.87386906  0.01351910  1
  V  V11  1  0.87770079  0.73828393  0.13342520  1
  V  V12  1  0.75212221  0.01532583  0.74645968  1
  V  V13  1  0.46533398  0.50024227  0.51036196  1
  V  V14  1  0.81756792  0.33266927  0.45335245  1
  V  V15  1  -0.01274167  0.49833540  0.50065141  1
  V  V16  1  0.00775709  0.11239552  0.13330789  1
  V  V17  1  0.25213023  0.24647298  0.50232310  1
  V  V18  1  0.75472093  0.49946356  0.75044084  1
  V  V19  1  0.75104098  0.61699382  0.88147676  1
  V  V20  1  0.62159669  0.50426587  0.61717852  1
  V  V21  1  0.13308981  0.62318502  -0.00509965  1
  V  V22  1  -0.00445657  -0.01449044  -0.00429107  1
  V  V23  1  0.61774570  0.75243886  0.87215598  1
  V  V24  1  0.62327489  0.37004939  0.75597140  1
  V  V25  1  0.13087108  0.36769040  0.24891864  1
  V  V26  1  0.11329788  0.74975716  0.87410064  1
  V  V27  1  0.77486447  0.86678921  0.62268226  1
  V  V28  1  0.23917022  0.87736915  0.62208260  1
  V  V29  1  0.25390497  0.61614876  0.37425578  1
  V  V30  1  0.12736134  0.63740035  0.50985690  1
  V  V31  1  0.14537959  0.88078997  0.24554382  1
  V  V32  1  0.50341365  0.63370005  0.64390905  1
  V  V33  1  0.88623978  0.24887273  0.12937576  1
  V  V34  1  -0.01252827  -0.00288444  0.49942937  1
  V  V35  1  0.12002747  0.11785334  0.52006063  1
  V  V36  1  -0.01214069  0.87415928  0.36988755  1
  V  V37  1  0.61540855  0.36542594  0.24878337  1
  V  V38  1  0.13310927  0.11671447  0.00241958  1
  V  V39  1  0.48892161  0.12942344  0.15125291  1
  V  V40  1  0.50275471  0.01398989  -0.00065434  1
  V  V41  1  0.37233256  0.00149998  0.36668665  1
  V  V42  1  -0.01160585  0.64195518  0.62736776  1
  V  V43  1  0.23907443  0.11757065  0.35489330  1
  V  V44  1  0.13693404  0.49778165  0.13041702  1
  V  V45  1  0.37138182  0.75484367  0.64152017  1
  V  V46  1  0.86479106  0.11174790  0.25732825  1
  V  V47  1  0.62671975  0.00705160  0.13230737  1
  V  V48  1  0.11605935  0.47907753  0.62992488  1
  V  V49  1  0.87744590  0.64414138  0.75448985  1
  V  V50  1  0.24240556  0.00726855  0.75063370  1
  V  V51  1  0.74944386  0.23272429  -0.00135644  1
  V  V52  1  0.74672866  0.62352640  0.33932971  1
  V  V53  1  0.75922694  0.87731886  0.12596688  1
  V  V54  1  0.63565171  0.22706865  0.87778463  1
  V  V55  1  0.62599685  -0.00222901  0.60351005  1
  V  V56  1  0.48889342  0.22602349  0.75814542  1
  V  V57  1  0.11397877  0.87743478  0.75891926  1
  V  V58  1  0.49865091  0.86306795  0.36296403  1
  V  V59  1  0.39088348  0.87420460  0.50289684  1
  V  V60  1  0.49767074  0.37732336  0.89208291  1
  V  V61  1  0.74884551  0.38385420  0.12985577  1
  V  V62  1  0.62627205  0.85935561  0.24534744  1
  V  V63  1  0.74832996  0.36063525  0.62710706  1
  V  V64  1  0.87886770  0.37392673  -0.01410541  1
  V  V65  1  0.41510250  0.61114209  0.23146740  1
  V  V66  1  0.11687436  0.26113226  0.87422528  1
  V  V67  1  0.37539457  -0.00127170  0.86887063  1
  V  V68  1  0.33063605  0.54726470  0.85863307  1
  V  V69  1  0.24950772  0.76857966  0.00700651  1
  Zn  Zn70  1  0.61833717  0.72162148  0.39694168  1
  Zn  Zn71  1  0.25553252  0.13265318  0.87241046  1
  Zn  Zn72  1  0.50834431  0.80117368  0.76070856  1
  Zn  Zn73  1  0.62767869  0.17896690  0.48978232  1
  Zn  Zn74  1  0.86738954  -0.00346266  0.88261719  1
  Zn  Zn75  1  0.86988185  0.14887046  0.78402280  1
  Zn  Zn76  1  0.18795194  0.19324942  0.18504826  1
  Zn  Zn77  1  0.17824867  0.19436736  0.68744149  1
  Zn  Zn78  1  0.19243694  0.68726492  0.18963671  1
  Zn  Zn79  1  0.18464536  0.68593753  0.69681346  1
  Zn  Zn80  1  0.68856758  0.19613849  0.19550707  1
  Zn  Zn81  1  0.67026647  0.16662702  0.69042253  1
  Zn  Zn82  1  0.67345573  0.69034076  0.17295168  1
  Zn  Zn83  1  0.68943279  0.69246431  0.69230263  1
  Zn  Zn84  1  0.27762150  0.33028804  0.35427681  1
  Zn  Zn85  1  0.31320711  0.30990823  0.82789333  1
  Zn  Zn86  1  0.31808343  0.78276691  0.31051315  1
  Zn  Zn87  1  0.30428962  0.81623732  0.82138721  1
  Zn  Zn88  1  0.81928690  0.31621356  0.29439663  1
  Zn  Zn89  1  0.95454180  0.31128482  0.80776828  1
  Zn  Zn90  1  0.80964462  0.80766269  0.31020272  1
  Zn  Zn91  1  0.89799447  0.86987831  0.75398493  1
  Zn  Zn92  1  0.17807286  0.44326805  0.45085977  1
  Zn  Zn93  1  0.19189776  0.44156847  0.93112795  1
  Zn  Zn94  1  0.18371967  0.94013642  0.43504978  1
  Zn  Zn95  1  0.18652198  0.93839507  0.93829611  1
  Zn  Zn96  1  0.63654180  0.38669200  0.44388035  1
  Zn  Zn97  1  0.68979933  0.42739637  0.93776088  1
  Zn  Zn98  1  0.67443440  0.88748431  0.46105080  1
  Zn  Zn99  1  0.74548928  0.87481791  0.84214900  1
  Zn  Zn100  1  0.31454703  0.05954119  0.07816940  1
  Zn  Zn101  1  0.30844508  0.05540335  0.55682196  1
  Zn  Zn102  1  0.32815197  0.55372089  0.05466187  1
  Zn  Zn103  1  0.29591640  0.56572215  0.60243887  1
  Zn  Zn104  1  0.81963066  0.05647768  0.06800599  1
  Zn  Zn105  1  0.80488345  0.06196994  0.54875545  1
  Zn  Zn106  1  0.81664521  0.56004608  0.05973845  1
  Zn  Zn107  1  0.81102913  0.56055718  0.56741020  1
  Zn  Zn108  1  0.43784159  0.44421405  0.31029406  1
  Zn  Zn109  1  0.43917990  0.44034536  0.70910455  1
  Zn  Zn110  1  0.43694533  0.93798896  0.18813056  1
  Zn  Zn111  1  0.43720433  0.95334885  0.67834705  1
  Zn  Zn112  1  0.94298191  0.43541740  0.18011304  1
  Zn  Zn113  1  0.93092733  0.43456492  0.68354366  1
  Zn  Zn114  1  0.94553786  0.93404824  0.19523177  1
  Zn  Zn115  1  0.94800982  1.05373261  0.67323645  1
  Zn  Zn116  1  0.06317951  0.05275209  0.31083678  1
  Zn  Zn117  1  0.05552157  0.06980254  0.82076092  1
  Zn  Zn118  1  0.07108642  0.55934309  0.31759661  1
  Zn  Zn119  1  0.06497165  0.56019512  0.80805299  1
  Zn  Zn120  1  0.56314145  0.04436387  0.32063681  1
  Zn  Zn121  1  0.55861127  0.00796146  0.79441403  1
  Zn  Zn122  1  0.57359019  0.53648173  0.33596349  1
  Zn  Zn123  1  0.56824180  0.55950977  0.82009693  1
  Zn  Zn124  1  0.42130686  0.19785070  0.42820829  1
  Zn  Zn125  1  0.43783012  0.18770635  0.94049676  1
  Zn  Zn126  1  0.43556526  0.68427163  0.45731773  1
  Zn  Zn127  1  0.42497672  0.69184952  0.92873744  1
  Zn  Zn128  1  0.94028937  0.18178100  0.43673954  1
  Zn  Zn129  1  0.94081251  0.17574696  0.94606712  1
  Zn  Zn130  1  0.93754082  0.68608787  0.42925727  1
  Zn  Zn131  1  0.93611458  0.68933923  0.94064151  1
  Zn  Zn132  1  0.06933976  0.31230713  0.05783515  1
  Zn  Zn133  1  0.06414833  0.30522649  0.54453481  1
  Zn  Zn134  1  0.06465507  0.80689869  0.06957018  1
  Zn  Zn135  1  0.05298388  0.82348977  0.56418029  1
  Zn  Zn136  1  0.56696865  0.30196209  0.06784357  1
  Zn  Zn137  1  0.53890877  0.31631172  0.57545785  1
  Zn  Zn138  1  0.61189059  0.86476126  0.00486016  1
  Zn  Zn139  1  0.56920921  0.80719832  0.57069399  1
  O  O140  1  0.11270002  0.13160855  0.11806585  1
  O  O141  1  0.11674560  0.12328818  0.62027844  1
  O  O142  1  0.11366815  0.61739929  0.11751526  1
  O  O143  1  0.10349462  0.62636928  0.62021589  1
  O  O144  1  0.62890767  0.10781487  0.13586660  1
  O  O145  1  0.61681714  0.12612549  0.59659599  1
  O  O146  1  0.58184299  0.64809774  0.10990298  1
  O  O147  1  0.61885948  0.61435206  0.63314565  1
  O  O148  1  0.39398368  0.34824935  0.36612378  1
  O  O149  1  0.39893541  0.36714151  0.87644737  1
  O  O150  1  0.38338191  0.86287666  0.38649363  1
  O  O151  1  0.36597998  0.89353633  0.89285480  1
  O  O152  1  0.88056780  0.38761229  0.37915323  1
  O  O153  1  0.87711962  0.36488394  0.88878388  1
  O  O154  1  0.88788737  0.86680983  0.36534146  1
  O  O155  1  0.85807620  0.88434400  0.85902423  1
  O  O156  1  0.25951160  0.00909994  0.37926031  1
  O  O157  1  0.25626039  0.00278944  0.86642983  1
  O  O158  1  0.23792564  0.51665935  0.38992308  1
  O  O159  1  0.23007326  0.52000897  0.86107980  1
  O  O160  1  0.71474606  0.08331148  0.40107397  1
  O  O161  1  0.73959673  0.00016281  0.84686795  1
  O  O162  1  0.77091524  0.51584153  0.37409469  1
  O  O163  1  0.74445532  0.51105027  0.86934253  1
  O  O164  1  0.23435638  0.50490275  0.11532590  1
  O  O165  1  0.22651936  0.46287829  0.60924964  1
  O  O166  1  0.25998946  0.97945825  0.13244695  1
  O  O167  1  0.25503689  0.98799084  0.64067811  1
  O  O168  1  0.75982026  0.48263085  0.11931370  1
  O  O169  1  0.73600382  0.49915310  0.63002143  1
  O  O170  1  0.73989580  0.98428809  0.11819019  1
  O  O171  1  0.73988613  1.00100369  0.61943629  1
  O  O172  1  0.00238923  0.38090742  0.26263702  1
  O  O173  1  0.00091826  0.39779782  0.75887775  1
  O  O174  1  0.01538112  0.87568806  0.26591349  1
  O  O175  1  0.01646361  0.87914597  0.74633596  1
  O  O176  1  0.51719065  0.38879533  0.24061550  1
  O  O177  1  0.51336020  0.35985990  0.75637924  1
  O  O178  1  0.50363425  0.86573973  0.25712778  1
  O  O179  1  0.50450580  0.91278233  0.75849486  1
  O  O180  1  0.50531445  0.11601102  0.25049891  1
  O  O181  1  0.50234566  0.12710275  0.75983922  1
  O  O182  1  0.51629450  0.59463393  0.25401319  1
  O  O183  1  0.50601210  0.62170665  0.74387907  1
  O  O184  1  0.99847307  0.11864631  0.23672552  1
  O  O185  1  0.98366494  0.12196437  0.75386708  1
  O  O186  1  1.00727538  0.62001319  0.23619633  1
  O  O187  1  0.98636662  0.62128581  0.73999041  1
  O  O188  1  0.35778381  0.24473325  -0.00312745  1
  O  O189  1  0.35174152  0.24253835  0.51184386  1
  O  O190  1  0.36098066  0.76735661  -0.00707785  1
  O  O191  1  0.37952085  0.76585795  0.52532002  1
  O  O192  1  0.86880147  0.25707083  0.00837149  1
  O  O193  1  0.87083249  0.26019957  0.50304257  1
  O  O194  1  0.86357038  0.74529319  0.01255892  1
  O  O195  1  0.83820237  0.71109865  0.50053052  1
  O  O196  1  0.13107997  0.22779963  0.49705204  1
  O  O197  1  0.13351421  0.23984628  0.99582945  1
  O  O198  1  0.11576487  0.74026005  0.50252804  1
  O  O199  1  0.12957348  0.74363458  0.99435043  1
  O  O200  1  0.60128033  0.28828349  0.48488454  1
  O  O201  1  0.64115431  0.24863061  0.99257832  1
  O  O202  1  0.63809850  0.78139202  0.48886334  1
  O  O203  1  0.64565386  0.74762252  0.99133785  1
  O  O204  1  0.51644550  0.22572841  0.13170853  1
  O  O205  1  0.50266225  0.23128035  0.64541159  1
  O  O206  1  0.52996693  0.68749449  0.06493888  1
  O  O207  1  0.50261327  0.74568714  0.64071775  1
  O  O208  1  0.98882624  0.24311181  0.11508055  1
  O  O209  1  0.98461010  0.25615528  0.61191935  1
  O  O210  1  0.98701311  0.73344729  0.11752045  1
  O  O211  1  0.99286654  0.74044853  0.62164577  1
  O  O212  1  -0.00469942  0.27188344  0.38342738  1
  O  O213  1  0.00916180  0.24655401  0.88581864  1
  O  O214  1  0.01070466  0.76189993  0.38639482  1
  O  O215  1  0.01298928  0.75612259  0.88605587  1
  O  O216  1  0.43898438  0.28133041  0.34906124  1
  O  O217  1  0.51513387  0.24983627  0.87251940  1
  O  O218  1  0.50332066  0.76050080  0.38823181  1
  O  O219  1  0.51498875  0.74846905  0.87759419  1
  O  O220  1  0.23599378  0.12890815  0.50664257  1
  O  O221  1  0.23704334  0.11929982  1.01047790  1
  O  O222  1  0.22696960  0.62362525  0.51357385  1
  O  O223  1  0.23334030  0.62516626  1.00200129  1
  O  O224  1  0.74031478  0.12626889  0.46614329  1
  O  O225  1  0.75503439  0.13523003  1.01460876  1
  O  O226  1  0.78352504  0.65643143  0.49919316  1
  O  O227  1  0.75888814  0.62865624  0.98703204  1
  O  O228  1  0.25229935  0.37061455  -0.00208583  1
  O  O229  1  0.23864540  0.34776218  0.46866218  1
  O  O230  1  0.25013173  0.87205906  0.00984147  1
  O  O231  1  0.24228079  0.87823758  0.52062163  1
  O  O232  1  0.76479275  0.36882014  0.00754892  1
  O  O233  1  0.74627738  0.38314169  0.51262321  1
  O  O234  1  0.74924745  0.86045619  0.01701560  1
  O  O235  1  0.77109004  0.88625914  0.52006113  1
  O  O236  1  0.12287177  0.49809912  0.23475497  1
  O  O237  1  0.11979538  0.50652977  0.72568607  1
  O  O238  1  0.13609038  0.98133919  0.25502200  1
  O  O239  1  0.13438736  0.98964347  0.76273514  1
  O  O240  1  0.55473466  0.50776314  0.11023281  1
  O  O241  1  0.63392117  0.48976578  0.74627461  1
  O  O242  1  0.61841004  0.98206802  0.23514631  1
  O  O243  1  0.64088343  1.03277830  0.72231563  1
  O  O244  1  0.36973525  -0.01801934  0.26835872  1
  O  O245  1  0.36146026  -0.00226749  0.76382163  1
  O  O246  1  0.37154388  0.52688170  0.27230971  1
  O  O247  1  0.37883359  0.50159154  0.78014556  1
  O  O248  1  0.87470094  0.01161400  0.24179471  1
  O  O249  1  0.86085931  0.00363123  0.73682013  1
  O  O250  1  0.87947211  0.49604773  0.25681544  1
  O  O251  1  0.85656842  0.50320066  0.74282670  1
  O  O252  1  0.10933966  0.38950776  0.36258897  1
  O  O253  1  0.12193384  0.36087088  0.88680073  1
  O  O254  1  0.12543888  0.86150339  0.37195655  1
  O  O255  1  0.12498694  0.86773350  0.86640874  1
  O  O256  1  0.63124379  0.42726418  0.33718028  1
  O  O257  1  0.62583704  0.36095366  0.86831032  1
  O  O258  1  0.61294061  0.88126338  0.35663136  1
  O  O259  1  0.63825383  0.85615682  0.88421230  1
  O  O260  1  0.38930247  0.12343223  0.13583550  1
  O  O261  1  0.39207031  0.11364617  0.61191557  1
  O  O262  1  0.39362171  0.60342727  0.13045658  1
  O  O263  1  0.38785161  0.65034382  0.63721968  1
  O  O264  1  0.88777484  0.13297523  0.12931398  1
  O  O265  1  0.87025793  0.14257785  0.61088353  1
  O  O266  1  0.88502300  0.62765610  0.12437642  1
  O  O267  1  0.88060446  0.62361585  0.63869002  1
  O  O268  1  0.24298493  0.25453117  0.10897737  1
  O  O269  1  0.23387402  0.27038285  0.61462475  1
  O  O270  1  0.24372716  0.74097881  0.10455207  1
  O  O271  1  0.26449485  0.76663614  0.64070993  1
  O  O272  1  0.75935967  0.25779211  0.11571657  1
  O  O273  1  0.74216280  0.26128202  0.62511316  1
  O  O274  1  0.75830892  0.74920875  0.11647151  1
  O  O275  1  0.74174679  0.76968281  0.63142928  1
  O  O276  1  0.26165099  0.21966728  0.38717244  1
  O  O277  1  0.23877586  0.24641833  0.89082920  1
  O  O278  1  0.22987107  0.73760298  0.38696736  1
  O  O279  1  0.23232559  0.75892045  0.89441731  1
  O  O280  1  0.76032400  0.28149032  0.38947679  1
  O  O281  1  0.74394959  0.24151887  0.89055225  1
  O  O282  1  0.74747439  0.72638786  0.35882228  1
  O  O283  1  0.75232985  0.74118496  0.88600428  1
  O  O284  1  0.01063455  0.11258951  0.01409539  1
  O  O285  1  0.01323301  0.11298183  0.48998087  1
  O  O286  1  0.00358883  0.61160442  0.00447289  1
  O  O287  1  -0.00384428  0.61910405  0.51142019  1
  O  O288  1  0.50133420  0.11481176  0.01314321  1
  O  O289  1  0.49955799  0.14620258  0.49641073  1
  O  O290  1  0.49769379  0.64016541  0.00971197  1
  O  O291  1  0.49578604  0.61373198  0.52832288  1
  O  O292  1  0.47846674  0.40112777  0.52980305  1
  O  O293  1  0.51051946  0.36155915  0.99128736  1
  O  O294  1  0.49149120  0.87704584  0.49766163  1
  O  O295  1  0.49206873  0.87780720  1.00304853  1
  O  O296  1  1.00576420  0.39307606  0.48547912  1
  O  O297  1  0.98905531  0.38504195  1.00757878  1
  O  O298  1  1.00289103  0.88610585  0.48556866  1
  O  O299  1  1.01197393  0.88787869  1.01191325  1
  O  O300  1  0.48378581  0.50196262  0.40595560  1
  O  O301  1  0.51889419  0.47685311  0.87893980  1
  O  O302  1  0.48464853  0.97659271  0.37572022  1
  O  O303  1  0.49074683  1.00643210  0.89196312  1
  O  O304  1  0.98877376  0.50402326  0.38395261  1
  O  O305  1  1.00698105  0.50144018  0.88910502  1
  O  O306  1  1.00541576  0.98312125  0.38149278  1
  O  O307  1  1.00028702  0.99575688  0.89306803  1
  O  O308  1  0.00020520  0.00865990  0.12025217  1
  O  O309  1  0.00100449  -0.01091857  0.60014127  1
  O  O310  1  0.00326129  0.51097802  0.11648147  1
  O  O311  1  -0.00233860  0.50352596  0.61206807  1
  O  O312  1  0.50707294  0.00992102  0.12422670  1
  O  O313  1  0.51282580  0.02292315  0.61978802  1
  O  O314  1  0.56587199  0.49408696  0.03806526  1
  O  O315  1  0.50775847  0.51058899  0.63356108  1
  O  O316  1  0.23103387  0.37720713  0.26345304  1
  O  O317  1  0.24731800  0.36583091  0.75004854  1
  O  O318  1  0.24319749  0.85493171  0.26227086  1
  O  O319  1  0.23998859  0.88569622  0.74585462  1
  O  O320  1  0.74512418  0.37641434  0.23467214  1
  O  O321  1  0.73956435  0.38143292  0.73573217  1
  O  O322  1  0.73747410  0.86708600  0.23855524  1
  O  O323  1  0.74014982  0.90061026  0.72598345  1
  O  O324  1  0.24718030  0.12704859  0.25592368  1
  O  O325  1  0.24022506  0.11039701  0.74756734  1
  O  O326  1  0.24055561  0.62715417  0.27321322  1
  O  O327  1  0.25487052  0.60235354  0.70091975  1
  O  O328  1  0.76541794  0.12785824  0.24327754  1
  O  O329  1  0.76345116  0.12327327  0.74016117  1
  O  O330  1  0.73172785  0.61561174  0.24009329  1
  O  O331  1  0.76070888  0.62177560  0.75774439  1
  O  O332  1  0.37352856  0.10452262  0.37532802  1
  O  O333  1  0.36900124  0.10394004  0.88997778  1
  O  O334  1  0.34942246  0.63553177  0.40095647  1
  O  O335  1  0.35167988  0.64926660  0.85495713  1
  O  O336  1  0.88153466  0.13145825  0.35515773  1
  O  O337  1  0.86872934  0.11154165  0.88960153  1
  O  O338  1  0.87115475  0.62167219  0.35783256  1
  O  O339  1  0.86621985  0.62708372  0.86403979  1
  O  O340  1  0.11539941  0.38865630  0.13568372  1
  O  O341  1  0.10164240  0.37975201  0.62675817  1
  O  O342  1  0.12503733  0.85674606  0.14956263  1
  O  O343  1  0.13479714  0.86435003  0.64011188  1
  O  O344  1  0.63935043  0.36974035  0.13433081  1
  O  O345  1  0.62814447  0.38480758  0.63550745  1
  O  O346  1  0.63439855  0.87343126  0.13287414  1
  O  O347  1  0.61328248  0.89916179  0.62671440  1
  O  O348  1  0.11907216  0.26854072  0.24276570  1
  O  O349  1  0.12736501  0.24305318  0.77504347  1
  O  O350  1  0.12144914  0.74568003  0.26808813  1
  O  O351  1  0.12887037  0.75872070  0.76524113  1
  O  O352  1  0.62582329  0.26653180  0.26499390  1
  O  O353  1  0.62368734  0.24921252  0.76363545  1
  O  O354  1  0.61945518  0.75871033  0.25117825  1
  O  O355  1  0.62389915  0.75216379  0.76759087  1
  O  O356  1  0.37713008  0.28949545  0.20032642  1
  O  O357  1  0.39059939  0.23991312  0.76882647  1
  O  O358  1  0.38677501  0.70748476  0.26081135  1
  O  O359  1  0.38755574  0.78033653  0.74256337  1
  O  O360  1  0.87851415  0.24187580  0.23324897  1
  O  O361  1  0.88134350  0.25402459  0.73295111  1
  O  O362  1  0.87161224  0.74462888  0.23196740  1
  O  O363  1  0.87747845  0.74100435  0.75328121  1
  O  O364  1  0.36787025  0.51441120  0.52907899  1
  O  O365  1  0.36595537  0.52144755  0.95313445  1
  O  O366  1  0.36506930  0.97776424  0.48834153  1
  O  O367  1  0.38907061  0.99150178  1.00397634  1
  O  O368  1  0.88344108  0.50379103  0.49523931  1
  O  O369  1  0.88602057  0.48695715  0.99914751  1
  O  O370  1  0.88898558  1.01346929  0.48929273  1
  O  O371  1  0.89053531  0.99353290  1.00645542  1
  O  O372  1  0.11869328  0.01112339  -0.00050977  1
  O  O373  1  0.12275948  0.01340607  0.49896698  1
  O  O374  1  0.11279498  0.50277725  0.00955769  1
  O  O375  1  0.10728752  0.51337200  0.51289956  1
  O  O376  1  0.60639040  -0.01404446  0.01914404  1
  O  O377  1  0.63038582  -0.00890194  0.50213803  1
  O  O378  1  0.64101966  0.51013348  0.00815827  1
  O  O379  1  0.61792065  0.49016234  0.51839072  1
  O  O380  1  0.37521169  0.34441343  0.15343880  1
  O  O381  1  0.36415153  0.37775388  0.64408838  1
  O  O382  1  0.37890003  0.87411656  0.11324408  1
  O  O383  1  0.37006098  0.87838024  0.61622011  1
  O  O384  1  0.87006442  0.36226864  0.12294090  1
  O  O385  1  0.85568917  0.36501938  0.62339719  1
  O  O386  1  0.86331262  0.86392393  0.13461935  1
  O  O387  1  0.87451264  0.86570679  0.64035091  1
  O  O388  1  0.13864804  0.11763414  0.37202444  1
  O  O389  1  0.12768840  0.13017995  0.89329091  1
  O  O390  1  0.12105286  0.63243728  0.39363997  1
  O  O391  1  0.11543270  0.63930609  0.88065935  1
  O  O392  1  0.63991747  0.11448606  0.38034439  1
  O  O393  1  0.62507865  0.13142565  0.87630673  1
  O  O394  1  0.64842411  0.61195491  0.38014048  1
  O  O395  1  0.64444327  0.63565871  0.87101811  1
