# generated using pymatgen
data_V35Zn35O128
_symmetry_space_group_name_H-M   'P 1'
_cell_length_a   16.84607269
_cell_length_b   16.87899825
_cell_length_c   16.88921286
_cell_angle_alpha   90.06955277
_cell_angle_beta   89.99054631
_cell_angle_gamma   89.90037253
_symmetry_Int_Tables_number   1
_chemical_formula_structural   V35Zn35O128
_chemical_formula_sum   'V70 Zn70 O256'
_cell_volume   4802.34951769
_cell_formula_units_Z   2
loop_
 _symmetry_equiv_pos_site_id
 _symmetry_equiv_pos_as_xyz
  1  'x, y, z'
loop_
 _atom_site_type_symbol
 _atom_site_label
 _atom_site_symmetry_multiplicity
 _atom_site_fract_x
 _atom_site_fract_y
 _atom_site_fract_z
 _atom_site_occupancy
  V  V0  1  0.62376073  0.75284224  0.36491571  1
  V  V1  1  0.01575134  0.50030296  0.00608645  1
  V  V2  1  0.74803576  0.73222348  0.00268537  1
  V  V3  1  0.37814610  0.49101282  0.87467248  1
  V  V4  1  0.21859256  0.86345547  0.59820448  1
  V  V5  1  0.77431118  0.37768961  0.62311980  1
  V  V6  1  0.24480484  0.14505822  0.85038078  1
  V  V7  1  0.49341989  0.88279361  0.36974142  1
  V  V8  1  0.85956677  0.38288712  0.01037720  1
  V  V9  1  0.00432746  0.51613608  0.50085790  1
  V  V10  1  0.86953101  0.74719370  0.62782045  1
  V  V11  1  0.60543581  0.37650286  0.73967547  1
  V  V12  1  0.25868801  0.62732838  0.87307358  1
  V  V13  1  -0.00046752  0.34796199  0.88498212  1
  V  V14  1  0.41283931  0.22741343  0.68799636  1
  V  V15  1  0.48480821  0.01592202  -0.00610972  1
  V  V16  1  0.25977322  0.27501148  0.50951378  1
  V  V17  1  0.88251796  0.87716429  -0.00895141  1
  V  V18  1  0.12787041  0.63958680  0.00244096  1
  V  V19  1  0.25116829  0.62795173  0.38989128  1
  V  V20  1  0.88283171  0.50355963  0.86379033  1
  V  V21  1  0.75337556  0.61377743  0.85217571  1
  V  V22  1  0.00873830  0.76788763  0.76187664  1
  V  V23  1  0.13510552  0.76068451  0.35589139  1
  V  V24  1  0.00991364  0.25863295  0.24348627  1
  V  V25  1  0.63686332  0.49776944  0.61753836  1
  V  V26  1  0.25996633  0.75923100  0.01579487  1
  V  V27  1  0.62849830  0.50121449  0.11772631  1
  V  V28  1  -0.00252734  0.62900921  0.13934325  1
  V  V29  1  0.13192334  -0.01643558  0.12916198  1
  V  V30  1  0.64606871  0.13056613  0.01950901  1
  V  V31  1  0.87108286  0.12377840  0.77000622  1
  V  V32  1  0.86669935  0.11664347  0.24417659  1
  V  V33  1  0.12833048  0.26254405  0.38109803  1
  V  V34  1  0.62930420  0.24671480  0.37383681  1
  V  V35  1  0.38895915  0.25778342  0.11362087  1
  V  V36  1  0.85741419  0.25601715  0.12408949  1
  V  V37  1  -0.00777240  0.24368383  0.72351102  1
  V  V38  1  0.37775979  0.87445032  0.03208700  1
  V  V39  1  0.50000749  0.63731157  0.12296870  1
  V  V40  1  0.22860165  -0.04616574  0.74556262  1
  V  V41  1  -0.00401977  0.08379398  0.59488440  1
  V  V42  1  0.49277537  0.48775816  0.00420184  1
  V  V43  1  0.50319725  0.62796832  0.64140700  1
  V  V44  1  0.79703393  0.07251043  0.42068277  1
  V  V45  1  0.63451575  0.37184342  0.24854718  1
  V  V46  1  0.24211738  0.38104144  0.11082707  1
  V  V47  1  0.49196046  0.86416891  0.86950099  1
  V  V48  1  0.25081641  0.13080577  0.38573917  1
  V  V49  1  0.63817105  0.63560277  0.49184610  1
  V  V50  1  0.63065061  0.86722751  0.75569195  1
  V  V51  1  0.24413451  0.49580477  0.24325774  1
  V  V52  1  0.26232938  0.00237287  0.24885652  1
  V  V53  1  -0.01188375  0.37744011  0.38061090  1
  V  V54  1  0.76417245  0.26119266  0.49732225  1
  V  V55  1  0.36317403  0.74092262  0.63219446  1
  V  V56  1  0.49961557  0.37601992  0.37232104  1
  V  V57  1  0.39546810  0.88061246  0.51732988  1
  V  V58  1  0.37946124  0.63519657  0.24652724  1
  V  V59  1  0.23885826  0.23670219  0.00517102  1
  V  V60  1  0.87096537  0.51963051  0.37230631  1
  V  V61  1  0.38530928  0.14228757  0.25007620  1
  V  V62  1  0.75284269  0.51694433  0.25090490  1
  V  V63  1  0.75243339  0.88193008  0.61428654  1
  V  V64  1  0.49841569  0.50212419  0.49672536  1
  V  V65  1  0.61382502  0.12362612  0.51421891  1
  V  V66  1  0.01141047  0.62727471  0.64027490  1
  V  V67  1  0.01758436  0.12783256  0.11357724  1
  V  V68  1  0.75129402  0.00136372  0.76775664  1
  V  V69  1  0.74299065  0.88853299  0.12456196  1
  Zn  Zn70  1  0.24576655  0.49493069  0.73385793  1
  Zn  Zn71  1  0.13381138  0.37317291  0.74431110  1
  Zn  Zn72  1  0.37404849  0.49897196  0.37337890  1
  Zn  Zn73  1  0.61733267  0.88221993  0.24210971  1
  Zn  Zn74  1  0.87523237  0.74721088  0.13503054  1
  Zn  Zn75  1  0.61870952  0.72478699  0.87500019  1
  Zn  Zn76  1  0.19669036  0.19174248  0.19162933  1
  Zn  Zn77  1  0.16646548  0.18846821  0.66730716  1
  Zn  Zn78  1  0.18709904  0.68042785  0.18796209  1
  Zn  Zn79  1  0.18415376  0.69071929  0.69149774  1
  Zn  Zn80  1  0.67925325  0.05482784  0.19709824  1
  Zn  Zn81  1  0.69403137  0.19685722  0.68913293  1
  Zn  Zn82  1  0.68135875  0.69094765  0.18515032  1
  Zn  Zn83  1  0.68833662  0.68912504  0.68371706  1
  Zn  Zn84  1  0.31552691  0.31714396  0.30834708  1
  Zn  Zn85  1  0.32730801  0.31220679  0.80635389  1
  Zn  Zn86  1  0.32691106  0.80963066  0.31902798  1
  Zn  Zn87  1  0.28977815  0.80881847  0.81439154  1
  Zn  Zn88  1  0.81190135  0.31218533  0.30605939  1
  Zn  Zn89  1  0.83192169  0.32296082  0.79292848  1
  Zn  Zn90  1  0.79423808  0.82178374  0.31538821  1
  Zn  Zn91  1  0.81843446  0.80426935  0.81516706  1
  Zn  Zn92  1  0.18231086  0.44399135  0.42870876  1
  Zn  Zn93  1  0.20551188  0.41362894  0.90239566  1
  Zn  Zn94  1  0.23228073  0.91987098  0.41154126  1
  Zn  Zn95  1  0.18484278  0.98343617  0.92721932  1
  Zn  Zn96  1  0.69043751  0.44002037  0.43567579  1
  Zn  Zn97  1  0.71096199  0.39470440  0.89627136  1
  Zn  Zn98  1  0.67295920  0.93823537  0.43828669  1
  Zn  Zn99  1  0.68765276  0.93551213  0.94388421  1
  Zn  Zn100  1  0.31915910  0.06466332  0.07253724  1
  Zn  Zn101  1  0.32927505  0.04380516  0.61831986  1
  Zn  Zn102  1  0.31500878  0.56473110  0.06316271  1
  Zn  Zn103  1  0.31738571  0.55544051  0.56790837  1
  Zn  Zn104  1  0.82449937  0.06512410  0.05499658  1
  Zn  Zn105  1  0.80543042  0.07002216  0.58696020  1
  Zn  Zn106  1  0.81809096  0.55946636  0.06715159  1
  Zn  Zn107  1  0.82072624  0.56445648  0.55657834  1
  Zn  Zn108  1  0.43415443  0.43794316  0.18925385  1
  Zn  Zn109  1  0.40266835  0.42662460  0.68245849  1
  Zn  Zn110  1  0.47525038  0.97791049  0.19977046  1
  Zn  Zn111  1  0.41158798  0.91331641  0.72416413  1
  Zn  Zn112  1  0.93954103  0.44319404  0.18835873  1
  Zn  Zn113  1  0.96808392  0.43071325  0.68384726  1
  Zn  Zn114  1  0.92706996  0.95472023  0.13979749  1
  Zn  Zn115  1  0.93303025  0.93850323  0.69161482  1
  Zn  Zn116  1  0.07373031  0.07444424  0.30171549  1
  Zn  Zn117  1  0.07846603  0.08438337  0.79428730  1
  Zn  Zn118  1  0.06960936  0.56498998  0.31900828  1
  Zn  Zn119  1  0.07176850  0.56107854  0.81955763  1
  Zn  Zn120  1  0.55558944  0.06311783  0.33077602  1
  Zn  Zn121  1  0.58497696  0.03313892  0.84464078  1
  Zn  Zn122  1  0.56499980  0.56503990  0.30922007  1
  Zn  Zn123  1  0.57446289  0.53207640  0.82132059  1
  Zn  Zn124  1  0.43221822  0.19557685  0.44668412  1
  Zn  Zn125  1  0.40640933  0.18313198  0.90904883  1
  Zn  Zn126  1  0.44137410  0.69321516  0.44277656  1
  Zn  Zn127  1  0.43912801  0.68556597  0.94407912  1
  Zn  Zn128  1  0.94569659  0.18171668  0.43137853  1
  Zn  Zn129  1  0.79986732  0.21273686  0.93322273  1
  Zn  Zn130  1  0.92201191  0.69523993  0.44265665  1
  Zn  Zn131  1  0.93375088  0.68835085  0.94076094  1
  Zn  Zn132  1  0.06624123  0.31623002  0.06187851  1
  Zn  Zn133  1  0.06318741  0.32217638  0.56204028  1
  Zn  Zn134  1  0.06369505  0.80944380  0.07088207  1
  Zn  Zn135  1  0.01683721  0.81787970  0.54226133  1
  Zn  Zn136  1  0.57516363  0.30936560  0.06016551  1
  Zn  Zn137  1  0.55959746  0.30745246  0.56052503  1
  Zn  Zn138  1  0.56584860  0.81345835  0.05107844  1
  Zn  Zn139  1  0.56603588  0.80935338  0.57181025  1
  O  O140  1  0.11980654  0.13032947  0.13158348  1
  O  O141  1  0.08266139  0.11719627  0.64034768  1
  O  O142  1  0.11578373  0.62575552  0.11039049  1
  O  O143  1  0.11039775  0.62812180  0.62413930  1
  O  O144  1  0.63064662  0.12260381  0.11639105  1
  O  O145  1  0.63290361  0.13553246  0.61263274  1
  O  O146  1  0.60988420  0.60940485  0.14019639  1
  O  O147  1  0.62355682  0.61847363  0.61308395  1
  O  O148  1  0.39580136  0.37635976  0.36906656  1
  O  O149  1  0.37642543  0.39123017  0.88281933  1
  O  O150  1  0.38799260  0.86593559  0.40265507  1
  O  O151  1  0.39255692  0.86436396  0.84507968  1
  O  O152  1  0.88581092  0.38068105  0.36695889  1
  O  O153  1  0.88640017  0.38779781  0.89535823  1
  O  O154  1  0.90531923  0.86995853  0.32522064  1
  O  O155  1  0.86678567  0.87619191  0.89159409  1
  O  O156  1  0.24833169  0.02603262  0.37553991  1
  O  O157  1  0.23493088  -0.07682010  0.84690798  1
  O  O158  1  0.25302597  0.51219704  0.36443000  1
  O  O159  1  0.26701491  0.51427784  0.89340238  1
  O  O160  1  0.73981183  0.00792146  0.36843824  1
  O  O161  1  0.74683407  0.00503439  0.86782737  1
  O  O162  1  0.76274706  0.50150043  0.36586150  1
  O  O163  1  0.77075255  0.50218694  0.87045604  1
  O  O164  1  0.25743221  0.49007573  0.13083754  1
  O  O165  1  0.30645294  0.47418952  0.64064251  1
  O  O166  1  0.25023617  0.99771112  0.14190380  1
  O  O167  1  0.22768929  0.96558131  0.61759734  1
  O  O168  1  0.73880599  0.50667820  0.13745749  1
  O  O169  1  0.74482741  0.48974156  0.60420425  1
  O  O170  1  0.74820462  0.99247606  0.11874530  1
  O  O171  1  0.75099469  0.98464436  0.64075443  1
  O  O172  1  -0.00539243  0.36401387  0.25462881  1
  O  O173  1  -0.03669629  0.34033099  0.77405422  1
  O  O174  1  -0.06031825  0.81846553  0.27652520  1
  O  O175  1  0.00125789  0.86874248  0.75170519  1
  O  O176  1  0.51649658  0.38816318  0.26516584  1
  O  O177  1  0.50666193  0.39003460  0.72431995  1
  O  O178  1  0.48530558  0.87914805  0.26730121  1
  O  O179  1  0.51882398  0.87852795  0.75931413  1
  O  O180  1  0.48344083  0.13278323  0.26810330  1
  O  O181  1  0.50190213  0.08362849  0.72842068  1
  O  O182  1  0.48781375  0.61940709  0.24235622  1
  O  O183  1  0.51496310  0.60685418  0.73720326  1
  O  O184  1  0.99226569  0.14510777  0.24915734  1
  O  O185  1  0.98449301  0.13906812  0.76704478  1
  O  O186  1  1.00744681  0.61434883  0.23728790  1
  O  O187  1  1.00240287  0.61847691  0.74060307  1
  O  O188  1  0.36640753  0.24555653  0.00995702  1
  O  O189  1  0.36077103  0.26310186  0.50669821  1
  O  O190  1  0.36981669  0.76085394  0.00704206  1
  O  O191  1  0.39024324  0.75949456  0.52284732  1
  O  O192  1  0.87015061  0.26908619  0.01325902  1
  O  O193  1  0.86192989  0.24549242  0.48399808  1
  O  O194  1  0.85942104  0.75583240  0.00262490  1
  O  O195  1  0.90687284  0.77294228  0.52344657  1
  O  O196  1  0.12093192  0.25915094  0.48331155  1
  O  O197  1  0.13937586  0.25073323  1.00224511  1
  O  O198  1  0.07347619  0.74807558  0.45581551  1
  O  O199  1  0.13667217  0.74501886  1.00157032  1
  O  O200  1  0.63689078  0.24700096  0.49039253  1
  O  O201  1  0.61393170  0.22423028  0.99479478  1
  O  O202  1  0.62385015  0.73776562  0.49971165  1
  O  O203  1  0.64454781  0.75359049  0.98829127  1
  O  O204  1  0.48797927  0.26120522  0.11876156  1
  O  O205  1  0.49778785  0.24673075  0.63520438  1
  O  O206  1  0.51248860  0.73600515  0.12060377  1
  O  O207  1  0.50809743  0.73106099  0.63626839  1
  O  O208  1  1.00370371  0.24771177  0.13406715  1
  O  O209  1  0.98644528  0.25116063  0.62450590  1
  O  O210  1  0.99948006  0.73361811  0.12856532  1
  O  O211  1  0.99546556  0.73941592  0.64112718  1
  O  O212  1  0.00475908  0.26120636  0.36642938  1
  O  O213  1  -0.00259349  0.25387745  0.90276291  1
  O  O214  1  0.02391272  0.74324898  0.38662536  1
  O  O215  1  -0.01334386  0.74406933  0.85856048  1
  O  O216  1  0.51617971  0.26920767  0.38615554  1
  O  O217  1  0.55490747  0.20151579  0.85160002  1
  O  O218  1  0.51293835  0.76487051  0.38531010  1
  O  O219  1  0.50640498  0.75862902  0.88485374  1
  O  O220  1  0.25108031  0.15091658  0.48392348  1
  O  O221  1  0.24841034  0.13645097  1.01477904  1
  O  O222  1  0.26055276  0.61594564  0.48831496  1
  O  O223  1  0.24249198  0.63441535  1.00428643  1
  O  O224  1  0.74476870  0.13705888  0.49460202  1
  O  O225  1  0.75014676  0.13200007  1.00084339  1
  O  O226  1  0.73759377  0.62359325  0.49828779  1
  O  O227  1  0.75222752  0.63084883  1.00366490  1
  O  O228  1  0.24724229  0.37104531  0.00720841  1
  O  O229  1  0.24598833  0.37418980  0.49071748  1
  O  O230  1  0.26728317  0.86530132  0.00825737  1
  O  O231  1  0.26964252  0.86492897  0.50474239  1
  O  O232  1  0.76078329  0.39151209  0.00430468  1
  O  O233  1  0.75339256  0.36795743  0.50269918  1
  O  O234  1  0.75664017  0.87016534  0.00937003  1
  O  O235  1  0.73898841  0.88272440  0.51597927  1
  O  O236  1  0.14482585  0.50790779  0.25040738  1
  O  O237  1  0.13324130  0.49462289  0.75419368  1
  O  O238  1  0.15004975  1.00924628  0.24381898  1
  O  O239  1  0.14167386  1.00439489  0.74376077  1
  O  O240  1  0.63896143  0.49447744  0.25137683  1
  O  O241  1  0.63201450  0.50000987  0.71925422  1
  O  O242  1  0.59235997  0.99795938  0.24199364  1
  O  O243  1  0.64106511  0.98768023  0.75487192  1
  O  O244  1  0.37212438  0.02650722  0.24032449  1
  O  O245  1  0.32788863  -0.00603098  0.72914962  1
  O  O246  1  0.36777475  0.50936738  0.25413532  1
  O  O247  1  0.38114680  0.50385722  0.77515347  1
  O  O248  1  0.88773250  0.02014142  0.23083399  1
  O  O249  1  0.86524941  0.00928734  0.75762701  1
  O  O250  1  0.86196495  0.49855840  0.25634606  1
  O  O251  1  0.89976947  0.48832263  0.76736422  1
  O  O252  1  0.10902715  0.36876293  0.36839052  1
  O  O253  1  0.09762107  0.37501419  0.87077566  1
  O  O254  1  0.14419867  0.86060201  0.37075807  1
  O  O255  1  0.04989000  0.94189983  0.89549256  1
  O  O256  1  0.62258288  0.37335355  0.36771798  1
  O  O257  1  0.61594257  0.41281414  0.83890457  1
  O  O258  1  0.61013078  0.87006625  0.37162818  1
  O  O259  1  0.61690480  0.87506033  0.86943581  1
  O  O260  1  0.37547791  0.14376183  0.13765839  1
  O  O261  1  0.36577940  0.14837926  0.64366226  1
  O  O262  1  0.38790259  0.62315817  0.13505795  1
  O  O263  1  0.39283738  0.63255226  0.62289787  1
  O  O264  1  0.88768614  0.14145806  0.12770113  1
  O  O265  1  0.89999802  0.11035665  0.63555836  1
  O  O266  1  0.89119597  0.62672974  0.12459185  1
  O  O267  1  0.87892954  0.64233809  0.61633082  1
  O  O268  1  0.25449586  0.26286076  0.11698406  1
  O  O269  1  0.22185723  0.26185842  0.60303904  1
  O  O270  1  0.24957643  0.74637363  0.11409440  1
  O  O271  1  0.25758926  0.74356168  0.61470708  1
  O  O272  1  0.76229008  0.25298202  0.13064827  1
  O  O273  1  0.75460236  0.26561178  0.60754829  1
  O  O274  1  0.74939423  0.74981305  0.11377128  1
  O  O275  1  0.76268603  0.75796442  0.62537281  1
  O  O276  1  0.23837111  0.26125832  0.37846185  1
  O  O277  1  0.25747389  0.24431707  0.89303169  1
  O  O278  1  0.24661893  0.73813741  0.37187476  1
  O  O279  1  0.25545094  0.73478295  0.89455147  1
  O  O280  1  0.73908330  0.26045262  0.38314685  1
  O  O281  1  0.75334227  0.29105316  0.86895443  1
  O  O282  1  0.72541134  0.76705963  0.38318130  1
  O  O283  1  0.75857002  0.72487935  0.88178614  1
  O  O284  1  0.00535201  0.12670185  0.01869919  1
  O  O285  1  0.00053467  0.10939662  0.49591802  1
  O  O286  1  0.01275034  0.62035865  0.00316884  1
  O  O287  1  -0.00322830  0.61765072  0.49653819  1
  O  O288  1  0.47069445  0.11426776  -0.02192261  1
  O  O289  1  0.51375811  0.13843084  0.49959321  1
  O  O290  1  0.49798235  0.61552472  0.01910967  1
  O  O291  1  0.51341938  0.61586134  0.50115705  1
  O  O292  1  0.51379567  0.39214156  0.48849172  1
  O  O293  1  0.51404611  0.39023613  1.00105897  1
  O  O294  1  0.49984664  0.87888089  0.50955586  1
  O  O295  1  0.48333473  0.87270529  0.98988661  1
  O  O296  1  0.99490189  0.38496894  0.48333024  1
  O  O297  1  0.99887005  0.38700720  0.99812156  1
  O  O298  1  0.98309071  0.90930684  0.45512491  1
  O  O299  1  0.98101386  0.85413076  1.00624170  1
  O  O300  1  0.50696447  0.49489902  0.38321494  1
  O  O301  1  0.48922657  0.51432782  0.89694732  1
  O  O302  1  0.49830280  0.98235937  0.38776951  1
  O  O303  1  0.49346801  0.97791128  0.88649927  1
  O  O304  1  0.99067547  0.49415562  0.37295887  1
  O  O305  1  0.99262013  0.50739460  0.89352182  1
  O  O306  1  1.00282088  0.99806589  0.36136155  1
  O  O307  1  1.00484240  0.99729836  0.87697769  1
  O  O308  1  0.02330535  0.01643888  0.13868671  1
  O  O309  1  -0.00254590  -0.01811151  0.60611231  1
  O  O310  1  -0.00177350  0.50946187  0.11272043  1
  O  O311  1  -0.01671333  0.52079039  0.60773439  1
  O  O312  1  0.50763277  0.00099262  0.09120356  1
  O  O313  1  0.49115955  0.03304330  0.67573924  1
  O  O314  1  0.50880659  0.50170392  0.11995319  1
  O  O315  1  0.51447342  0.50909118  0.60696682  1
  O  O316  1  0.25444825  0.39109403  0.24450625  1
  O  O317  1  0.23875629  0.38276688  0.79165906  1
  O  O318  1  0.27552803  0.90621771  0.28098114  1
  O  O319  1  0.22744099  0.85134492  0.71404463  1
  O  O320  1  0.73891248  0.38624579  0.25300168  1
  O  O321  1  0.75067704  0.37931854  0.72302151  1
  O  O322  1  0.74204215  0.87617891  0.23005687  1
  O  O323  1  0.74576650  0.88371424  0.75794763  1
  O  O324  1  0.26177437  0.12400321  0.26001202  1
  O  O325  1  0.23843403  0.15526577  0.75047261  1
  O  O326  1  0.26428397  0.61488165  0.24669833  1
  O  O327  1  0.24453178  0.62422868  0.77117779  1
  O  O328  1  0.76628949  0.12065678  0.23704013  1
  O  O329  1  0.75907129  0.11230468  0.73929590  1
  O  O330  1  0.74617519  0.61608443  0.25107255  1
  O  O331  1  0.75721370  0.62341834  0.75359288  1
  O  O332  1  0.35966691  0.15178750  0.36502865  1
  O  O333  1  0.32843365  0.09505407  0.87444759  1
  O  O334  1  0.36803292  0.62865537  0.36567458  1
  O  O335  1  0.36406483  0.62000198  0.88855856  1
  O  O336  1  0.86805143  0.12605738  0.35853949  1
  O  O337  1  0.85860026  0.13254323  0.86788220  1
  O  O338  1  0.87896050  0.61927590  0.36874587  1
  O  O339  1  0.86806967  0.60952348  0.87993390  1
  O  O340  1  0.14291101  0.37516680  0.12690411  1
  O  O341  1  0.07069657  0.38768484  0.65097688  1
  O  O342  1  0.11734070  0.88500512  0.13797866  1
  O  O343  1  0.12277230  0.84882063  0.57694163  1
  O  O344  1  0.62075098  0.38688136  0.14002302  1
  O  O345  1  0.62904137  0.38932049  0.61858022  1
  O  O346  1  0.63725978  0.87258381  0.11860949  1
  O  O347  1  0.64043247  0.86380319  0.64498488  1
  O  O348  1  0.11378197  0.25394973  0.25585504  1
  O  O349  1  0.09385343  0.25229427  0.74559172  1
  O  O350  1  0.12553576  0.74893292  0.25630948  1
  O  O351  1  0.10896914  0.74726863  0.75562176  1
  O  O352  1  0.62986822  0.26740481  0.26487193  1
  O  O353  1  0.62806163  0.27851574  0.73605492  1
  O  O354  1  0.62178137  0.75541706  0.26109030  1
  O  O355  1  0.63939181  0.76164855  0.76243398  1
  O  O356  1  0.37065372  0.24846266  0.23549746  1
  O  O357  1  0.41052954  0.22527615  0.79918808  1
  O  O358  1  0.37220422  0.73517540  0.24807440  1
  O  O359  1  0.36255647  0.74966367  0.73333526  1
  O  O360  1  0.88248315  0.24806638  0.23749915  1
  O  O361  1  0.87175755  0.22678534  0.73857336  1
  O  O362  1  0.88421118  0.75520638  0.26070905  1
  O  O363  1  0.88588866  0.75457462  0.73466289  1
  O  O364  1  0.39580453  0.50594075  0.49248816  1
  O  O365  1  0.38897634  0.49541070  1.00626274  1
  O  O366  1  0.37674152  0.97964509  0.53317208  1
  O  O367  1  0.37600974  0.98418855  1.00597609  1
  O  O368  1  0.88352278  0.50420839  0.47766404  1
  O  O369  1  0.88539126  0.49120255  1.00201345  1
  O  O370  1  0.84914214  1.01812399  0.48458694  1
  O  O371  1  0.88895825  0.98012714  1.02064046  1
  O  O372  1  0.14496955  -0.00406768  0.02930626  1
  O  O373  1  0.03410158  -0.04293258  0.42317800  1
  O  O374  1  0.11516573  0.50466266  0.00026869  1
  O  O375  1  0.10321834  0.49992910  0.49069766  1
  O  O376  1  0.61140432  0.03700337  -0.03202359  1
  O  O377  1  0.62727034  0.02488313  0.49627235  1
  O  O378  1  0.62198438  0.50133447  0.01902313  1
  O  O379  1  0.62359273  0.51322011  0.49981239  1
  O  O380  1  0.36490239  0.36398466  0.12903901  1
  O  O381  1  0.35768789  0.31494230  0.68343526  1
  O  O382  1  0.38991814  0.87682939  0.12701221  1
  O  O383  1  0.38120091  0.85611741  0.62688381  1
  O  O384  1  0.87882762  0.36916881  0.11874057  1
  O  O385  1  0.87257974  0.38627640  0.62307307  1
  O  O386  1  0.85861689  0.86500568  0.12104777  1
  O  O387  1  0.85835948  0.86912396  0.63081600  1
  O  O388  1  0.13926456  0.14941985  0.36608274  1
  O  O389  1  0.15843649  0.09132193  0.87986634  1
  O  O390  1  0.14637886  0.63285947  0.37200827  1
  O  O391  1  0.14035844  0.61873526  0.89631384  1
  O  O392  1  0.62359582  0.14420535  0.37690680  1
  O  O393  1  0.60887613  0.15344607  0.83165399  1
  O  O394  1  0.62013936  0.64023049  0.38138192  1
  O  O395  1  0.64808864  0.60973158  0.86904984  1
