# generated using pymatgen
data_V35Zn35O128
_symmetry_space_group_name_H-M   'P 1'
_cell_length_a   16.95763930
_cell_length_b   16.89615889
_cell_length_c   16.92201022
_cell_angle_alpha   89.93837318
_cell_angle_beta   89.90232466
_cell_angle_gamma   89.91272417
_symmetry_Int_Tables_number   1
_chemical_formula_structural   V35Zn35O128
_chemical_formula_sum   'V70 Zn70 O256'
_cell_volume   4848.46144434
_cell_formula_units_Z   2
loop_
 _symmetry_equiv_pos_site_id
 _symmetry_equiv_pos_as_xyz
  1  'x, y, z'
loop_
 _atom_site_type_symbol
 _atom_site_label
 _atom_site_symmetry_multiplicity
 _atom_site_fract_x
 _atom_site_fract_y
 _atom_site_fract_z
 _atom_site_occupancy
  V  V0  1  0.36979941  0.87328434  -0.00028824  1
  V  V1  1  0.00223331  0.63217202  0.59578336  1
  V  V2  1  0.51323927  0.75021613  0.74783106  1
  V  V3  1  0.37772868  0.74683029  0.63393820  1
  V  V4  1  0.86269639  0.76114886  0.62461018  1
  V  V5  1  0.51476471  0.24808741  0.74737560  1
  V  V6  1  0.24873546  0.37286957  0.61233453  1
  V  V7  1  0.25163870  -0.00024889  0.75362841  1
  V  V8  1  0.49178764  0.37145019  0.37661239  1
  V  V9  1  0.73975254  0.74294143  -0.00233203  1
  V  V10  1  0.11854261  0.00528543  0.61325462  1
  V  V11  1  0.37797049  0.51411774  0.86446839  1
  V  V12  1  0.63227024  0.50372650  0.12665501  1
  V  V13  1  0.25549858  0.74161122  0.49859921  1
  V  V14  1  0.00659809  0.86255281  0.87789110  1
  V  V15  1  0.37549025  0.00015495  0.87923942  1
  V  V16  1  0.63541607  0.12768786  0.48914547  1
  V  V17  1  0.37996687  -0.00440281  0.36061792  1
  V  V18  1  0.24988728  0.49467823  0.22486648  1
  V  V19  1  0.50129959  0.12265020  0.10905497  1
  V  V20  1  0.00000655  0.21522644  0.75238520  1
  V  V21  1  0.36530021  0.25240970  0.11609626  1
  V  V22  1  0.50719625  0.87837092  0.87681938  1
  V  V23  1  0.25099337  0.87915004  0.13853922  1
  V  V24  1  0.36721960  0.74274415  0.12537778  1
  V  V25  1  0.62931925  0.37010704  0.24485368  1
  V  V26  1  0.25194468  0.87776597  0.62304644  1
  V  V27  1  0.50212247  0.62847096  0.12242898  1
  V  V28  1  0.50410016  0.37384343  0.87145963  1
  V  V29  1  0.13065729  -0.00281355  0.13989160  1
  V  V30  1  0.36713208  0.37231238  -0.00235117  1
  V  V31  1  -0.00356042  0.77963002  0.24296893  1
  V  V32  1  0.74574836  0.60530146  0.86227680  1
  V  V33  1  0.11244764  0.38775888  0.25960951  1
  V  V34  1  0.86408296  0.37507311  0.01762553  1
  V  V35  1  0.36944281  0.13295186  0.75268062  1
  V  V36  1  0.23871058  0.65340805  0.88542810  1
  V  V37  1  0.00120981  0.49446102  0.00193861  1
  V  V38  1  0.73738722  0.01655675  0.26394493  1
  V  V39  1  0.36413731  0.12550638  0.24361714  1
  V  V40  1  0.87210096  0.87898964  0.48680983  1
  V  V41  1  0.50444798  0.50697444  -0.00096064  1
  V  V42  1  0.11026027  0.76919355  0.39131344  1
  V  V43  1  0.01022930  -0.00430338  0.00025502  1
  V  V44  1  -0.00653006  0.12682149  0.13168630  1
  V  V45  1  0.12374554  0.51725644  0.60014859  1
  V  V46  1  0.51073297  0.11893951  0.62393277  1
  V  V47  1  0.62655062  -0.01721433  0.62702575  1
  V  V48  1  0.74684884  0.87536581  0.12941763  1
  V  V49  1  0.49648084  0.74630561  0.26272149  1
  V  V50  1  0.87643891  0.87344955  0.00485273  1
  V  V51  1  0.73382728  0.12110812  0.88765897  1
  V  V52  1  0.90815998  0.37695586  0.52197429  1
  V  V53  1  0.64333419  0.48646751  0.62821059  1
  V  V54  1  0.38803663  0.88997549  0.50382976  1
  V  V55  1  0.87277092  0.72748473  0.12985894  1
  V  V56  1  0.13852367  0.13096960  -0.01293678  1
  V  V57  1  0.76240365  0.50628157  0.26585789  1
  V  V58  1  0.00352761  0.73890818  0.75256743  1
  V  V59  1  0.63719599  0.62926421  0.49871214  1
  V  V60  1  0.22742998  0.50951779  0.75925705  1
  V  V61  1  0.12862018  0.86548499  0.75531177  1
  V  V62  1  0.24152254  0.12975579  0.39396944  1
  V  V63  1  0.61900451  0.00029557  0.11267892  1
  V  V64  1  0.49874642  0.61157814  0.62544902  1
  V  V65  1  0.86591220  0.22944408  0.63114723  1
  V  V66  1  0.87735805  0.00467519  0.86983517  1
  V  V67  1  0.87224175  0.02799502  0.37374225  1
  V  V68  1  0.74389739  -0.01439787  0.75038955  1
  V  V69  1  0.61812239  0.86913431  0.26985317  1
  Zn  Zn70  1  0.62003421  0.23296104  0.91718957  1
  Zn  Zn71  1  0.36456815  0.47962414  0.36434501  1
  Zn  Zn72  1  0.51120923  0.24308384  0.24523844  1
  Zn  Zn73  1  0.62423625  0.74640547  0.87662390  1
  Zn  Zn74  1  0.87440379  0.61926088  0.74895976  1
  Zn  Zn75  1  0.65058099  0.37353033  0.75030009  1
  Zn  Zn76  1  0.18277165  0.18787260  0.17369519  1
  Zn  Zn77  1  0.18218691  0.19356106  0.68124325  1
  Zn  Zn78  1  0.17842418  0.68408728  0.19726068  1
  Zn  Zn79  1  0.19309747  0.68062367  0.68897476  1
  Zn  Zn80  1  0.67170988  0.21500475  0.12063562  1
  Zn  Zn81  1  0.69888593  0.17217545  0.69840679  1
  Zn  Zn82  1  0.68345817  0.68276641  0.19460183  1
  Zn  Zn83  1  0.68599694  0.67760436  0.68825384  1
  Zn  Zn84  1  0.30025257  0.31121507  0.30577991  1
  Zn  Zn85  1  0.31683200  0.32948345  0.79608692  1
  Zn  Zn86  1  0.31666771  0.81321159  0.31727120  1
  Zn  Zn87  1  0.32093892  0.81568735  0.80942946  1
  Zn  Zn88  1  0.91657153  0.41043963  0.32847121  1
  Zn  Zn89  1  0.81474384  0.28836297  0.81622755  1
  Zn  Zn90  1  0.81048777  0.81338206  0.30605020  1
  Zn  Zn91  1  0.82032017  0.80617890  0.81390013  1
  Zn  Zn92  1  0.18654994  0.43248759  0.42780741  1
  Zn  Zn93  1  0.19072113  0.43861303  0.93731188  1
  Zn  Zn94  1  0.19706067  0.94251873  0.43010318  1
  Zn  Zn95  1  0.19258864  0.93181892  0.93988804  1
  Zn  Zn96  1  0.65129112  0.47155091  0.41922302  1
  Zn  Zn97  1  0.68871506  0.42541795  0.94080022  1
  Zn  Zn98  1  0.69233000  0.93652954  0.44926435  1
  Zn  Zn99  1  0.69219062  0.93104187  0.93735511  1
  Zn  Zn100  1  0.31151492  0.05959615  0.05962683  1
  Zn  Zn101  1  0.34144450  0.10155032  0.54593790  1
  Zn  Zn102  1  0.31476604  0.56262563  0.05622366  1
  Zn  Zn103  1  0.31991499  0.54739392  0.57395755  1
  Zn  Zn104  1  0.81251758  0.05856669  0.06628820  1
  Zn  Zn105  1  0.80848472  0.05572200  0.55868734  1
  Zn  Zn106  1  0.81173443  0.55511926  0.04512803  1
  Zn  Zn107  1  0.82147499  0.55691987  0.55743816  1
  Zn  Zn108  1  0.43989893  0.43659523  0.19014903  1
  Zn  Zn109  1  0.42896126  0.43009119  0.68246513  1
  Zn  Zn110  1  0.44137668  0.93334249  0.18625532  1
  Zn  Zn111  1  0.43990768  0.93638280  0.69287878  1
  Zn  Zn112  1  0.94628070  0.44997872  0.16918817  1
  Zn  Zn113  1  0.81448965  0.42219678  0.69779871  1
  Zn  Zn114  1  0.92545161  0.96646697  0.18749732  1
  Zn  Zn115  1  0.94153616  0.93745348  0.68915563  1
  Zn  Zn116  1  0.04415103  0.09825561  0.33503239  1
  Zn  Zn117  1  0.07010312  0.05220153  0.81399537  1
  Zn  Zn118  1  0.24528500  0.61644386  0.36325894  1
  Zn  Zn119  1  0.06564531  0.57395992  0.85972536  1
  Zn  Zn120  1  0.55380937  0.06527903  0.30853080  1
  Zn  Zn121  1  0.56469627  0.05771407  0.81113898  1
  Zn  Zn122  1  0.55123662  0.56099885  0.31192644  1
  Zn  Zn123  1  0.56792991  0.56363813  0.80809420  1
  Zn  Zn124  1  0.43345257  0.20831119  0.42216856  1
  Zn  Zn125  1  0.43593933  0.18779301  0.93141232  1
  Zn  Zn126  1  0.43959515  0.68587293  0.45189048  1
  Zn  Zn127  1  0.43567247  0.69336207  0.93893802  1
  Zn  Zn128  1  0.89449856  0.22776809  0.41869873  1
  Zn  Zn129  1  0.95638628  0.18448595  0.93449304  1
  Zn  Zn130  1  0.93277162  0.71465876  0.43155198  1
  Zn  Zn131  1  0.92533802  0.68151608  0.93753349  1
  Zn  Zn132  1  0.04693488  0.30408297  0.05616872  1
  Zn  Zn133  1  0.05348946  0.33424516  0.63499220  1
  Zn  Zn134  1  0.06242585  0.81347111  0.07783419  1
  Zn  Zn135  1  0.05720666  0.82512817  0.56683352  1
  Zn  Zn136  1  0.55043814  0.32179115  0.06528454  1
  Zn  Zn137  1  0.56441785  0.31138299  0.55822795  1
  Zn  Zn138  1  0.55704087  0.81541012  0.06525015  1
  Zn  Zn139  1  0.56806036  0.80518566  0.55569046  1
  O  O140  1  0.11812436  0.10887962  0.11321968  1
  O  O141  1  0.13883025  0.10265542  0.62926730  1
  O  O142  1  0.12539506  0.65364431  0.08601929  1
  O  O143  1  0.11006847  0.63133359  0.62271690  1
  O  O144  1  0.61211739  0.11150555  0.12483291  1
  O  O145  1  0.61897723  0.11500172  0.63426033  1
  O  O146  1  0.61148768  0.61759671  0.12483956  1
  O  O147  1  0.61725035  0.61243518  0.62242599  1
  O  O148  1  0.38509274  0.36110299  0.36659090  1
  O  O149  1  0.38451113  0.38070232  0.88140619  1
  O  O150  1  0.37099004  0.88957694  0.38877946  1
  O  O151  1  0.38352193  0.88119676  0.88224214  1
  O  O152  1  0.89363538  0.34503550  0.41191966  1
  O  O153  1  0.87907072  0.32471001  0.91191554  1
  O  O154  1  0.86964002  0.86491083  0.38516674  1
  O  O155  1  0.88476439  0.87684919  0.88940919  1
  O  O156  1  0.27448154  0.01584002  0.38533201  1
  O  O157  1  0.26062833  -0.01044586  0.86294186  1
  O  O158  1  0.24941122  0.50108919  0.36209448  1
  O  O159  1  0.26583220  0.49999511  0.86754799  1
  O  O160  1  0.74648883  0.00070109  0.36789622  1
  O  O161  1  0.76411971  -0.00281529  0.87622308  1
  O  O162  1  0.75063612  0.49821315  0.36459291  1
  O  O163  1  0.74708516  0.50941813  0.88748147  1
  O  O164  1  0.25067357  0.49816739  0.12387764  1
  O  O165  1  0.22709750  0.53616327  0.64787240  1
  O  O166  1  0.24352998  0.98847785  0.12378278  1
  O  O167  1  0.24849005  0.98653839  0.63902213  1
  O  O168  1  0.73201685  0.50864417  0.11671571  1
  O  O169  1  0.74637826  0.49486080  0.63154098  1
  O  O170  1  0.73534402  0.99349482  0.13826986  1
  O  O171  1  0.74192273  1.00022429  0.64370043  1
  O  O172  1  0.00387039  0.39909482  0.25507741  1
  O  O173  1  -0.02021119  0.39776733  0.74566234  1
  O  O174  1  -0.01202659  0.87758236  0.23646634  1
  O  O175  1  0.01001886  0.86452053  0.76021911  1
  O  O176  1  0.51016601  0.36649661  0.24586411  1
  O  O177  1  0.48555424  0.35568760  0.75439617  1
  O  O178  1  0.51110412  0.86450112  0.25006843  1
  O  O179  1  0.49493491  0.86180687  0.76528005  1
  O  O180  1  0.48706256  0.12485724  0.23413609  1
  O  O181  1  0.49791999  0.13789315  0.75634703  1
  O  O182  1  0.50222031  0.63979086  0.24012620  1
  O  O183  1  0.50628393  0.63990068  0.73938768  1
  O  O184  1  1.01565033  0.12969833  0.22915949  1
  O  O185  1  1.00411662  0.11458839  0.74791561  1
  O  O186  1  0.99395774  0.62745264  0.25846335  1
  O  O187  1  1.00527080  0.63758615  0.76820849  1
  O  O188  1  0.37955184  0.26100561  0.00153199  1
  O  O189  1  0.38331416  0.20311206  0.51609891  1
  O  O190  1  0.37913363  0.75835760  0.01800053  1
  O  O191  1  0.37069864  0.76044991  0.51740684  1
  O  O192  1  0.87758404  0.26630181  -0.02530699  1
  O  O193  1  0.87612109  0.25960703  0.52655816  1
  O  O194  1  0.86649157  0.75597819  0.01383055  1
  O  O195  1  0.87082781  0.76000660  0.51751073  1
  O  O196  1  0.07008042  0.24010366  0.43828679  1
  O  O197  1  0.11664204  0.22895962  1.00333800  1
  O  O198  1  0.13978372  0.76559293  0.49507749  1
  O  O199  1  0.11505605  0.71084334  1.03694596  1
  O  O200  1  0.61596739  0.22573361  0.50664252  1
  O  O201  1  0.63498941  0.26035426  1.02416043  1
  O  O202  1  0.62867370  0.73131222  0.49855744  1
  O  O203  1  0.63830060  0.75438262  1.00776860  1
  O  O204  1  0.49114182  0.23386233  0.12218170  1
  O  O205  1  0.50575090  0.23618781  0.64135195  1
  O  O206  1  0.49131277  0.74438109  0.13012902  1
  O  O207  1  0.49743510  0.75053123  0.63727201  1
  O  O208  1  0.97770442  0.22165471  0.10486205  1
  O  O209  1  0.97891064  0.24673579  0.64322023  1
  O  O210  1  0.97584036  0.75523328  0.12833386  1
  O  O211  1  0.99761461  0.74174535  0.63441074  1
  O  O212  1  0.00698821  0.19781287  0.39394757  1
  O  O213  1  0.00700920  0.24055565  0.85172416  1
  O  O214  1  0.00577531  0.76548230  0.35660125  1
  O  O215  1  -0.00919819  0.75882819  0.87266673  1
  O  O216  1  0.50556469  0.26030509  0.35882051  1
  O  O217  1  0.50917852  0.25553847  0.87068605  1
  O  O218  1  0.48521350  0.74107613  0.36128923  1
  O  O219  1  0.50157632  0.75465996  0.86486558  1
  O  O220  1  0.24354568  0.13065460  0.49506452  1
  O  O221  1  0.23807070  0.12186900  1.00193895  1
  O  O222  1  0.24920358  0.64559870  0.51958550  1
  O  O223  1  0.25667523  0.62027591  0.98047250  1
  O  O224  1  0.73549105  0.12117854  0.49969075  1
  O  O225  1  0.75531709  0.11156677  0.98816765  1
  O  O226  1  0.73684660  0.61688654  0.51070187  1
  O  O227  1  0.75250360  0.64035278  0.99136401  1
  O  O228  1  0.26855601  0.38077172  -0.00473309  1
  O  O229  1  0.22969200  0.36814473  0.51404874  1
  O  O230  1  0.26368682  0.87390408  0.01052263  1
  O  O231  1  0.26438119  0.86789035  0.51118061  1
  O  O232  1  0.76325495  0.37994614  0.01103260  1
  O  O233  1  0.72102386  0.34222072  0.46978011  1
  O  O234  1  0.75746065  0.86708579  0.01172632  1
  O  O235  1  0.77024503  0.88092980  0.51023804  1
  O  O236  1  0.13431061  0.48643484  0.23839822  1
  O  O237  1  0.13013892  0.50778468  0.77880376  1
  O  O238  1  0.12487605  1.00007872  0.23494420  1
  O  O239  1  0.13690353  0.98450367  0.74712000  1
  O  O240  1  0.62597368  0.50367882  0.23578414  1
  O  O241  1  0.61663818  0.49230915  0.73313407  1
  O  O242  1  0.62557366  0.98439840  0.24854282  1
  O  O243  1  0.63688404  0.99117780  0.74836483  1
  O  O244  1  0.37863652  0.00544272  0.25349913  1
  O  O245  1  0.36853377  0.00228548  0.76025232  1
  O  O246  1  0.35570304  0.49009502  0.24335926  1
  O  O247  1  0.38288374  0.50204190  0.76506493  1
  O  O248  1  0.84666675  -0.00425688  0.26620465  1
  O  O249  1  0.87117203  -0.00915937  0.76656085  1
  O  O250  1  0.86554277  0.48505489  0.25354463  1
  O  O251  1  0.89028670  0.49996995  0.75050830  1
  O  O252  1  0.11931841  0.37141198  0.35940544  1
  O  O253  1  0.16436195  0.32587816  0.87329839  1
  O  O254  1  0.15712482  0.85436693  0.36289191  1
  O  O255  1  0.11742203  0.87625337  0.86905566  1
  O  O256  1  0.61092037  0.38487496  0.35159702  1
  O  O257  1  0.60833110  0.37950749  0.87153636  1
  O  O258  1  0.62797932  0.87543031  0.36795428  1
  O  O259  1  0.60935182  0.87238639  0.88380819  1
  O  O260  1  0.38346883  0.12733496  0.12337616  1
  O  O261  1  0.39771487  0.11033951  0.65016815  1
  O  O262  1  0.37984733  0.63882967  0.12300052  1
  O  O263  1  0.39021721  0.63351197  0.62298555  1
  O  O264  1  0.89884916  0.08004791  0.13383471  1
  O  O265  1  0.86870851  0.12863185  0.62058148  1
  O  O266  1  0.87104667  0.62970959  0.11922793  1
  O  O267  1  0.89294962  0.63278323  0.62445566  1
  O  O268  1  0.26733141  0.24519034  0.11517727  1
  O  O269  1  0.25488716  0.27743170  0.64486443  1
  O  O270  1  0.26321220  0.75849213  0.13471598  1
  O  O271  1  0.25875644  0.75927615  0.62476650  1
  O  O272  1  0.79467544  0.21979255  0.13488927  1
  O  O273  1  0.76544799  0.24952092  0.65325278  1
  O  O274  1  0.75797159  0.75350424  0.12079574  1
  O  O275  1  0.76616848  0.74441743  0.64094256  1
  O  O276  1  0.24944654  0.22644410  0.36111445  1
  O  O277  1  0.22030590  0.27822827  0.85655785  1
  O  O278  1  0.28099783  0.73865977  0.39710017  1
  O  O279  1  0.26807186  0.75001195  0.88224783  1
  O  O280  1  0.73646146  0.29720862  0.41504937  1
  O  O281  1  0.73583718  0.22379844  0.87445821  1
  O  O282  1  0.77338918  0.71206079  0.36811325  1
  O  O283  1  0.74499860  0.76283890  0.89317693  1
  O  O284  1  0.00820454  0.10635199  0.00493342  1
  O  O285  1  0.08634128  0.21033507  0.50372956  1
  O  O286  1  -0.01420353  0.58721260  -0.05377188  1
  O  O287  1  -0.00037081  0.64473657  0.49722832  1
  O  O288  1  0.49312327  0.12212647  0.00978599  1
  O  O289  1  0.51091098  0.11198093  0.52571307  1
  O  O290  1  0.49333236  0.61817084  0.00829950  1
  O  O291  1  0.51249065  0.63282332  0.52300576  1
  O  O292  1  0.50775587  0.36852334  0.47654266  1
  O  O293  1  0.49050718  0.38511433  0.98832122  1
  O  O294  1  0.48538243  0.86943848  0.50573278  1
  O  O295  1  0.48768503  0.86701322  0.98616522  1
  O  O296  1  1.00772245  0.37557446  0.53351838  1
  O  O297  1  0.99102069  0.38613172  1.00207542  1
  O  O298  1  0.97649698  0.87120695  0.50510628  1
  O  O299  1  0.99842639  0.87510064  0.99801455  1
  O  O300  1  0.48518486  0.47897145  0.35595624  1
  O  O301  1  0.49341712  0.49794927  0.87883778  1
  O  O302  1  0.47654490  1.01114651  0.37944605  1
  O  O303  1  0.49174094  0.98445873  0.86638794  1
  O  O304  1  0.97499209  0.60196447  0.32486224  1
  O  O305  1  0.96806140  0.46870860  0.76951514  1
  O  O306  1  0.97041794  1.01455836  0.35788774  1
  O  O307  1  0.99238151  0.98464268  0.88150690  1
  O  O308  1  0.01965235  -0.00886563  0.11552730  1
  O  O309  1  0.01973390  -0.00845663  0.63044469  1
  O  O310  1  0.01025478  0.51643010  0.09921727  1
  O  O311  1  0.01639492  0.52537677  0.61085094  1
  O  O312  1  0.51040931  0.00528856  0.12550531  1
  O  O313  1  0.51856287  0.00771799  0.64813373  1
  O  O314  1  0.49779260  0.51293437  0.11771356  1
  O  O315  1  0.49523495  0.51120216  0.63086886  1
  O  O316  1  0.23469024  0.38431920  0.24727448  1
  O  O317  1  0.25569013  0.40763000  0.73879014  1
  O  O318  1  0.26025736  0.87513446  0.23718778  1
  O  O319  1  0.24707298  0.87779254  0.74439117  1
  O  O320  1  0.72875844  0.39809241  0.24261826  1
  O  O321  1  0.75730919  0.37897592  0.78312684  1
  O  O322  1  0.73183772  0.86815411  0.24315123  1
  O  O323  1  0.75437015  0.88640110  0.76450113  1
  O  O324  1  0.26483688  0.12181313  0.22891319  1
  O  O325  1  0.26511607  0.11777475  0.74331634  1
  O  O326  1  0.24145728  0.60582004  0.24305725  1
  O  O327  1  0.24871633  0.61952462  0.77357419  1
  O  O328  1  0.72848753  0.11115114  0.25150662  1
  O  O329  1  0.74732513  0.09965170  0.77622517  1
  O  O330  1  0.74974191  0.60559561  0.24324007  1
  O  O331  1  0.75131917  0.61107184  0.75645148  1
  O  O332  1  0.36696076  0.12197714  0.35224977  1
  O  O333  1  0.38249330  0.11215534  0.86307885  1
  O  O334  1  0.36301132  0.60582953  0.41852277  1
  O  O335  1  0.37743799  0.61474616  0.87678324  1
  O  O336  1  0.86041985  0.12748139  0.37696444  1
  O  O337  1  0.87860412  0.10439960  0.88402465  1
  O  O338  1  0.83205940  0.66525482  0.38111530  1
  O  O339  1  0.84640632  0.64032428  0.86674268  1
  O  O340  1  0.11388264  0.33784050  0.15018920  1
  O  O341  1  0.14004735  0.41359255  0.63242844  1
  O  O342  1  0.14289930  0.88229190  0.11970160  1
  O  O343  1  0.13566513  0.87879107  0.63599673  1
  O  O344  1  0.61001351  0.39813004  0.13283043  1
  O  O345  1  0.62283151  0.38256689  0.62819528  1
  O  O346  1  0.62929720  0.88362060  0.13031450  1
  O  O347  1  0.61929075  0.88403668  0.62265277  1
  O  O348  1  0.11475446  0.27632710  0.21120894  1
  O  O349  1  0.09756126  0.25875616  0.72199402  1
  O  O350  1  0.09379323  0.75651886  0.22107329  1
  O  O351  1  0.12123447  0.76053637  0.74388889  1
  O  O352  1  0.63468156  0.26824004  0.22145558  1
  O  O353  1  0.61587107  0.25335704  0.75255190  1
  O  O354  1  0.61222050  0.75886765  0.24960329  1
  O  O355  1  0.61509436  0.75366696  0.74848166  1
  O  O356  1  0.37342882  0.23783014  0.22919433  1
  O  O357  1  0.37754878  0.23589041  0.76148953  1
  O  O358  1  0.38930135  0.76196827  0.23661092  1
  O  O359  1  0.38623777  0.75343365  0.73861107  1
  O  O360  1  0.82490114  0.23314015  0.20079826  1
  O  O361  1  0.88873947  0.23673364  0.74826002  1
  O  O362  1  0.88120404  0.75081100  0.23654144  1
  O  O363  1  0.88834636  0.74684500  0.74129176  1
  O  O364  1  0.37273055  0.53693508  0.47046180  1
  O  O365  1  0.38521988  0.48982878  0.99060631  1
  O  O366  1  0.37753416  0.99086712  0.50958814  1
  O  O367  1  0.37220907  0.99142045  0.98772689  1
  O  O368  1  0.87752038  0.47405117  0.50516777  1
  O  O369  1  0.88439553  0.48297446  0.99625237  1
  O  O370  1  0.86807326  0.99478194  0.47921743  1
  O  O371  1  0.88632192  0.98618034  0.99379765  1
  O  O372  1  0.12018709  0.00064282  0.00024932  1
  O  O373  1  0.13344068  -0.01485548  0.51491003  1
  O  O374  1  0.09517735  0.48901838  -0.05062830  1
  O  O375  1  0.14121202  0.51558644  0.50375196  1
  O  O376  1  0.62928227  -0.00832358  0.01521843  1
  O  O377  1  0.63189511  0.00588287  0.52381910  1
  O  O378  1  0.60984712  0.49315178  0.01000393  1
  O  O379  1  0.62329723  0.50265745  0.52517309  1
  O  O380  1  0.38523046  0.36106169  0.10914092  1
  O  O381  1  0.34284623  0.42483559  0.60794622  1
  O  O382  1  0.36819373  0.87258727  0.11893460  1
  O  O383  1  0.37160876  0.87155418  0.62150517  1
  O  O384  1  0.88217116  0.36860043  0.11684445  1
  O  O385  1  0.87189667  0.36454902  0.62110533  1
  O  O386  1  0.85940316  0.88411808  0.11898123  1
  O  O387  1  0.87571273  0.86362952  0.63140904  1
  O  O388  1  0.14802114  0.10235736  0.37026703  1
  O  O389  1  0.12690861  0.11526574  0.88749456  1
  O  O390  1  0.14616740  0.68350945  0.35526061  1
  O  O391  1  0.13913719  0.65873927  0.88165452  1
  O  O392  1  0.61425892  0.11127306  0.39202019  1
  O  O393  1  0.62934156  0.11214527  0.88892295  1
  O  O394  1  0.61594920  0.59535178  0.40111685  1
  O  O395  1  0.64023098  0.63079662  0.86958953  1
