# generated using pymatgen
data_V35Zn35O128
_symmetry_space_group_name_H-M   'P 1'
_cell_length_a   16.93969070
_cell_length_b   16.99360699
_cell_length_c   16.99165278
_cell_angle_alpha   90.30814252
_cell_angle_beta   89.96048384
_cell_angle_gamma   90.36975474
_symmetry_Int_Tables_number   1
_chemical_formula_structural   V35Zn35O128
_chemical_formula_sum   'V70 Zn70 O256'
_cell_volume   4891.15306506
_cell_formula_units_Z   2
loop_
 _symmetry_equiv_pos_site_id
 _symmetry_equiv_pos_as_xyz
  1  'x, y, z'
loop_
 _atom_site_type_symbol
 _atom_site_label
 _atom_site_symmetry_multiplicity
 _atom_site_fract_x
 _atom_site_fract_y
 _atom_site_fract_z
 _atom_site_occupancy
  V  V0  1  0.50766156  0.62795869  0.11541360  1
  V  V1  1  0.89694268  0.46861565  0.87747616  1
  V  V2  1  0.49641153  0.62982001  0.63273592  1
  V  V3  1  0.48845493  0.00031746  0.48973015  1
  V  V4  1  0.47977958  0.11364382  0.12109188  1
  V  V5  1  0.25567301  0.24505702  0.49699448  1
  V  V6  1  0.62957420  0.87608168  0.24899270  1
  V  V7  1  0.32169760  0.79605788  0.56062177  1
  V  V8  1  0.50920375  0.12114517  0.62448346  1
  V  V9  1  0.32245408  0.05902491  0.31853366  1
  V  V10  1  0.38193645  0.50637901  0.37287323  1
  V  V11  1  0.00254467  0.88351717  0.89075042  1
  V  V12  1  -0.00214151  -0.03079399  0.52414841  1
  V  V13  1  0.24523308  -0.02160368  0.73205651  1
  V  V14  1  0.11346141  0.36514353  0.25526368  1
  V  V15  1  0.62988691  0.11852732  0.49785456  1
  V  V16  1  0.62840919  0.38113272  0.25309280  1
  V  V17  1  0.76085994  0.74868176  0.00931044  1
  V  V18  1  0.62025330  0.00536398  0.11551598  1
  V  V19  1  0.00594023  0.62959397  0.60543669  1
  V  V20  1  0.76820935  0.87751828  0.11974296  1
  V  V21  1  0.75773541  0.25637929  0.50397702  1
  V  V22  1  0.11777235  0.00323688  0.15540599  1
  V  V23  1  0.06372983  0.80579043  0.33713194  1
  V  V24  1  0.50793032  0.47948063  -0.00149026  1
  V  V25  1  0.36890808  0.85209204  0.03194362  1
  V  V26  1  0.86565638  0.74232408  0.66062005  1
  V  V27  1  0.36955694  0.62268611  0.76039215  1
  V  V28  1  0.37614821  0.62418525  0.23798976  1
  V  V29  1  0.88769172  0.13658743  0.24367585  1
  V  V30  1  0.62615616  0.49698186  0.64281201  1
  V  V31  1  0.39582221  0.27723898  0.63667822  1
  V  V32  1  0.75145235  0.76634914  0.51256639  1
  V  V33  1  0.62493275  0.62781618  0.49846493  1
  V  V34  1  0.49157680  0.88006160  0.37201673  1
  V  V35  1  0.25265184  0.48906518  0.23583864  1
  V  V36  1  0.49971935  0.50014704  0.49713298  1
  V  V37  1  0.38675728  -0.01243138  0.86523509  1
  V  V38  1  0.83733699  0.50254369  0.37104837  1
  V  V39  1  0.49402122  0.24359311  0.24274483  1
  V  V40  1  0.13559405  0.75274154  0.89948838  1
  V  V41  1  0.61993273  0.25095394  0.37489288  1
  V  V42  1  0.10954697  0.48648286  0.11637285  1
  V  V43  1  0.75263138  0.12598303  0.37180516  1
  V  V44  1  0.12581755  0.23534454  0.37700782  1
  V  V45  1  0.74176910  0.12619465  0.88736952  1
  V  V46  1  0.74576615  -0.01849917  0.73024707  1
  V  V47  1  0.88016781  0.12197169  0.73588433  1
  V  V48  1  0.37571770  0.49210075  0.88485408  1
  V  V49  1  0.86213512  0.62993809  0.24965033  1
  V  V50  1  0.37826315  0.38565624  0.49190569  1
  V  V51  1  0.62012547  0.76327611  0.89289587  1
  V  V52  1  0.75283962  0.35165137  0.11849491  1
  V  V53  1  0.00008677  0.63510352  0.12627754  1
  V  V54  1  0.13195246  0.11320125  -0.01007357  1
  V  V55  1  0.23886505  0.62816131  0.37797008  1
  V  V56  1  0.50042346  0.74737635  0.24787140  1
  V  V57  1  0.87173736  -0.00575510  0.88974588  1
  V  V58  1  0.00149715  0.72800409  0.77659248  1
  V  V59  1  0.75703649  0.00218629  0.25051406  1
  V  V60  1  0.75268976  0.37925898  0.63121436  1
  V  V61  1  0.24647028  0.12417160  0.86002447  1
  V  V62  1  0.63260283  0.75008795  0.37645500  1
  V  V63  1  0.74938150  0.62524930  0.85317873  1
  V  V64  1  0.50700870  0.75838114  0.75943614  1
  V  V65  1  0.24754773  0.40098768  0.63185326  1
  V  V66  1  0.37402444  0.11632059  0.73350503  1
  V  V67  1  0.11383586  0.26364463  0.85904402  1
  V  V68  1  -0.00600739  0.13195509  0.09344437  1
  V  V69  1  0.64174458  0.50077886  0.11988052  1
  Zn  Zn70  1  0.88434344  -0.00300761  0.38391635  1
  Zn  Zn71  1  0.29069328  0.24733410  0.01114892  1
  Zn  Zn72  1  0.09463013  0.87369736  0.71804674  1
  Zn  Zn73  1  0.88281567  0.39572105  0.49423852  1
  Zn  Zn74  1  0.94064082  0.30139855  0.17924958  1
  Zn  Zn75  1  0.24076220  0.62214540  0.87167229  1
  Zn  Zn76  1  0.20732469  0.18335695  0.19722996  1
  Zn  Zn77  1  0.21905243  0.21910994  0.69721187  1
  Zn  Zn78  1  0.15940294  0.66708920  0.22298885  1
  Zn  Zn79  1  0.16560871  0.72735768  0.66533015  1
  Zn  Zn80  1  0.68183801  0.18730750  0.18887727  1
  Zn  Zn81  1  0.69846244  0.17442072  0.69620198  1
  Zn  Zn82  1  0.68910114  0.68912514  0.18347672  1
  Zn  Zn83  1  0.67836293  0.69325230  0.68834980  1
  Zn  Zn84  1  0.31586017  0.31164646  0.31202694  1
  Zn  Zn85  1  0.32382121  0.31218735  0.81051499  1
  Zn  Zn86  1  0.21145952  0.83501573  0.39755708  1
  Zn  Zn87  1  0.31712473  0.80644916  0.80888183  1
  Zn  Zn88  1  0.80948851  0.31674054  0.31320707  1
  Zn  Zn89  1  0.80939262  0.30025796  0.80945778  1
  Zn  Zn90  1  0.82206986  0.80910438  0.30701756  1
  Zn  Zn91  1  0.80803826  0.81832846  0.82786904  1
  Zn  Zn92  1  0.21206170  0.42380532  0.41614421  1
  Zn  Zn93  1  0.19562101  0.43059475  0.93281559  1
  Zn  Zn94  1  0.17550377  0.92052637  0.56080368  1
  Zn  Zn95  1  0.20000620  0.93241392  0.92753741  1
  Zn  Zn96  1  0.67968607  0.43674035  0.44068800  1
  Zn  Zn97  1  0.72093177  0.44920910  0.94457835  1
  Zn  Zn98  1  0.68915591  0.93871469  0.43510671  1
  Zn  Zn99  1  0.68602101  0.93934261  0.93620267  1
  Zn  Zn100  1  0.30123177  0.02365790  0.05204218  1
  Zn  Zn101  1  0.31021152  0.05566123  0.55525044  1
  Zn  Zn102  1  0.31452728  0.42789326  0.06208915  1
  Zn  Zn103  1  0.28365900  0.60438483  0.58375208  1
  Zn  Zn104  1  0.81179351  0.06557932  0.06514376  1
  Zn  Zn105  1  0.81966102  0.05325489  0.55998255  1
  Zn  Zn106  1  0.82232667  0.57159331  0.04067013  1
  Zn  Zn107  1  0.80682736  0.57238258  0.55918058  1
  Zn  Zn108  1  0.44920979  0.43573443  0.18767765  1
  Zn  Zn109  1  0.43218846  0.44904910  0.68867641  1
  Zn  Zn110  1  0.42987115  0.93210800  0.18876638  1
  Zn  Zn111  1  0.45039823  0.92755749  0.67273638  1
  Zn  Zn112  1  0.89881915  0.47737776  0.16316916  1
  Zn  Zn113  1  0.90616259  0.48013993  0.68019037  1
  Zn  Zn114  1  0.95884586  0.93787680  0.18314469  1
  Zn  Zn115  1  0.92365472  0.92078932  0.70064633  1
  Zn  Zn116  1  0.11872683  0.01364729  0.37499431  1
  Zn  Zn117  1  0.06404464  0.04902174  0.79557364  1
  Zn  Zn118  1  0.05375523  0.55496794  0.30307483  1
  Zn  Zn119  1  0.06063836  0.56244734  0.94728557  1
  Zn  Zn120  1  0.56172306  0.06324586  0.30647241  1
  Zn  Zn121  1  0.57216798  0.05533140  0.80365437  1
  Zn  Zn122  1  0.56851776  0.56589029  0.31180572  1
  Zn  Zn123  1  0.57112753  0.57178531  0.82671294  1
  Zn  Zn124  1  0.43823365  0.19246857  0.43997499  1
  Zn  Zn125  1  0.42439415  0.13607705  0.95152232  1
  Zn  Zn126  1  0.38022584  0.73871874  0.38605270  1
  Zn  Zn127  1  0.43277796  0.69098124  0.94024254  1
  Zn  Zn128  1  0.93889473  0.18718358  0.43120082  1
  Zn  Zn129  1  0.95823029  0.16758433  0.88455088  1
  Zn  Zn130  1  0.92575080  0.68583357  0.42960647  1
  Zn  Zn131  1  0.93290103  0.68784857  0.94441954  1
  Zn  Zn132  1  0.15006684  0.30034535  0.05923857  1
  Zn  Zn133  1  0.08262740  0.33847558  0.54198199  1
  Zn  Zn134  1  0.06230739  0.82328246  0.07331299  1
  Zn  Zn135  1  0.05924996  0.78421710  0.52554278  1
  Zn  Zn136  1  0.44728974  0.29979551  0.05440577  1
  Zn  Zn137  1  0.56902955  0.31199909  0.69312467  1
  Zn  Zn138  1  0.55271176  0.82564993  0.06249530  1
  Zn  Zn139  1  0.55583124  0.81476738  0.56029834  1
  O  O140  1  0.11379809  0.11570452  0.09695150  1
  O  O141  1  0.02638935  0.19829868  0.62279640  1
  O  O142  1  0.10637614  0.60198584  0.13719946  1
  O  O143  1  0.10423339  0.63418943  0.62944280  1
  O  O144  1  0.63264627  0.10499028  0.12763489  1
  O  O145  1  0.61440562  0.13004421  0.61284879  1
  O  O146  1  0.61529321  0.60957850  0.13834441  1
  O  O147  1  0.61730661  0.61460267  0.62298938  1
  O  O148  1  0.36831154  0.39461206  0.38095507  1
  O  O149  1  0.37565569  0.39352972  0.86995034  1
  O  O150  1  0.39544435  0.86479691  0.36899362  1
  O  O151  1  0.36957073  0.88842351  0.87017264  1
  O  O152  1  0.85563275  0.39590205  0.37904378  1
  O  O153  1  0.87814810  0.37000645  0.86518310  1
  O  O154  1  0.90100547  0.89242259  0.33313306  1
  O  O155  1  0.88695183  0.88484689  0.88101993  1
  O  O156  1  0.24202167  0.02482708  0.39954801  1
  O  O157  1  0.25951252  0.00470547  0.84869403  1
  O  O158  1  0.25996896  0.50989593  0.35773661  1
  O  O159  1  0.27013029  0.50992761  0.89417614  1
  O  O160  1  0.75732828  0.00715425  0.36717708  1
  O  O161  1  0.76326355  -0.00481853  0.87303266  1
  O  O162  1  0.73744147  0.50719815  0.36846255  1
  O  O163  1  0.72082241  0.52849611  0.86287586  1
  O  O164  1  0.24544792  0.49614391  0.13423883  1
  O  O165  1  0.25785622  0.50064292  0.62304280  1
  O  O166  1  0.21414174  1.00264684  0.12430451  1
  O  O167  1  0.24824615  0.99115042  0.62630394  1
  O  O168  1  0.74087206  0.50673831  0.11652619  1
  O  O169  1  0.73447377  0.49488204  0.61937693  1
  O  O170  1  0.74187063  0.99007418  0.13059019  1
  O  O171  1  0.75402755  0.99381798  0.63028953  1
  O  O172  1  0.01447455  0.36241876  0.24829360  1
  O  O173  1  0.07528082  0.45731028  0.74904835  1
  O  O174  1  -0.02582513  0.89034559  0.28918266  1
  O  O175  1  -0.00496346  0.85841789  0.77085483  1
  O  O176  1  0.51980959  0.35676836  0.23787914  1
  O  O177  1  0.46203082  0.34108357  0.70513928  1
  O  O178  1  0.51061338  0.86905852  0.25559886  1
  O  O179  1  0.48274277  0.85307679  0.75762861  1
  O  O180  1  0.50851158  0.13561101  0.23859481  1
  O  O181  1  0.49658081  0.11516034  0.72735502  1
  O  O182  1  0.49754823  0.63004923  0.24565001  1
  O  O183  1  0.50319516  0.62913027  0.74372140  1
  O  O184  1  0.98267251  0.13241568  0.25430499  1
  O  O185  1  0.98191665  0.11913086  0.76987951  1
  O  O186  1  0.98695800  0.61491568  0.23453873  1
  O  O187  1  0.99419715  0.63450871  0.79813989  1
  O  O188  1  0.39448033  0.24155414  -0.02736567  1
  O  O189  1  0.37363821  0.26930471  0.49967847  1
  O  O190  1  0.36211570  0.75633370  -0.00168098  1
  O  O191  1  0.38643883  0.74883340  0.49969325  1
  O  O192  1  0.88536376  0.26226510  -0.00853328  1
  O  O193  1  0.86013647  0.25460481  0.48695425  1
  O  O194  1  0.85961489  0.75530151  0.00599201  1
  O  O195  1  0.84568777  0.75083177  0.48660327  1
  O  O196  1  0.14654156  0.25866969  0.49090435  1
  O  O197  1  0.13010254  0.22679487  0.96677079  1
  O  O198  1  0.11289997  0.76911352  0.42420829  1
  O  O199  1  0.13359761  0.77250334  0.99786511  1
  O  O200  1  0.63935820  0.23402465  0.48611387  1
  O  O201  1  0.62674923  0.31039621  0.91134028  1
  O  O202  1  0.62610554  0.74851579  0.49657678  1
  O  O203  1  0.62335625  0.76256734  0.99608043  1
  O  O204  1  0.49299170  0.22881211  0.13528939  1
  O  O205  1  0.48662451  0.22767334  0.60680641  1
  O  O206  1  0.51700637  0.73683581  0.13744344  1
  O  O207  1  0.50446013  0.73322083  0.63733831  1
  O  O208  1  1.00824605  0.22988739  0.12020304  1
  O  O209  1  0.99611420  0.26212393  0.60294450  1
  O  O210  1  1.00646264  0.73354755  0.12424994  1
  O  O211  1  0.98494777  0.72208984  0.66662181  1
  O  O212  1  0.02604543  0.24798063  0.39060163  1
  O  O213  1  0.01297949  0.26192892  0.86476589  1
  O  O214  1  -0.02364381  0.75799005  0.35858120  1
  O  O215  1  0.00761265  0.75987484  0.88718319  1
  O  O216  1  0.51493728  0.24074442  0.36544827  1
  O  O217  1  0.56946332  0.27339928  0.88190237  1
  O  O218  1  0.51436940  0.76639680  0.36613487  1
  O  O219  1  0.51260615  0.74284082  0.87080732  1
  O  O220  1  0.26070690  0.14729985  0.50845191  1
  O  O221  1  0.24441902  0.11406577  0.97283401  1
  O  O222  1  0.24172024  0.61257285  0.47599528  1
  O  O223  1  0.24800873  0.64234875  1.04405586  1
  O  O224  1  0.75018882  0.13107822  0.49134575  1
  O  O225  1  0.75039075  0.11676076  0.98797543  1
  O  O226  1  0.72822687  0.64214272  0.50841913  1
  O  O227  1  0.74129018  0.65035383  1.02118052  1
  O  O228  1  0.24485582  0.35834646  0.00453410  1
  O  O229  1  0.26193903  0.37954289  0.50594348  1
  O  O230  1  0.28267778  0.91012312  0.00495507  1
  O  O231  1  0.25655557  0.85484331  0.50330227  1
  O  O232  1  0.74615831  0.36852841  0.02097027  1
  O  O233  1  0.74248061  0.36193200  0.50240758  1
  O  O234  1  0.74900581  0.87355941  0.01722598  1
  O  O235  1  0.73536776  0.86497829  0.50673998  1
  O  O236  1  0.13468191  0.48448079  0.24094056  1
  O  O237  1  0.12404416  0.51054677  0.74878796  1
  O  O238  1  0.11744580  1.02746288  0.25066129  1
  O  O239  1  0.13893756  0.98287806  0.74242843  1
  O  O240  1  0.61590411  0.48630696  0.24280922  1
  O  O241  1  0.61632234  0.50375693  0.73995436  1
  O  O242  1  0.63931411  0.99258362  0.24829230  1
  O  O243  1  0.64626677  0.99314770  0.74717261  1
  O  O244  1  0.38450844  0.00642170  0.25800834  1
  O  O245  1  0.36666883  -0.00088377  0.74074603  1
  O  O246  1  0.37163982  0.50376894  0.25087335  1
  O  O247  1  0.39349526  0.51373817  0.77360247  1
  O  O248  1  0.86208800  0.01934916  0.24104695  1
  O  O249  1  0.86595277  0.00084631  0.75767210  1
  O  O250  1  0.87223063  0.50620849  0.26952379  1
  O  O251  1  0.87846550  0.50477928  0.78286748  1
  O  O252  1  0.12879147  0.37503818  0.35904823  1
  O  O253  1  0.13847977  0.36087681  0.86621543  1
  O  O254  1  0.12355860  0.89827360  0.35132889  1
  O  O255  1  0.11582993  0.86735830  0.87630271  1
  O  O256  1  0.62958646  0.36592791  0.36171118  1
  O  O257  1  0.65125623  0.37648022  0.87202412  1
  O  O258  1  0.62357534  0.87218061  0.36110032  1
  O  O259  1  0.62856102  0.86173003  0.87458507  1
  O  O260  1  0.38191933  0.09627089  0.11292679  1
  O  O261  1  0.38386965  0.11914539  0.62549122  1
  O  O262  1  0.39826413  0.62008199  0.13586150  1
  O  O263  1  0.39195022  0.61022457  0.64422716  1
  O  O264  1  0.88620051  0.12897066  0.12843213  1
  O  O265  1  0.88117332  0.11350666  0.63571270  1
  O  O266  1  0.88797400  0.59654169  0.13332799  1
  O  O267  1  0.87885785  0.64380510  0.61510710  1
  O  O268  1  0.22932905  0.23117322  0.10330900  1
  O  O269  1  0.27124401  0.26855082  0.60978981  1
  O  O270  1  0.23995134  0.69870000  0.08901406  1
  O  O271  1  0.26783503  0.71884981  0.61230442  1
  O  O272  1  0.74599746  0.25268670  0.12297297  1
  O  O273  1  0.74833563  0.26216874  0.60875020  1
  O  O274  1  0.74313924  0.77106573  0.12142921  1
  O  O275  1  0.75742290  0.74884605  0.62135772  1
  O  O276  1  0.25108777  0.25998339  0.39057674  1
  O  O277  1  0.25687807  0.22700573  0.86100047  1
  O  O278  1  0.26165450  0.73073512  0.36630793  1
  O  O279  1  0.23601407  0.75173787  0.87180268  1
  O  O280  1  0.74223394  0.24158209  0.37930907  1
  O  O281  1  0.75429669  0.22515755  0.87369410  1
  O  O282  1  0.73607206  0.76319973  0.37996843  1
  O  O283  1  0.74064010  0.75280563  0.89612609  1
  O  O284  1  0.00719302  0.12802991  -0.00998154  1
  O  O285  1  0.00013666  0.09194907  0.46846303  1
  O  O286  1  -0.01030127  0.61988160  0.01841492  1
  O  O287  1  0.00631544  0.67128891  0.51049375  1
  O  O288  1  0.51051450  0.12051239  0.02624079  1
  O  O289  1  0.50901077  0.11476145  0.49657242  1
  O  O290  1  0.50225032  0.63255800  0.01624750  1
  O  O291  1  0.50859559  0.61678821  0.52128665  1
  O  O292  1  0.48877787  0.39548040  0.50182963  1
  O  O293  1  0.51308242  0.38211862  0.99826264  1
  O  O294  1  0.50938636  0.89037035  0.48093401  1
  O  O295  1  0.46675708  0.88022967  1.01444494  1
  O  O296  1  1.00420194  0.40387649  0.48954153  1
  O  O297  1  0.92995132  0.31765082  1.00561002  1
  O  O298  1  0.99155118  0.87262128  0.49733751  1
  O  O299  1  1.00276459  0.87856310  0.98982454  1
  O  O300  1  0.49139468  0.51220114  0.38279074  1
  O  O301  1  0.50103505  0.51071497  0.89665248  1
  O  O302  1  0.50624760  0.99055981  0.37749974  1
  O  O303  1  0.48488959  0.99883590  0.84702574  1
  O  O304  1  0.99814702  0.49506932  0.38891937  1
  O  O305  1  0.99531968  0.48313388  0.89933066  1
  O  O306  1  1.00174260  1.03753679  0.40306209  1
  O  O307  1  0.99219637  0.98792834  0.87088915  1
  O  O308  1  0.00484265  0.03108375  0.12983562  1
  O  O309  1  -0.00293625  -0.02727675  0.62528372  1
  O  O310  1  0.00933986  0.48445785  0.12055145  1
  O  O311  1  -0.01600757  0.53052960  0.61639564  1
  O  O312  1  0.51366975  0.00664997  0.14173947  1
  O  O313  1  0.49703661  0.01484704  0.60119731  1
  O  O314  1  0.50972364  0.50858473  0.11206318  1
  O  O315  1  0.51250912  0.50549087  0.62051901  1
  O  O316  1  0.25318872  0.38789787  0.25123970  1
  O  O317  1  0.26760802  0.37572916  0.72881849  1
  O  O318  1  0.27911541  0.96113421  0.36223199  1
  O  O319  1  0.25423617  0.87947031  0.74259470  1
  O  O320  1  0.73303403  0.36557823  0.24042426  1
  O  O321  1  0.75965339  0.36838852  0.72784610  1
  O  O322  1  0.74750460  0.88210284  0.24153085  1
  O  O323  1  0.76221995  0.88129240  0.74729836  1
  O  O324  1  0.26460440  0.11619393  0.26019237  1
  O  O325  1  0.25508971  0.11121923  0.74344787  1
  O  O326  1  0.26037492  0.61134900  0.24442021  1
  O  O327  1  0.27015752  0.62365217  0.75310961  1
  O  O328  1  0.74882039  0.11887774  0.25799127  1
  O  O329  1  0.76241716  0.10263953  0.75528419  1
  O  O330  1  0.76217018  0.62089062  0.23530407  1
  O  O331  1  0.75532519  0.64163269  0.75371009  1
  O  O332  1  0.37959002  0.11929819  0.37688977  1
  O  O333  1  0.36759181  0.11517657  0.84590225  1
  O  O334  1  0.36543079  0.61664178  0.35877704  1
  O  O335  1  0.37326668  0.61801003  0.87266038  1
  O  O336  1  0.86413767  0.12624354  0.36089427  1
  O  O337  1  0.86450440  0.10549898  0.86963286  1
  O  O338  1  0.86884016  0.61646316  0.35895204  1
  O  O339  1  0.84481758  0.63295533  0.89213755  1
  O  O340  1  0.12604377  0.38053682  0.13834496  1
  O  O341  1  0.14774293  0.38215812  0.62070931  1
  O  O342  1  0.07747857  0.90447198  0.15040471  1
  O  O343  1  0.12366721  0.82783466  0.61574100  1
  O  O344  1  0.64131786  0.38975390  0.13547789  1
  O  O345  1  0.63343775  0.39019710  0.62792793  1
  O  O346  1  0.62430555  0.88477081  0.13936941  1
  O  O347  1  0.55911427  0.89292687  0.63829476  1
  O  O348  1  0.14134886  0.25968832  0.26377752  1
  O  O349  1  0.13109392  0.23919793  0.75973551  1
  O  O350  1  0.11093611  0.76104874  0.25845551  1
  O  O351  1  0.10870808  0.74595102  0.76887537  1
  O  O352  1  0.61872741  0.25529901  0.25759729  1
  O  O353  1  0.63578900  0.24782841  0.74598201  1
  O  O354  1  0.62254396  0.75622414  0.25712792  1
  O  O355  1  0.61097931  0.75716347  0.75473355  1
  O  O356  1  0.39706123  0.25490751  0.26134327  1
  O  O357  1  0.36123299  0.23177992  0.73154431  1
  O  O358  1  0.39537600  0.73636231  0.26174207  1
  O  O359  1  0.39097014  0.72893265  0.76389358  1
  O  O360  1  0.86935922  0.24063166  0.25008360  1
  O  O361  1  0.86531888  0.22133579  0.74816160  1
  O  O362  1  0.87136713  0.73017131  0.24283066  1
  O  O363  1  0.87895895  0.74751705  0.76427116  1
  O  O364  1  0.38261744  0.50282757  0.48775376  1
  O  O365  1  0.39521004  0.49280238  0.99444455  1
  O  O366  1  0.38989370  0.99953879  0.49187795  1
  O  O367  1  0.38107872  1.02516230  0.96303830  1
  O  O368  1  0.85947956  0.51423153  0.47651661  1
  O  O369  1  0.83788452  0.48971135  0.96486789  1
  O  O370  1  0.88994521  0.99198032  0.49814294  1
  O  O371  1  0.87531827  1.00317046  0.98864334  1
  O  O372  1  0.12658087  0.01422458  -0.02382353  1
  O  O373  1  0.10422911  -0.01423483  0.50233000  1
  O  O374  1  0.13065079  0.49255015  0.01513931  1
  O  O375  1  0.03872662  0.47366656  0.45290417  1
  O  O376  1  0.62175855  -0.01310634  0.01818115  1
  O  O377  1  0.62296751  0.01525994  0.48932241  1
  O  O378  1  0.62114998  0.49709078  0.01471254  1
  O  O379  1  0.61536185  0.51060785  0.50027003  1
  O  O380  1  0.38795867  0.36964109  0.12151379  1
  O  O381  1  0.36780934  0.38628237  0.60636854  1
  O  O382  1  0.36699657  0.85553746  0.13424672  1
  O  O383  1  0.37263390  0.85755203  0.62113921  1
  O  O384  1  0.85827167  0.37350146  0.14061818  1
  O  O385  1  0.85692623  0.39906921  0.60948481  1
  O  O386  1  0.86625681  0.88548716  0.13112679  1
  O  O387  1  0.88862462  0.83255848  0.62754503  1
  O  O388  1  0.13776208  0.13936652  0.37475403  1
  O  O389  1  0.13872919  0.11834793  0.86424056  1
  O  O390  1  0.14161172  0.61781339  0.34634173  1
  O  O391  1  0.13009259  0.64325974  0.90186295  1
  O  O392  1  0.63618533  0.12944232  0.37610566  1
  O  O393  1  0.64216096  0.10940161  0.87239101  1
  O  O394  1  0.61447754  0.63991439  0.38690471  1
  O  O395  1  0.63994928  0.65276955  0.87171808  1
