# generated using pymatgen
data_V35Zn35O128
_symmetry_space_group_name_H-M   'P 1'
_cell_length_a   16.94082759
_cell_length_b   16.94418533
_cell_length_c   16.95405382
_cell_angle_alpha   89.91207024
_cell_angle_beta   90.23593213
_cell_angle_gamma   90.28747036
_symmetry_Int_Tables_number   1
_chemical_formula_structural   V35Zn35O128
_chemical_formula_sum   'V70 Zn70 O256'
_cell_volume   4866.52800675
_cell_formula_units_Z   2
loop_
 _symmetry_equiv_pos_site_id
 _symmetry_equiv_pos_as_xyz
  1  'x, y, z'
loop_
 _atom_site_type_symbol
 _atom_site_label
 _atom_site_symmetry_multiplicity
 _atom_site_fract_x
 _atom_site_fract_y
 _atom_site_fract_z
 _atom_site_occupancy
  V  V0  1  0.20700258  0.42750492  0.76066032  1
  V  V1  1  0.01734698  0.62348716  0.62652980  1
  V  V2  1  0.62683881  0.48217889  0.62257066  1
  V  V3  1  0.73825311  0.87557450  0.63214995  1
  V  V4  1  0.00686300  0.50329610  0.50062416  1
  V  V5  1  0.74612216  -0.00104470  0.76826098  1
  V  V6  1  0.38183905  0.39295662  0.02301350  1
  V  V7  1  0.75214329  0.62486094  0.36504139  1
  V  V8  1  0.25242175  0.14318186  0.83736927  1
  V  V9  1  0.61727541  0.87704549  0.24197586  1
  V  V10  1  0.74761224  0.48958428  0.74299197  1
  V  V11  1  0.50680648  0.37312726  0.36411829  1
  V  V12  1  0.61828622  0.61192616  0.01322200  1
  V  V13  1  0.87888668  0.49690684  0.87160413  1
  V  V14  1  0.61627555  0.75817053  0.87606867  1
  V  V15  1  0.24083656  -0.00847168  0.26236249  1
  V  V16  1  0.74833294  0.62512087  0.87549880  1
  V  V17  1  0.62475314  0.12196658  -0.00720879  1
  V  V18  1  0.43233700  0.66441352  0.18508546  1
  V  V19  1  0.87842979  0.88793517  -0.01517130  1
  V  V20  1  0.38560541  0.86143473  0.49077017  1
  V  V21  1  0.63519594  0.39556226  0.24662372  1
  V  V22  1  0.13537110  0.01206729  0.61943439  1
  V  V23  1  0.49906318  0.50075942  0.49770928  1
  V  V24  1  0.00979309  0.64549876  0.12059887  1
  V  V25  1  -0.00177416  0.77089325  0.75440001  1
  V  V26  1  0.00656255  0.50037519  0.00125505  1
  V  V27  1  0.88500838  0.00447690  0.37303979  1
  V  V28  1  0.13815471  0.76086837  0.87521346  1
  V  V29  1  0.74736784  0.25299540  0.51615148  1
  V  V30  1  0.48949418  -0.00402896  -0.00404818  1
  V  V31  1  0.37674130  0.49977302  0.35193277  1
  V  V32  1  0.37532287  0.24191057  0.12682706  1
  V  V33  1  0.75558014  0.74685696  0.00087942  1
  V  V34  1  0.63185457  0.24543357  0.36315492  1
  V  V35  1  0.87102538  0.49990525  0.36721542  1
  V  V36  1  0.39137789  0.60999725  0.77158988  1
  V  V37  1  0.75536476  0.39165629  0.13209504  1
  V  V38  1  0.87362401  0.62747983  0.74775882  1
  V  V39  1  0.39412595  -0.00589657  0.38499482  1
  V  V40  1  0.22475069  0.90054456  0.10023833  1
  V  V41  1  0.49649197  0.75970184  0.74096267  1
  V  V42  1  0.37430983  0.00843472  0.85168589  1
  V  V43  1  0.13967051  0.61909467  -0.01658557  1
  V  V44  1  0.37318612  0.12762911  0.25689723  1
  V  V45  1  0.75869997  0.12772551  0.37801318  1
  V  V46  1  0.87358526  0.75441967  0.62476878  1
  V  V47  1  0.00150056  0.00540662  0.50497632  1
  V  V48  1  0.75450056  0.00635735  0.24354025  1
  V  V49  1  0.85894575  0.13356362  0.75863513  1
  V  V50  1  0.49725751  0.13119502  0.61527062  1
  V  V51  1  0.87693465  0.87940727  0.49562682  1
  V  V52  1  0.23279158  0.36711340  0.14135484  1
  V  V53  1  0.87741812  0.37207787  0.00150100  1
  V  V54  1  0.74912565  0.75101817  0.49760336  1
  V  V55  1  0.62250600  0.62485030  0.50616886  1
  V  V56  1  0.75878725  0.86202699  0.13081788  1
  V  V57  1  0.61642761  0.26456222  0.87521651  1
  V  V58  1  0.61264109  0.75877950  0.37193835  1
  V  V59  1  0.37838276  0.36031383  0.49938579  1
  V  V60  1  0.86390757  0.38206218  0.52302943  1
  V  V61  1  0.62141256  0.00651177  0.60960716  1
  V  V62  1  0.14204026  0.88589850  0.74468319  1
  V  V63  1  0.51188543  0.12333100  0.13589847  1
  V  V64  1  0.25617597  0.86358459  0.60896082  1
  V  V65  1  0.88698507  0.24021053  0.13671739  1
  V  V66  1  0.23895292  0.22569614  0.00599759  1
  V  V67  1  0.74614618  0.24754777  0.00554009  1
  V  V68  1  0.25625230  0.13662043  0.39870463  1
  V  V69  1  0.00915937  0.35691203  0.86654460  1
  Zn  Zn70  1  0.01167272  0.26011368  0.27474156  1
  Zn  Zn71  1  0.47395103  0.23312307  0.75320527  1
  Zn  Zn72  1  -0.00579637  0.78335384  0.29370475  1
  Zn  Zn73  1  -0.02204939  0.13119018  0.63084899  1
  Zn  Zn74  1  0.86724430  0.64104201  0.22813135  1
  Zn  Zn75  1  0.11573887  0.16459015  0.50528861  1
  Zn  Zn76  1  0.19399064  0.21382307  0.22958063  1
  Zn  Zn77  1  0.19314440  0.23105781  0.68021410  1
  Zn  Zn78  1  0.23011861  0.68913189  0.10572655  1
  Zn  Zn79  1  0.19556210  0.69937339  0.69865850  1
  Zn  Zn80  1  0.69798044  0.19318039  0.18684270  1
  Zn  Zn81  1  0.65127966  0.16496358  0.71407386  1
  Zn  Zn82  1  0.67159636  0.69138947  0.18814615  1
  Zn  Zn83  1  0.68132503  0.68900314  0.69125894  1
  Zn  Zn84  1  0.27322908  0.34716995  0.34828422  1
  Zn  Zn85  1  0.32657494  0.32569894  0.84762949  1
  Zn  Zn86  1  0.32099947  0.81222850  0.21651959  1
  Zn  Zn87  1  0.35047279  0.79688707  0.86653697  1
  Zn  Zn88  1  0.81944616  0.31270859  0.31076888  1
  Zn  Zn89  1  0.80377786  0.30621845  0.81484518  1
  Zn  Zn90  1  0.81482081  0.81195514  0.31235869  1
  Zn  Zn91  1  0.80974898  0.81440426  0.81366523  1
  Zn  Zn92  1  0.22669207  0.48047995  0.46259410  1
  Zn  Zn93  1  0.19656966  0.42037642  0.94984488  1
  Zn  Zn94  1  0.19937088  0.95085113  0.44185873  1
  Zn  Zn95  1  0.18813154  0.96561257  0.90994386  1
  Zn  Zn96  1  0.69088167  0.43728376  0.43590655  1
  Zn  Zn97  1  0.69347338  0.43791066  0.93997020  1
  Zn  Zn98  1  0.69001057  0.93890217  0.43275435  1
  Zn  Zn99  1  0.67987858  0.93433071  0.95302933  1
  Zn  Zn100  1  0.31040299  0.05670155  0.06945935  1
  Zn  Zn101  1  0.32532839  0.05681129  0.57027245  1
  Zn  Zn102  1  0.33016329  0.54298186  0.11122653  1
  Zn  Zn103  1  0.27704570  0.54078899  0.61356783  1
  Zn  Zn104  1  0.81606831  0.06323368  0.06444994  1
  Zn  Zn105  1  0.80713075  0.06516983  0.56619945  1
  Zn  Zn106  1  0.82403569  0.56675629  0.05935381  1
  Zn  Zn107  1  0.80849405  0.56478696  0.56130432  1
  Zn  Zn108  1  0.47136206  0.45724704  0.16870886  1
  Zn  Zn109  1  0.38501702  0.40959312  0.70486053  1
  Zn  Zn110  1  0.43421711  0.95086861  0.18667149  1
  Zn  Zn111  1  0.44114025  0.93010191  0.67784395  1
  Zn  Zn112  1  0.94085427  0.44768828  0.18859511  1
  Zn  Zn113  1  0.94507487  0.44065173  0.68995737  1
  Zn  Zn114  1  0.93988221  0.92380242  0.19265059  1
  Zn  Zn115  1  0.96216528  0.98402277  0.72595186  1
  Zn  Zn116  1  0.07594424  0.08801588  0.32219155  1
  Zn  Zn117  1  0.05108359  0.17553788  0.79812817  1
  Zn  Zn118  1  0.03611856  0.60187397  0.32724673  1
  Zn  Zn119  1  0.06513366  0.56577011  0.81173058  1
  Zn  Zn120  1  0.57104059  0.05943715  0.31356264  1
  Zn  Zn121  1  0.54790540  0.03402246  0.78969792  1
  Zn  Zn122  1  0.56425527  0.56830908  0.31259911  1
  Zn  Zn123  1  0.57062853  0.57124371  0.79836886  1
  Zn  Zn124  1  0.45253667  0.18408532  0.43404767  1
  Zn  Zn125  1  0.43675303  0.18135362  0.93736261  1
  Zn  Zn126  1  0.40200267  0.71048615  0.37230366  1
  Zn  Zn127  1  0.43341686  0.66993386  0.95162576  1
  Zn  Zn128  1  0.92284448  0.18597609  0.45412651  1
  Zn  Zn129  1  0.92500139  0.18302697  0.93435433  1
  Zn  Zn130  1  0.93835338  0.68780860  0.44094626  1
  Zn  Zn131  1  0.94170160  0.69331838  0.93670876  1
  Zn  Zn132  1  0.06237461  0.30563935  0.05347704  1
  Zn  Zn133  1  0.04655866  0.31763421  0.54825821  1
  Zn  Zn134  1  0.06156822  0.82461112  0.05667968  1
  Zn  Zn135  1  0.05556778  0.82266445  0.57057398  1
  Zn  Zn136  1  0.56050995  0.31518949  0.07133631  1
  Zn  Zn137  1  0.56258287  0.30433569  0.55494202  1
  Zn  Zn138  1  0.41430702  0.81835574  0.05417106  1
  Zn  Zn139  1  0.55775876  0.80485623  0.56224738  1
  O  O140  1  0.08566274  0.08105873  0.11040405  1
  O  O141  1  0.13860397  0.11341134  0.61370928  1
  O  O142  1  0.12146528  0.63905224  0.08943661  1
  O  O143  1  0.11462486  0.63388608  0.63779240  1
  O  O144  1  0.61374298  0.13359530  0.13054628  1
  O  O145  1  0.63438044  0.10817899  0.61326479  1
  O  O146  1  0.62873823  0.62449971  0.11285678  1
  O  O147  1  0.62877357  0.62657985  0.60888682  1
  O  O148  1  0.40020741  0.37357571  0.37318584  1
  O  O149  1  0.40094932  0.35556222  0.93364808  1
  O  O150  1  0.38075572  0.89017456  0.38217658  1
  O  O151  1  0.35385238  0.91181872  0.87329852  1
  O  O152  1  0.86726943  0.39816720  0.37377398  1
  O  O153  1  0.87700796  0.37978995  0.88488274  1
  O  O154  1  0.86614876  0.88847923  0.38861331  1
  O  O155  1  0.86822372  0.87787265  0.88464137  1
  O  O156  1  0.26781075  0.01425959  0.37456445  1
  O  O157  1  0.25976197  0.03239942  0.85099285  1
  O  O158  1  0.27600745  0.46806498  0.35636129  1
  O  O159  1  0.26067601  0.42713970  0.85179820  1
  O  O160  1  0.76133306  0.01210587  0.37589101  1
  O  O161  1  0.73263550  -0.01060923  0.86511909  1
  O  O162  1  0.75634442  0.51613745  0.37604874  1
  O  O163  1  0.76284078  0.50590350  0.86726929  1
  O  O164  1  0.25459389  0.46432475  0.15069808  1
  O  O165  1  0.27376029  0.45640783  0.68592050  1
  O  O166  1  0.25059459  0.99720724  0.15026587  1
  O  O167  1  0.23845686  0.99024541  0.61232880  1
  O  O168  1  0.76568700  0.48996733  0.12397593  1
  O  O169  1  0.73740020  0.50529770  0.62960952  1
  O  O170  1  0.75398256  0.99355967  0.14175398  1
  O  O171  1  0.74328896  0.98163677  0.61880917  1
  O  O172  1  0.01127074  0.37674187  0.24965294  1
  O  O173  1  -0.00844569  0.37831793  0.76964030  1
  O  O174  1  0.01113323  0.88515343  0.26485057  1
  O  O175  1  0.00593935  0.87409212  0.73764146  1
  O  O176  1  0.52742949  0.38213532  0.24868223  1
  O  O177  1  0.49134081  0.42818734  0.84202043  1
  O  O178  1  0.51983735  0.89214732  0.24047710  1
  O  O179  1  0.49953492  0.86132553  0.74959834  1
  O  O180  1  0.49462623  0.11452549  0.24135057  1
  O  O181  1  0.53264410  0.13349981  0.73343624  1
  O  O182  1  0.50906996  0.64246019  0.25200343  1
  O  O183  1  0.49526313  0.63899019  0.75493587  1
  O  O184  1  1.03048324  0.05632303  0.15376083  1
  O  O185  1  0.97460080  0.10330315  0.74996912  1
  O  O186  1  1.02601835  0.61127124  0.21484252  1
  O  O187  1  0.98924171  0.62967714  0.73882871  1
  O  O188  1  0.36803259  0.22972802  0.02276229  1
  O  O189  1  0.39330758  0.26210829  0.48953798  1
  O  O190  1  0.36957162  0.75750234  -0.02818815  1
  O  O191  1  0.37269426  0.76417568  0.47018852  1
  O  O192  1  0.86802370  0.25677318  0.00732195  1
  O  O193  1  0.86350477  0.27167774  0.50433784  1
  O  O194  1  0.86052626  0.75840978  -0.00961295  1
  O  O195  1  0.86897458  0.75633180  0.50470830  1
  O  O196  1  0.06944726  0.26127960  0.44608081  1
  O  O197  1  0.14113866  0.24446265  1.00009339  1
  O  O198  1  0.11871421  0.79379627  0.46368502  1
  O  O199  1  0.12180949  0.75822570  0.97723571  1
  O  O200  1  0.64476526  0.26324249  0.47878992  1
  O  O201  1  0.62770854  0.24598851  1.00564006  1
  O  O202  1  0.63119296  0.74610859  0.49035429  1
  O  O203  1  0.64433885  0.72795380  0.98543081  1
  O  O204  1  0.48604754  0.23383246  0.12514459  1
  O  O205  1  0.51327179  0.23695151  0.63059533  1
  O  O206  1  0.46647554  0.73197357  0.11949459  1
  O  O207  1  0.49996647  0.74771121  0.64093572  1
  O  O208  1  0.98498346  0.25120529  0.11486032  1
  O  O209  1  1.02186341  0.24059715  0.63515126  1
  O  O210  1  1.01076109  0.74493618  0.12549749  1
  O  O211  1  0.99249859  0.74239548  0.63099573  1
  O  O212  1  0.00237474  0.24703580  0.39582180  1
  O  O213  1  -0.00157028  0.25243905  0.87293632  1
  O  O214  1  0.02135616  0.70503541  0.36865888  1
  O  O215  1  0.00450297  0.75110986  0.85764711  1
  O  O216  1  0.52585581  0.25722318  0.37375600  1
  O  O217  1  0.51391834  0.24349424  0.87249304  1
  O  O218  1  0.51647003  0.74860238  0.38105655  1
  O  O219  1  0.51769643  0.74400237  0.88221131  1
  O  O220  1  0.27824173  0.13261393  0.49642900  1
  O  O221  1  0.24206106  0.12464253  1.00646172  1
  O  O222  1  0.24099118  0.57286040  0.51902854  1
  O  O223  1  0.23689773  0.62850245  0.99291657  1
  O  O224  1  0.76180435  0.14351253  0.48987083  1
  O  O225  1  0.73225081  0.13476983  1.02153540  1
  O  O226  1  0.74302082  0.63697166  0.49380720  1
  O  O227  1  0.75801281  0.62926368  0.98954288  1
  O  O228  1  0.26271536  0.35660836  0.02271017  1
  O  O229  1  0.27797418  0.37387332  0.47460311  1
  O  O230  1  0.23984325  0.92058536  0.00289832  1
  O  O231  1  0.25997200  0.87488370  0.50395175  1
  O  O232  1  0.76074907  0.37137233  0.01457223  1
  O  O233  1  0.75824625  0.36977869  0.50025498  1
  O  O234  1  0.75144308  0.86726055  0.01571865  1
  O  O235  1  0.75589447  0.86451333  0.50621806  1
  O  O236  1  0.07875556  0.41942133  0.29036926  1
  O  O237  1  0.12760659  0.49104811  0.75768129  1
  O  O238  1  0.14291121  1.00573466  0.27513183  1
  O  O239  1  0.12102563  0.98889315  0.72831885  1
  O  O240  1  0.63591846  0.49441232  0.25279044  1
  O  O241  1  0.63126746  0.50342629  0.73061272  1
  O  O242  1  0.64723889  0.98504293  0.26657192  1
  O  O243  1  0.64056995  0.99503181  0.73032807  1
  O  O244  1  0.37063380  0.00907166  0.26599174  1
  O  O245  1  0.39736958  0.00546624  0.75437810  1
  O  O246  1  0.39669035  0.48246401  0.25637239  1
  O  O247  1  0.40955775  0.51291679  0.74744941  1
  O  O248  1  0.86168726  -0.00729663  0.26379661  1
  O  O249  1  0.85001741  -0.00318522  0.75259874  1
  O  O250  1  0.88627763  0.51813225  0.26500269  1
  O  O251  1  0.86940191  0.51070554  0.75281043  1
  O  O252  1  0.11200223  0.37577987  0.34157267  1
  O  O253  1  0.10579072  0.37382496  0.88440367  1
  O  O254  1  0.12421458  0.84679145  0.41041543  1
  O  O255  1  0.13276843  0.87611436  0.85361999  1
  O  O256  1  0.63141930  0.37188719  0.35973152  1
  O  O257  1  0.62293149  0.36361205  0.89461157  1
  O  O258  1  0.63175596  0.86293107  0.36863145  1
  O  O259  1  0.63002827  0.85603732  0.88577559  1
  O  O260  1  0.37993084  0.12320788  0.14230184  1
  O  O261  1  0.39897426  0.11753246  0.63078675  1
  O  O262  1  0.32041266  0.64526375  0.15519184  1
  O  O263  1  0.32837519  0.63057055  0.67391402  1
  O  O264  1  0.87008950  0.14193400  0.12786192  1
  O  O265  1  0.86485628  0.11909794  0.64389465  1
  O  O266  1  0.90106217  0.62373628  0.12005474  1
  O  O267  1  0.87074432  0.63874026  0.63241929  1
  O  O268  1  0.25559285  0.23663362  0.12076693  1
  O  O269  1  0.18933874  0.25727731  0.56475964  1
  O  O270  1  0.23629310  0.79838220  0.12860680  1
  O  O271  1  0.24430938  0.76527822  0.61887324  1
  O  O272  1  0.76624582  0.26308273  0.12280348  1
  O  O273  1  0.73389465  0.24714283  0.61061837  1
  O  O274  1  0.74859370  0.75667231  0.12004271  1
  O  O275  1  0.75225047  0.75604386  0.61877537  1
  O  O276  1  0.25655504  0.23392439  0.37371283  1
  O  O277  1  0.26708433  0.23820570  0.89814764  1
  O  O278  1  0.21801230  0.70379203  0.38761898  1
  O  O279  1  0.23504448  0.75662782  0.86180449  1
  O  O280  1  0.75040856  0.24322422  0.37257422  1
  O  O281  1  0.74219663  0.25815039  0.90152949  1
  O  O282  1  0.74645899  0.74363507  0.38503883  1
  O  O283  1  0.74646243  0.73924288  0.87648986  1
  O  O284  1  0.00329417  0.10810721  -0.01532120  1
  O  O285  1  -0.00204112  0.11842164  0.51289038  1
  O  O286  1  0.00530844  0.61870604  0.00118189  1
  O  O287  1  -0.00349606  0.61894730  0.51992924  1
  O  O288  1  0.51445990  0.12701669  0.01204733  1
  O  O289  1  0.50917346  0.12814052  0.51445784  1
  O  O290  1  0.52070277  0.61392658  -0.00840444  1
  O  O291  1  0.51587388  0.60430813  0.48272205  1
  O  O292  1  0.51016354  0.38225806  0.48203135  1
  O  O293  1  0.48282663  0.39972119  1.06597521  1
  O  O294  1  0.48423405  0.87064660  0.50910222  1
  O  O295  1  0.49403617  0.89846247  1.00861392  1
  O  O296  1  0.97709312  0.39673075  0.50796938  1
  O  O297  1  0.99183381  0.37882519  0.98685694  1
  O  O298  1  0.98376477  0.88809804  0.50825582  1
  O  O299  1  0.97605166  0.87392204  1.00226826  1
  O  O300  1  0.50731490  0.48863169  0.37648537  1
  O  O301  1  0.51503874  0.48650626  0.87971574  1
  O  O302  1  0.49315189  1.00772173  0.37643673  1
  O  O303  1  0.48874347  1.01139237  0.88472171  1
  O  O304  1  0.97987034  0.52189307  0.39406057  1
  O  O305  1  0.98791967  0.50038051  0.87876456  1
  O  O306  1  0.99120359  1.02134846  0.38577286  1
  O  O307  1  1.03454532  1.05430249  0.93444409  1
  O  O308  1  -0.02411151  0.00742872  0.11733558  1
  O  O309  1  0.01390929  0.00469374  0.61726500  1
  O  O310  1  0.00442262  0.49308321  0.10182944  1
  O  O311  1  -0.00022140  0.51529605  0.61930211  1
  O  O312  1  0.49676455  0.01934265  0.11246728  1
  O  O313  1  0.51725501  0.00745453  0.62983806  1
  O  O314  1  0.44494412  0.56547327  0.13690927  1
  O  O315  1  0.51861560  0.49720337  0.60165597  1
  O  O316  1  0.23191246  0.32685465  0.24047366  1
  O  O317  1  0.19321444  0.32979495  0.74196160  1
  O  O318  1  0.25075546  0.89191846  0.26822101  1
  O  O319  1  0.24098738  0.88012230  0.73016597  1
  O  O320  1  0.75132401  0.37861068  0.23958100  1
  O  O321  1  0.75614524  0.39196606  0.75609642  1
  O  O322  1  0.75115468  0.87903409  0.24219566  1
  O  O323  1  0.75028442  0.87681909  0.73549301  1
  O  O324  1  0.26476136  0.11828766  0.26386689  1
  O  O325  1  0.26593066  0.16636615  0.74080890  1
  O  O326  1  0.19285548  0.58375939  0.26762930  1
  O  O327  1  0.27438324  0.62576714  0.74314631  1
  O  O328  1  0.74846138  0.11104925  0.25597958  1
  O  O329  1  0.74810100  0.10780660  0.75212896  1
  O  O330  1  0.74988623  0.63676598  0.26288447  1
  O  O331  1  0.75833528  0.62051811  0.75564733  1
  O  O332  1  0.37952060  0.12006686  0.36941564  1
  O  O333  1  0.36832863  0.12395028  0.86617211  1
  O  O334  1  0.37604604  0.59809555  0.36803449  1
  O  O335  1  0.37957210  0.60633231  0.87091480  1
  O  O336  1  0.86795477  0.12003588  0.37399226  1
  O  O337  1  0.86469896  0.12260291  0.86103818  1
  O  O338  1  0.85695752  0.62052104  0.38520361  1
  O  O339  1  0.87124463  0.61919639  0.86466335  1
  O  O340  1  0.13447446  0.36564217  0.11841743  1
  O  O341  1  0.16011354  0.33315457  0.56511829  1
  O  O342  1  0.12450440  0.90344862  0.10901138  1
  O  O343  1  0.13607936  0.87949873  0.62650598  1
  O  O344  1  0.64489150  0.37452329  0.13613030  1
  O  O345  1  0.62662819  0.38457069  0.61785308  1
  O  O346  1  0.64384293  0.87574516  0.14244531  1
  O  O347  1  0.63700621  0.87173611  0.61912608  1
  O  O348  1  0.08845407  0.18149526  0.25617411  1
  O  O349  1  0.07486894  0.24484901  0.70136555  1
  O  O350  1  0.20123764  0.73730692  0.32542975  1
  O  O351  1  0.11751359  0.76744684  0.75334874  1
  O  O352  1  0.63994087  0.26210379  0.26034340  1
  O  O353  1  0.64476451  0.25835959  0.77828718  1
  O  O354  1  0.62753875  0.76466888  0.26259565  1
  O  O355  1  0.61461248  0.74317695  0.76564473  1
  O  O356  1  0.37669510  0.22914631  0.24371217  1
  O  O357  1  0.39483062  0.31149723  0.75977012  1
  O  O358  1  0.38299344  0.73277191  0.26236153  1
  O  O359  1  0.39544747  0.74212740  0.77326985  1
  O  O360  1  0.89385266  0.25881312  0.24222181  1
  O  O361  1  0.85982421  0.23444121  0.75098125  1
  O  O362  1  0.88898380  0.74397546  0.26703212  1
  O  O363  1  0.87965614  0.74700132  0.74349912  1
  O  O364  1  0.39795593  0.48698373  0.48108537  1
  O  O365  1  0.35355267  0.48777724  1.01178310  1
  O  O366  1  0.37731011  0.99215282  0.48843218  1
  O  O367  1  0.38916357  1.01914124  0.99497443  1
  O  O368  1  0.86934589  0.49323669  0.49503461  1
  O  O369  1  0.88379884  0.49117464  0.98952246  1
  O  O370  1  0.88098362  0.99778596  0.49498149  1
  O  O371  1  0.86113674  0.98685454  0.99904927  1
  O  O372  1  0.09191347  0.01326855  -0.03231191  1
  O  O373  1  0.11350070  -0.00882375  0.50910914  1
  O  O374  1  0.12279320  0.51262129  -0.02237812  1
  O  O375  1  0.10236482  0.48999385  0.48765106  1
  O  O376  1  0.61336201  0.01602123  -0.00335021  1
  O  O377  1  0.62679525  -0.01131290  0.51061737  1
  O  O378  1  0.64187272  0.51409807  0.00072115  1
  O  O379  1  0.62951562  0.50566925  0.50575425  1
  O  O380  1  0.36118115  0.34687253  0.13271508  1
  O  O381  1  0.39160861  0.37949312  0.59603432  1
  O  O382  1  0.36278863  0.88356692  0.13143460  1
  O  O383  1  0.36349575  0.87876904  0.60913973  1
  O  O384  1  0.87230387  0.37337439  0.11923846  1
  O  O385  1  0.86800486  0.38629780  0.62147778  1
  O  O386  1  0.86047703  0.87562292  0.12104754  1
  O  O387  1  0.86148760  0.86115989  0.61537862  1
  O  O388  1  0.15241279  0.11550749  0.40707554  1
  O  O389  1  0.15038925  0.14430908  0.84451304  1
  O  O390  1  0.15678600  0.57195846  0.33100162  1
  O  O391  1  0.12023072  0.64548413  0.87641605  1
  O  O392  1  0.63892838  0.13911395  0.36694137  1
  O  O393  1  0.62963724  0.14059208  0.89552296  1
  O  O394  1  0.63836195  0.63663777  0.38068411  1
  O  O395  1  0.64186821  0.62219610  0.87609725  1
