# generated using pymatgen
data_V35Zn35O128
_symmetry_space_group_name_H-M   'P 1'
_cell_length_a   16.84251427
_cell_length_b   16.83512580
_cell_length_c   16.87936968
_cell_angle_alpha   90.17511023
_cell_angle_beta   90.09304621
_cell_angle_gamma   89.80925826
_symmetry_Int_Tables_number   1
_chemical_formula_structural   V35Zn35O128
_chemical_formula_sum   'V70 Zn70 O256'
_cell_volume   4786.02005762
_cell_formula_units_Z   2
loop_
 _symmetry_equiv_pos_site_id
 _symmetry_equiv_pos_as_xyz
  1  'x, y, z'
loop_
 _atom_site_type_symbol
 _atom_site_label
 _atom_site_symmetry_multiplicity
 _atom_site_fract_x
 _atom_site_fract_y
 _atom_site_fract_z
 _atom_site_occupancy
  V  V0  1  0.24720878  0.62693206  0.87967098  1
  V  V1  1  0.63162382  0.14413672  -0.01368468  1
  V  V2  1  0.87171557  0.24662249  0.10832346  1
  V  V3  1  0.51057678  0.25342691  0.75651405  1
  V  V4  1  0.24921105  0.24252277  0.01024477  1
  V  V5  1  0.00382390  0.11638219  0.61993141  1
  V  V6  1  0.62833342  0.50156453  0.63360748  1
  V  V7  1  0.63647886  0.00049752  0.13662057  1
  V  V8  1  0.61342508  0.63370327  0.49324911  1
  V  V9  1  0.36358453  0.37536039  0.01241977  1
  V  V10  1  0.37529739  0.49439233  0.36565215  1
  V  V11  1  0.50304523  0.48897057  0.49883086  1
  V  V12  1  0.86409694  0.61687221  0.73413994  1
  V  V13  1  0.50006879  -0.00088961  0.49954489  1
  V  V14  1  0.62332521  0.50232483  0.12962283  1
  V  V15  1  0.87879545  0.39187698  0.48073862  1
  V  V16  1  0.37048915  0.12804093  0.76778514  1
  V  V17  1  0.02096649  -0.00315054  -0.00337571  1
  V  V18  1  0.76019311  0.62579606  0.37059639  1
  V  V19  1  0.12806636  -0.00072622  0.61951353  1
  V  V20  1  0.00194027  0.26342412  0.25164961  1
  V  V21  1  0.76241788  0.50097007  0.25602784  1
  V  V22  1  0.13528290  0.37798752  0.74258735  1
  V  V23  1  0.12809395  0.87093222  0.74985997  1
  V  V24  1  0.86629016  0.10929527  0.76340096  1
  V  V25  1  0.75932886  0.75151330  0.49431282  1
  V  V26  1  0.86376980  0.50114582  0.86971894  1
  V  V27  1  0.86501998  0.73891907  0.12477984  1
  V  V28  1  0.37402219  0.12705200  0.26949259  1
  V  V29  1  0.74562250  0.37018917  0.62478535  1
  V  V30  1  0.85515023  0.88142163  -0.00159099  1
  V  V31  1  0.49868915  0.12243406  0.63161152  1
  V  V32  1  0.36892271  0.50102239  0.87460631  1
  V  V33  1  0.49426150  0.14336777  0.12969782  1
  V  V34  1  0.23734539  0.23956387  0.50416373  1
  V  V35  1  0.37725954  0.88218125  0.48146214  1
  V  V36  1  0.38210769  0.76502428  0.63113615  1
  V  V37  1  0.50653840  0.37334801  0.87345317  1
  V  V38  1  0.62837506  -0.00033457  0.64033272  1
  V  V39  1  0.36709650  0.25618107  0.63269420  1
  V  V40  1  0.01487233  0.11892522  0.11897230  1
  V  V41  1  0.13310394  0.24010686  0.88130964  1
  V  V42  1  0.73673606  0.72569946  -0.01084495  1
  V  V43  1  -0.00213932  0.37408890  0.88382905  1
  V  V44  1  -0.00532040  0.75088667  0.25766076  1
  V  V45  1  0.61793656  0.36428808  0.26381956  1
  V  V46  1  0.50494348  0.50090378  0.00577176  1
  V  V47  1  0.62194931  0.86144766  0.26436855  1
  V  V48  1  0.87408500  0.24572782  0.60902017  1
  V  V49  1  0.50511143  -0.01031116  0.00257483  1
  V  V50  1  0.38213922  0.65259353  0.25231114  1
  V  V51  1  0.86519155  0.11212696  0.25428087  1
  V  V52  1  0.27202366  0.75416638  0.00905601  1
  V  V53  1  0.24345296  0.75867741  0.50384403  1
  V  V54  1  0.11467028  0.74512714  0.88980420  1
  V  V55  1  0.00605300  0.51735690  -0.00424607  1
  V  V56  1  0.37853518  -0.01936066  0.88524763  1
  V  V57  1  0.87936832  0.89174106  0.48645875  1
  V  V58  1  0.35954250  0.37873908  0.50842483  1
  V  V59  1  0.38366392  0.62832077  0.74061874  1
  V  V60  1  0.15261227  0.49659898  0.15549879  1
  V  V61  1  0.24892336  0.64392383  0.37210612  1
  V  V62  1  0.24705174  0.00227181  0.76182428  1
  V  V63  1  0.75349575  0.37166190  0.11585837  1
  V  V64  1  -0.00056963  0.24776055  0.74772383  1
  V  V65  1  0.49911978  0.63812978  0.13033372  1
  V  V66  1  -0.00019510  0.73619929  0.73303326  1
  V  V67  1  0.75593442  0.86517303  0.63660629  1
  V  V68  1  0.24801256  0.89622489  0.13196382  1
  V  V69  1  0.60373044  0.85514989  0.76051826  1
  Zn  Zn70  1  -0.00977640  0.88181307  0.87082637  1
  Zn  Zn71  1  0.04508836  0.56772228  0.57817313  1
  Zn  Zn72  1  0.24404041  0.50326888  0.73186368  1
  Zn  Zn73  1  0.12063211  0.86025069  0.24391281  1
  Zn  Zn74  1  0.00136566  0.62239709  0.12931411  1
  Zn  Zn75  1  0.13379675  0.23679847  0.37307662  1
  Zn  Zn76  1  0.19361253  0.19528485  0.19007140  1
  Zn  Zn77  1  0.18666386  0.18545598  0.69156602  1
  Zn  Zn78  1  0.18170491  0.68234788  0.18308221  1
  Zn  Zn79  1  0.19549165  0.68819945  0.68728143  1
  Zn  Zn80  1  0.68227614  0.18143389  0.18218152  1
  Zn  Zn81  1  0.69267519  0.18772038  0.69321132  1
  Zn  Zn82  1  0.68384712  0.69329376  0.18918530  1
  Zn  Zn83  1  0.68216326  0.68531923  0.68073330  1
  Zn  Zn84  1  0.32473412  0.29580333  0.32226398  1
  Zn  Zn85  1  0.31349291  0.31439966  0.81880753  1
  Zn  Zn86  1  0.31326716  0.82642119  0.30564606  1
  Zn  Zn87  1  0.30844242  0.80886050  0.81550952  1
  Zn  Zn88  1  0.82351694  0.31422320  0.29592168  1
  Zn  Zn89  1  0.81957671  0.30730863  0.80175813  1
  Zn  Zn90  1  0.80577779  0.82299044  0.30466988  1
  Zn  Zn91  1  0.81357284  0.79844063  0.81930993  1
  Zn  Zn92  1  0.18338274  0.46096315  0.35480382  1
  Zn  Zn93  1  0.18173178  0.43524051  0.93473796  1
  Zn  Zn94  1  0.18407224  0.93449412  0.43654735  1
  Zn  Zn95  1  0.19203531  0.92835897  0.93808380  1
  Zn  Zn96  1  0.69755293  0.43148595  0.44036709  1
  Zn  Zn97  1  0.71421835  0.37733216  0.90896474  1
  Zn  Zn98  1  0.68103624  0.93994679  0.44765098  1
  Zn  Zn99  1  0.68414067  0.94002149  0.92964650  1
  Zn  Zn100  1  0.31621658  0.06482785  0.06700654  1
  Zn  Zn101  1  0.31111247  0.06133405  0.57227990  1
  Zn  Zn102  1  0.31520267  0.56734246  0.06823420  1
  Zn  Zn103  1  0.30789634  0.56961202  0.55539255  1
  Zn  Zn104  1  0.80956654  0.06597719  0.05391600  1
  Zn  Zn105  1  0.81928859  0.05166413  0.58155205  1
  Zn  Zn106  1  0.81318931  0.55553170  0.05485614  1
  Zn  Zn107  1  0.81054917  0.56008329  0.55837744  1
  Zn  Zn108  1  0.44038177  0.42789076  0.19086388  1
  Zn  Zn109  1  0.44035404  0.44312692  0.68860697  1
  Zn  Zn110  1  0.43460622  0.93260184  0.18006680  1
  Zn  Zn111  1  0.43640084  0.93866434  0.69737176  1
  Zn  Zn112  1  0.93828532  0.43914119  0.17764365  1
  Zn  Zn113  1  0.94325464  0.43671548  0.68214857  1
  Zn  Zn114  1  0.93077029  0.93154163  0.17696143  1
  Zn  Zn115  1  0.93905873  0.92980592  0.68815977  1
  Zn  Zn116  1  0.05178542  0.07528920  0.31167934  1
  Zn  Zn117  1  0.05755227  0.06209505  0.81497593  1
  Zn  Zn118  1  0.06324134  0.58727500  0.30539619  1
  Zn  Zn119  1  0.06220402  0.56074218  0.81276415  1
  Zn  Zn120  1  0.51613008  0.01760525  0.28616519  1
  Zn  Zn121  1  0.56270611  0.05787817  0.81674788  1
  Zn  Zn122  1  0.56346045  0.56034851  0.31369702  1
  Zn  Zn123  1  0.56038551  0.55935990  0.81343426  1
  Zn  Zn124  1  0.42599174  0.18226508  0.44585935  1
  Zn  Zn125  1  0.44131973  0.19069957  0.94868142  1
  Zn  Zn126  1  0.43791313  0.69285248  0.43870529  1
  Zn  Zn127  1  0.43852319  0.68179244  0.94070480  1
  Zn  Zn128  1  0.96231290  0.17599401  0.42632127  1
  Zn  Zn129  1  0.94125132  0.18285459  0.93732816  1
  Zn  Zn130  1  0.94370853  0.68525782  0.44070058  1
  Zn  Zn131  1  0.92094277  0.68811736  0.92996776  1
  Zn  Zn132  1  0.06716950  0.31842277  0.06999714  1
  Zn  Zn133  1  0.06602113  0.36804504  0.55150080  1
  Zn  Zn134  1  0.05389864  0.81608541  0.07419132  1
  Zn  Zn135  1  0.05773791  0.81992193  0.55992844  1
  Zn  Zn136  1  0.56502878  0.31892523  0.06366219  1
  Zn  Zn137  1  0.55202488  0.31654303  0.57068137  1
  Zn  Zn138  1  0.57134344  0.81837061  0.06858812  1
  Zn  Zn139  1  0.56192457  0.81493625  0.56671838  1
  O  O140  1  0.11291129  0.12778207  0.12712429  1
  O  O141  1  0.11390913  0.11328983  0.63553256  1
  O  O142  1  0.11962208  0.59625567  0.13181826  1
  O  O143  1  0.15606849  0.59899081  0.61945890  1
  O  O144  1  0.61519681  0.11879530  0.11077151  1
  O  O145  1  0.61653821  0.10915189  0.63971209  1
  O  O146  1  0.60854701  0.61397633  0.13783392  1
  O  O147  1  0.63413652  0.60707711  0.60667440  1
  O  O148  1  0.36488019  0.39078563  0.38841837  1
  O  O149  1  0.38053229  0.38870426  0.88098174  1
  O  O150  1  0.38011553  0.88458748  0.38285322  1
  O  O151  1  0.37720796  0.88145346  0.87514555  1
  O  O152  1  0.85398535  0.37698159  0.38278843  1
  O  O153  1  0.89425681  0.38341960  0.85932760  1
  O  O154  1  0.86082862  0.87738534  0.38772429  1
  O  O155  1  0.88011820  0.85750023  0.89404217  1
  O  O156  1  0.22025578  0.02382975  0.35844988  1
  O  O157  1  0.26379367  -0.00530720  0.87287915  1
  O  O158  1  0.27101242  0.52571525  0.38671052  1
  O  O159  1  0.25843913  0.50934536  0.87973877  1
  O  O160  1  0.72628682  0.06005706  0.43422308  1
  O  O161  1  0.74893555  0.00497316  0.86599488  1
  O  O162  1  0.74704794  0.51089444  0.36444168  1
  O  O163  1  0.76679446  0.47876081  0.87155508  1
  O  O164  1  0.25213833  0.50297313  0.13800899  1
  O  O165  1  0.21405537  0.53381103  0.61759880  1
  O  O166  1  0.24317301  0.99580236  0.11895801  1
  O  O167  1  0.23548214  1.00429203  0.64424598  1
  O  O168  1  0.74417528  0.49716129  0.13615458  1
  O  O169  1  0.73604250  0.48653488  0.61396538  1
  O  O170  1  0.73446518  1.00566213  0.11817961  1
  O  O171  1  0.73392897  0.98472313  0.62483787  1
  O  O172  1  0.00125753  0.36271297  0.23158663  1
  O  O173  1  0.01059275  0.36132304  0.75368604  1
  O  O174  1  0.00135900  0.85781977  0.23090270  1
  O  O175  1  0.00617148  0.85845294  0.75356461  1
  O  O176  1  0.51739306  0.37667589  0.25402441  1
  O  O177  1  0.49325620  0.37098472  0.76510072  1
  O  O178  1  0.51799001  0.90167918  0.25422879  1
  O  O179  1  0.50320155  0.86620388  0.75439739  1
  O  O180  1  0.50291595  0.12733857  0.23302348  1
  O  O181  1  0.49156269  0.13301920  0.74931640  1
  O  O182  1  0.49098735  0.62164175  0.24364961  1
  O  O183  1  0.48277030  0.62094777  0.75111850  1
  O  O184  1  0.98793636  0.12830879  0.22915090  1
  O  O185  1  0.99443160  0.13310808  0.74745221  1
  O  O186  1  0.98460576  0.63902972  0.24727228  1
  O  O187  1  1.00826491  0.63213819  0.74090554  1
  O  O188  1  0.36155649  0.26660653  -0.00838339  1
  O  O189  1  0.36735195  0.25824931  0.51364758  1
  O  O190  1  0.37180254  0.75573612  -0.00498937  1
  O  O191  1  0.37147019  0.76979598  0.51048760  1
  O  O192  1  0.87937065  0.25062814  0.00931495  1
  O  O193  1  0.87980761  0.22725411  0.51171088  1
  O  O194  1  0.85695789  0.74903352  0.00516647  1
  O  O195  1  0.86056821  0.75057391  0.49999050  1
  O  O196  1  0.13890373  0.27137318  0.50428068  1
  O  O197  1  0.13458628  0.26004447  0.98955596  1
  O  O198  1  0.14375997  0.76940472  0.50259137  1
  O  O199  1  0.11722824  0.74915355  0.98882569  1
  O  O200  1  0.58389731  0.24165825  0.47769869  1
  O  O201  1  0.62289907  0.24559461  0.99796372  1
  O  O202  1  0.62703558  0.73680724  0.50635037  1
  O  O203  1  0.64000171  0.75248659  1.00996546  1
  O  O204  1  0.50219504  0.24412911  0.12113630  1
  O  O205  1  0.49036360  0.24305306  0.63673826  1
  O  O206  1  0.50345499  0.73591680  0.11937095  1
  O  O207  1  0.48082088  0.75058972  0.61985115  1
  O  O208  1  0.99179653  0.24168165  0.12143079  1
  O  O209  1  0.99185211  0.23447244  0.63228170  1
  O  O210  1  0.98446654  0.73954708  0.12268785  1
  O  O211  1  1.00704316  0.74732066  0.63397256  1
  O  O212  1  -0.01423060  0.26450850  0.35145389  1
  O  O213  1  0.00693588  0.25840961  0.87085558  1
  O  O214  1  -0.01799653  0.75503523  0.35713179  1
  O  O215  1  0.01114028  0.74242574  0.86626371  1
  O  O216  1  0.53420688  0.23856044  0.41939724  1
  O  O217  1  0.49401438  0.26664306  0.87226507  1
  O  O218  1  0.49844221  0.77289262  0.39147925  1
  O  O219  1  0.54115090  0.70958001  0.88403173  1
  O  O220  1  0.24353242  0.13917002  0.52070685  1
  O  O221  1  0.25771356  0.14335524  1.00389077  1
  O  O222  1  0.26596265  0.65016768  0.48419089  1
  O  O223  1  0.26311199  0.63555692  0.98721208  1
  O  O224  1  0.74080197  0.10448537  0.49376272  1
  O  O225  1  0.73166046  0.12617418  0.99697225  1
  O  O226  1  0.74274438  0.63310441  0.49156807  1
  O  O227  1  0.73998168  0.62440052  0.99974947  1
  O  O228  1  0.26076216  0.37645982  -0.00461375  1
  O  O229  1  0.26035922  0.37165235  0.51082823  1
  O  O230  1  0.24720719  0.85922461  0.01243486  1
  O  O231  1  0.26422848  0.87215462  0.49023680  1
  O  O232  1  0.74326688  0.38933335  0.01941397  1
  O  O233  1  0.76695469  0.37307511  0.51179973  1
  O  O234  1  0.75374849  0.86999374  -0.00486267  1
  O  O235  1  0.75187578  0.86385309  0.50466629  1
  O  O236  1  0.12973817  0.50091681  0.26018507  1
  O  O237  1  0.12470430  0.48258315  0.75535938  1
  O  O238  1  0.18009705  1.03100013  0.29493483  1
  O  O239  1  0.13143873  0.99096102  0.75790328  1
  O  O240  1  0.63136857  0.49247487  0.24407748  1
  O  O241  1  0.62253614  0.50765992  0.73339633  1
  O  O242  1  0.62717478  1.01949088  0.23596558  1
  O  O243  1  0.61645747  0.98338533  0.74334996  1
  O  O244  1  0.39736462  0.02153953  0.24998817  1
  O  O245  1  0.36879239  0.00679865  0.76593828  1
  O  O246  1  0.37695410  0.49253272  0.26585141  1
  O  O247  1  0.36767704  0.50949674  0.75395434  1
  O  O248  1  0.87512178  0.01222257  0.23485632  1
  O  O249  1  0.88373607  0.00952207  0.74977829  1
  O  O250  1  0.86110174  0.49806222  0.24498541  1
  O  O251  1  0.88547793  0.50742533  0.75383208  1
  O  O252  1  0.17240928  0.34972360  0.33134368  1
  O  O253  1  0.11336171  0.36551600  0.86665512  1
  O  O254  1  0.09821997  0.91047216  0.35745412  1
  O  O255  1  0.12173819  0.85793674  0.86789158  1
  O  O256  1  0.63587545  0.37530207  0.36362891  1
  O  O257  1  0.60346688  0.38994247  0.88103160  1
  O  O258  1  0.63054930  0.88550437  0.36580478  1
  O  O259  1  0.62727121  0.87075041  0.85783122  1
  O  O260  1  0.39140151  0.12900002  0.12334785  1
  O  O261  1  0.38079258  0.13209458  0.64312387  1
  O  O262  1  0.38564930  0.62402595  0.14459489  1
  O  O263  1  0.36876580  0.62996402  0.63745592  1
  O  O264  1  0.87513036  0.13830986  0.12227308  1
  O  O265  1  0.88456589  0.12746341  0.63804163  1
  O  O266  1  0.87392762  0.63415830  0.11799786  1
  O  O267  1  0.88206928  0.61121377  0.63373010  1
  O  O268  1  0.23877233  0.26132064  0.10806000  1
  O  O269  1  0.26195395  0.24858503  0.62754824  1
  O  O270  1  0.25171021  0.73409287  0.10676234  1
  O  O271  1  0.26101228  0.74848005  0.60998167  1
  O  O272  1  0.75852236  0.26265219  0.12320541  1
  O  O273  1  0.76201123  0.25337196  0.62312398  1
  O  O274  1  0.75825319  0.74092593  0.11608211  1
  O  O275  1  0.74398531  0.75902697  0.60938230  1
  O  O276  1  0.25414018  0.24056497  0.40128743  1
  O  O277  1  0.23760367  0.25307739  0.88180648  1
  O  O278  1  0.25952110  0.75203358  0.38333986  1
  O  O279  1  0.24005109  0.74687432  0.88918174  1
  O  O280  1  0.74131971  0.23963460  0.39139198  1
  O  O281  1  0.74190901  0.27647235  0.87149504  1
  O  O282  1  0.74760227  0.73882937  0.38568428  1
  O  O283  1  0.74750487  0.73853758  0.88825647  1
  O  O284  1  -0.00179675  0.11259270  0.00898318  1
  O  O285  1  -0.00801915  0.11457918  0.52299084  1
  O  O286  1  -0.00317604  0.61846623  -0.01154779  1
  O  O287  1  0.02615885  0.62599474  0.48583478  1
  O  O288  1  0.50820738  0.12140187  0.00828263  1
  O  O289  1  0.48543276  0.11182778  0.52395938  1
  O  O290  1  0.48495968  0.61138108  0.02155267  1
  O  O291  1  0.50937949  0.61748950  0.49967850  1
  O  O292  1  0.49037055  0.38561670  0.49788693  1
  O  O293  1  0.48670664  0.38158740  0.99181603  1
  O  O294  1  0.48729433  0.88738834  0.50903277  1
  O  O295  1  0.50313457  0.88972778  1.00569225  1
  O  O296  1  0.97494892  0.35557236  0.48585236  1
  O  O297  1  1.00068564  0.37736191  0.98536305  1
  O  O298  1  0.97827604  0.87156153  0.50140579  1
  O  O299  1  0.99942682  0.89027359  1.00097929  1
  O  O300  1  0.48536729  0.50617526  0.38915932  1
  O  O301  1  0.48913008  0.49689129  0.88368910  1
  O  O302  1  0.51177275  1.01411928  0.40332344  1
  O  O303  1  0.48636153  1.00137988  0.88573128  1
  O  O304  1  1.03178039  0.51952406  0.41352748  1
  O  O305  1  0.99756433  0.48885351  0.87877500  1
  O  O306  1  1.03836156  0.96422872  0.35650996  1
  O  O307  1  1.00086258  0.99993685  0.89142008  1
  O  O308  1  -0.00059867  0.01106074  0.11296806  1
  O  O309  1  0.01336044  0.00751477  0.63819554  1
  O  O310  1  -0.01436829  0.50549442  0.09998370  1
  O  O311  1  0.02090242  0.46451691  0.60688985  1
  O  O312  1  0.50347234  0.00955039  0.11019001  1
  O  O313  1  0.50421648  0.00645481  0.63112984  1
  O  O314  1  0.50563970  0.49903444  0.12247305  1
  O  O315  1  0.51604033  0.49137736  0.61312100  1
  O  O316  1  0.22857472  0.34125790  0.27047617  1
  O  O317  1  0.24057962  0.38100792  0.75868978  1
  O  O318  1  0.23677778  0.87835442  0.24241957  1
  O  O319  1  0.23777693  0.88343145  0.75757263  1
  O  O320  1  0.74467577  0.38864741  0.24284367  1
  O  O321  1  0.76523148  0.37726434  0.72261590  1
  O  O322  1  0.72571489  0.87486859  0.24579824  1
  O  O323  1  0.75512418  0.85802690  0.73707260  1
  O  O324  1  0.27496378  0.13711035  0.24153118  1
  O  O325  1  0.25764084  0.11460301  0.75370860  1
  O  O326  1  0.26981220  0.64364551  0.26072686  1
  O  O327  1  0.25898200  0.62389066  0.76466827  1
  O  O328  1  0.76572651  0.13378125  0.24420793  1
  O  O329  1  0.76671283  0.12239443  0.74462935  1
  O  O330  1  0.74246002  0.61625687  0.26210599  1
  O  O331  1  0.76452499  0.62703164  0.73730469  1
  O  O332  1  0.37499728  0.11632053  0.37278739  1
  O  O333  1  0.37963711  0.12727287  0.86888598  1
  O  O334  1  0.37857434  0.62276832  0.36231666  1
  O  O335  1  0.37131967  0.61890290  0.86611966  1
  O  O336  1  0.88602376  0.12382722  0.35351405  1
  O  O337  1  0.87847214  0.12963787  0.86188896  1
  O  O338  1  0.85864543  0.62471404  0.38049044  1
  O  O339  1  0.87548705  0.60862800  0.85652536  1
  O  O340  1  0.12050352  0.40640188  0.11970650  1
  O  O341  1  0.13312263  0.35824324  0.64503969  1
  O  O342  1  0.14114154  0.86722299  0.12612546  1
  O  O343  1  0.11640488  0.88926890  0.63952447  1
  O  O344  1  0.63513476  0.38360580  0.13478517  1
  O  O345  1  0.63666455  0.37794371  0.61826514  1
  O  O346  1  0.61846620  0.89498634  0.13865983  1
  O  O347  1  0.63175741  0.87828666  0.63879902  1
  O  O348  1  0.10494412  0.23409898  0.25224254  1
  O  O349  1  0.12164267  0.25446939  0.76279535  1
  O  O350  1  0.10378992  0.74098504  0.24634525  1
  O  O351  1  0.12025805  0.75438514  0.75048782  1
  O  O352  1  0.63646155  0.26605221  0.24479123  1
  O  O353  1  0.60960231  0.24854156  0.74454665  1
  O  O354  1  0.61443554  0.75998597  0.25052534  1
  O  O355  1  0.62003029  0.75567495  0.74141929  1
  O  O356  1  0.40005842  0.23288610  0.27049503  1
  O  O357  1  0.38029552  0.24627132  0.74987587  1
  O  O358  1  0.38935040  0.75079945  0.25607986  1
  O  O359  1  0.36689943  0.74012081  0.74171722  1
  O  O360  1  0.88514463  0.24191593  0.23282137  1
  O  O361  1  0.88650648  0.24087449  0.73845565  1
  O  O362  1  0.87468569  0.75957984  0.23145582  1
  O  O363  1  0.89190397  0.73119146  0.75306322  1
  O  O364  1  0.38523430  0.49617885  0.50663666  1
  O  O365  1  0.37916464  0.49297325  0.99485850  1
  O  O366  1  0.38104210  0.98827065  0.51264955  1
  O  O367  1  0.38248700  1.00264424  0.98949393  1
  O  O368  1  0.88020210  0.49217124  0.49702399  1
  O  O369  1  0.88524884  0.50283967  0.97673619  1
  O  O370  1  0.86884368  0.99203145  0.49883520  1
  O  O371  1  0.87114602  0.98378693  1.00208225  1
  O  O372  1  0.12049060  -0.00234524  -0.00314765  1
  O  O373  1  0.13167401  -0.00694390  0.52075875  1
  O  O374  1  0.10746278  0.50342438  -0.01112137  1
  O  O375  1  0.09059464  0.47505046  0.43648175  1
  O  O376  1  0.61275086  0.00487303  0.00058589  1
  O  O377  1  0.60658756  -0.01168125  0.52640701  1
  O  O378  1  0.60877122  0.49633006  0.01488735  1
  O  O379  1  0.61199685  0.50087072  0.49849231  1
  O  O380  1  0.37493035  0.37924337  0.11117515  1
  O  O381  1  0.38299608  0.36589227  0.62274303  1
  O  O382  1  0.34992018  0.87484568  0.13381280  1
  O  O383  1  0.36999421  0.86641374  0.63519542  1
  O  O384  1  0.86173095  0.36538233  0.12666908  1
  O  O385  1  0.87439116  0.35632522  0.61174864  1
  O  O386  1  0.87717364  0.85726709  0.10310129  1
  O  O387  1  0.85834680  0.88174597  0.61538027  1
  O  O388  1  0.07499069  0.14273147  0.39744066  1
  O  O389  1  0.11969365  0.14148464  0.87515222  1
  O  O390  1  0.15101820  0.63030027  0.36809538  1
  O  O391  1  0.13528726  0.63710455  0.86817635  1
  O  O392  1  0.68816089  0.19484037  0.36986169  1
  O  O393  1  0.61523395  0.12787474  0.88616326  1
  O  O394  1  0.63093478  0.61958856  0.38972946  1
  O  O395  1  0.59311526  0.65233234  0.88308154  1
