# generated using pymatgen
data_V35Zn35O128
_symmetry_space_group_name_H-M   'P 1'
_cell_length_a   16.83629392
_cell_length_b   16.87854411
_cell_length_c   16.84987647
_cell_angle_alpha   89.90260810
_cell_angle_beta   90.10368170
_cell_angle_gamma   90.17497041
_symmetry_Int_Tables_number   1
_chemical_formula_structural   V35Zn35O128
_chemical_formula_sum   'V70 Zn70 O256'
_cell_volume   4788.22824166
_cell_formula_units_Z   2
loop_
 _symmetry_equiv_pos_site_id
 _symmetry_equiv_pos_as_xyz
  1  'x, y, z'
loop_
 _atom_site_type_symbol
 _atom_site_label
 _atom_site_symmetry_multiplicity
 _atom_site_fract_x
 _atom_site_fract_y
 _atom_site_fract_z
 _atom_site_occupancy
  V  V0  1  0.48316249  0.75220559  0.73550385  1
  V  V1  1  0.88293839  0.74646068  0.64186554  1
  V  V2  1  -0.00140856  0.75451148  0.25643429  1
  V  V3  1  0.37158291  0.26098136  0.61263543  1
  V  V4  1  0.73487716  0.48868749  0.23566030  1
  V  V5  1  0.24717402  0.61489979  0.37169046  1
  V  V6  1  0.37737873  0.15008691  0.24255522  1
  V  V7  1  0.49786101  0.11418100  0.61892374  1
  V  V8  1  0.88310991  0.00291382  0.85388346  1
  V  V9  1  0.37876483  0.35390146  0.00319180  1
  V  V10  1  0.88159089  0.87025956  0.49000419  1
  V  V11  1  0.24338630  0.37620721  0.61416024  1
  V  V12  1  0.12306919  0.87880915  0.22851337  1
  V  V13  1  0.63944658  0.61970104  0.47740428  1
  V  V14  1  0.75507961  0.37833300  0.63578270  1
  V  V15  1  0.38123393  0.50286419  0.87130969  1
  V  V16  1  0.36983012  0.60977707  0.25230322  1
  V  V17  1  0.25149787  0.13083475  0.37638792  1
  V  V18  1  0.48645809  0.75716916  0.26673910  1
  V  V19  1  0.74325020  0.76771791  0.00786684  1
  V  V20  1  0.76073787  -0.00272874  0.25345056  1
  V  V21  1  0.52014573  0.37417541  0.86380730  1
  V  V22  1  0.12207087  0.72624224  0.87775210  1
  V  V23  1  0.47788364  0.38467933  0.37810177  1
  V  V24  1  0.36214230  0.87442140  0.01609709  1
  V  V25  1  0.24768750  0.50329286  0.75379561  1
  V  V26  1  0.86268518  0.62810346  0.25807355  1
  V  V27  1  0.75721816  0.63089566  0.86991311  1
  V  V28  1  0.88179322  0.47571085  0.88068586  1
  V  V29  1  -0.01519737  0.22869072  0.24896122  1
  V  V30  1  0.62272516  0.25994634  0.36513526  1
  V  V31  1  0.85930736  0.50077474  0.37790838  1
  V  V32  1  0.61036826  0.76266450  0.87489232  1
  V  V33  1  0.87060147  0.25871352  0.10833083  1
  V  V34  1  0.12341016  0.24896330  0.87913015  1
  V  V35  1  0.12323423  0.76153452  0.38618147  1
  V  V36  1  0.77583254  0.12086215  0.37013057  1
  V  V37  1  0.49069766  0.50653596  0.51106609  1
  V  V38  1  0.37230938  -0.00640758  0.86734845  1
  V  V39  1  0.49210090  0.63064975  0.12438072  1
  V  V40  1  0.13900847  -0.00199926  0.62940761  1
  V  V41  1  0.24983988  0.72882215  0.00558767  1
  V  V42  1  0.72801391  0.23956445  -0.00734244  1
  V  V43  1  0.34869485  0.74674567  0.61673502  1
  V  V44  1  0.50405324  -0.00597831  -0.00339033  1
  V  V45  1  0.12541376  0.87793694  0.76513534  1
  V  V46  1  0.62742982  -0.00740260  0.12870796  1
  V  V47  1  0.64241533  0.00048346  0.62526963  1
  V  V48  1  0.00337728  0.61878673  0.11864213  1
  V  V49  1  -0.00078320  0.11007071  0.10245838  1
  V  V50  1  0.62292311  0.87084173  0.27157380  1
  V  V51  1  0.00187692  -0.00050604  0.49442874  1
  V  V52  1  0.51411152  0.25742063  0.74281203  1
  V  V53  1  0.88809671  0.88473565  -0.00333954  1
  V  V54  1  0.86995661  0.75844714  0.12718251  1
  V  V55  1  0.62538075  0.62304001  0.00805042  1
  V  V56  1  0.50268278  0.13345901  0.12345018  1
  V  V57  1  -0.01162388  0.11845002  0.63571594  1
  V  V58  1  0.77149767  0.25351300  0.50112045  1
  V  V59  1  0.75263036  0.85589311  0.62574747  1
  V  V60  1  -0.00234186  0.62363688  0.63723218  1
  V  V61  1  -0.00815546  0.49328956  0.50663867  1
  V  V62  1  0.39085964  0.88906294  0.50520627  1
  V  V63  1  0.62296027  0.12073229  0.48763033  1
  V  V64  1  -0.00171691  0.38447646  0.34890004  1
  V  V65  1  0.74108605  0.11596179  0.86409206  1
  V  V66  1  0.26440460  -0.01223896  0.24530527  1
  V  V67  1  0.12293037  0.62308802  0.50373703  1
  V  V68  1  -0.01051829  0.25305337  0.74658939  1
  V  V69  1  0.24990946  0.12893757  0.84748485  1
  Zn  Zn70  1  0.73478250  0.49740094  0.75101727  1
  Zn  Zn71  1  0.38008721  0.12489095  0.74562627  1
  Zn  Zn72  1  0.12453709  0.37054159  0.74832623  1
  Zn  Zn73  1  0.12852660  0.25716915  0.37502807  1
  Zn  Zn74  1  0.51864553  0.47058570  0.02777088  1
  Zn  Zn75  1  0.62375245  0.88301575  0.75878508  1
  Zn  Zn76  1  0.15961169  0.15616464  0.22649038  1
  Zn  Zn77  1  0.17768761  0.18995217  0.67670814  1
  Zn  Zn78  1  0.18715729  0.68935265  0.18805058  1
  Zn  Zn79  1  0.18366042  0.69006918  0.69385124  1
  Zn  Zn80  1  0.69168466  0.18224846  0.18636395  1
  Zn  Zn81  1  0.69616835  0.18677990  0.68005513  1
  Zn  Zn82  1  0.68063157  0.69197758  0.19270992  1
  Zn  Zn83  1  0.66207721  0.66176389  0.69872881  1
  Zn  Zn84  1  0.31207356  0.31735413  0.30915297  1
  Zn  Zn85  1  0.32322235  0.31490338  0.80363556  1
  Zn  Zn86  1  0.30013926  0.80448009  0.31494881  1
  Zn  Zn87  1  0.29984336  0.80973009  0.81417629  1
  Zn  Zn88  1  0.81126829  0.31250636  0.30819564  1
  Zn  Zn89  1  0.80241278  0.30606147  0.81510150  1
  Zn  Zn90  1  0.80218155  0.80979012  0.31900827  1
  Zn  Zn91  1  0.80816875  0.81896111  0.81543536  1
  Zn  Zn92  1  0.17707571  0.43893681  0.43649853  1
  Zn  Zn93  1  0.20619782  0.41911124  0.93424630  1
  Zn  Zn94  1  0.18756362  0.95311656  0.43390958  1
  Zn  Zn95  1  0.19316169  0.94080343  0.93269070  1
  Zn  Zn96  1  0.66927931  0.41933714  0.47578119  1
  Zn  Zn97  1  0.72459194  0.45161757  0.96783621  1
  Zn  Zn98  1  0.69650081  0.93631555  0.44257792  1
  Zn  Zn99  1  0.69267208  0.94755066  0.93789979  1
  Zn  Zn100  1  0.31954641  0.05430348  0.07086329  1
  Zn  Zn101  1  0.31448993  0.06405923  0.55521584  1
  Zn  Zn102  1  0.33218968  0.55148606  0.05518190  1
  Zn  Zn103  1  0.30938448  0.56075370  0.56755474  1
  Zn  Zn104  1  0.81326612  0.07056387  0.06378102  1
  Zn  Zn105  1  0.81989536  0.06135432  0.55415830  1
  Zn  Zn106  1  0.81868156  0.57017299  0.06224600  1
  Zn  Zn107  1  0.80900465  0.56499362  0.56645588  1
  Zn  Zn108  1  0.49184380  0.40266108  0.17343142  1
  Zn  Zn109  1  0.43625321  0.44267854  0.68521259  1
  Zn  Zn110  1  0.44471611  0.93553282  0.18943121  1
  Zn  Zn111  1  0.43436095  0.92596631  0.68874586  1
  Zn  Zn112  1  0.91903555  0.44220191  0.17417167  1
  Zn  Zn113  1  0.92144847  0.43464849  0.69518397  1
  Zn  Zn114  1  0.94285997  0.93717981  0.18312293  1
  Zn  Zn115  1  0.94815265  0.92907282  0.68675931  1
  Zn  Zn116  1  0.06071211  0.05373446  0.31321574  1
  Zn  Zn117  1  0.06281912  0.06007782  0.81171793  1
  Zn  Zn118  1  0.05542608  0.56737138  0.31146076  1
  Zn  Zn119  1  0.06092348  0.54548697  0.82444209  1
  Zn  Zn120  1  0.55267589  0.05720769  0.30965385  1
  Zn  Zn121  1  0.56095834  0.06291682  0.80659784  1
  Zn  Zn122  1  0.55853782  0.56040021  0.31855013  1
  Zn  Zn123  1  0.55953673  0.56978262  0.80904210  1
  Zn  Zn124  1  0.43839503  0.18992594  0.43059771  1
  Zn  Zn125  1  0.44795827  0.18161849  0.93023805  1
  Zn  Zn126  1  0.43394076  0.68595494  0.44790556  1
  Zn  Zn127  1  0.43174369  0.69273694  0.93825396  1
  Zn  Zn128  1  0.97125035  0.20269153  0.45188267  1
  Zn  Zn129  1  0.93552530  0.18039285  0.92916944  1
  Zn  Zn130  1  0.93531751  0.68910487  0.44441387  1
  Zn  Zn131  1  0.93796428  0.69427699  0.93599886  1
  Zn  Zn132  1  0.09827862  0.25474694  0.09062906  1
  Zn  Zn133  1  0.06088094  0.30549228  0.56264607  1
  Zn  Zn134  1  0.06246252  0.79795500  0.05610491  1
  Zn  Zn135  1  0.06478009  0.81665670  0.57300975  1
  Zn  Zn136  1  0.57714566  0.30719039  0.04997122  1
  Zn  Zn137  1  0.56533342  0.31087082  0.55650126  1
  Zn  Zn138  1  0.55334856  0.81424859  0.07296934  1
  Zn  Zn139  1  0.55606779  0.81489075  0.56099832  1
  O  O140  1  0.10321868  0.14324737  0.12954323  1
  O  O141  1  0.11347602  0.10788488  0.62808577  1
  O  O142  1  0.10295272  0.63227684  0.13751997  1
  O  O143  1  0.11117351  0.63360273  0.61286438  1
  O  O144  1  0.61000466  0.10780077  0.13931385  1
  O  O145  1  0.62189945  0.11556617  0.61320955  1
  O  O146  1  0.61748626  0.63471195  0.11378853  1
  O  O147  1  0.61826252  0.66241910  0.58957330  1
  O  O148  1  0.37780634  0.36933388  0.38471905  1
  O  O149  1  0.38644704  0.37828090  0.87983679  1
  O  O150  1  0.33563517  0.87666022  0.40346198  1
  O  O151  1  0.36665858  0.89199935  0.88216762  1
  O  O152  1  0.88200433  0.39618744  0.36428320  1
  O  O153  1  0.86942253  0.37549168  0.88017530  1
  O  O154  1  0.87605147  0.86667144  0.39026152  1
  O  O155  1  0.86823814  0.88657501  0.88953284  1
  O  O156  1  0.24416437  0.01785195  0.35562439  1
  O  O157  1  0.26520861  0.01577232  0.87496451  1
  O  O158  1  0.23587842  0.51523923  0.37095757  1
  O  O159  1  0.26877808  0.49133943  0.86706876  1
  O  O160  1  0.75063992  0.00984412  0.36557489  1
  O  O161  1  0.76433877  0.00679887  0.87556816  1
  O  O162  1  0.76077440  0.49922086  0.36503399  1
  O  O163  1  0.73416637  0.52604899  0.86934023  1
  O  O164  1  0.23907814  0.48450320  0.09278445  1
  O  O165  1  0.25721461  0.48487593  0.63827894  1
  O  O166  1  0.24935238  1.00265672  0.14625604  1
  O  O167  1  0.23855720  1.01001858  0.62026086  1
  O  O168  1  0.75524678  0.50735764  0.13693611  1
  O  O169  1  0.76068012  0.48637245  0.63243420  1
  O  O170  1  0.73462425  1.01120821  0.13859135  1
  O  O171  1  0.74312619  1.00289624  0.62527015  1
  O  O172  1  -0.00154702  0.39418830  0.25014221  1
  O  O173  1  0.00314064  0.35867236  0.73487992  1
  O  O174  1  0.01060488  0.86604945  0.24672507  1
  O  O175  1  0.02344321  0.86288698  0.73785535  1
  O  O176  1  0.49938756  0.37530509  0.27928501  1
  O  O177  1  0.49887417  0.36409674  0.74869118  1
  O  O178  1  0.50927582  0.86545971  0.25411612  1
  O  O179  1  0.50902215  0.86022777  0.74657879  1
  O  O180  1  0.48484594  0.12343628  0.23984636  1
  O  O181  1  0.50492161  0.13439588  0.73138998  1
  O  O182  1  0.48399139  0.63536273  0.25108316  1
  O  O183  1  0.49283342  0.65638113  0.76826019  1
  O  O184  1  0.98713448  0.12832773  0.25919612  1
  O  O185  1  1.00035428  0.12995411  0.74119504  1
  O  O186  1  0.98404628  0.63723279  0.24570525  1
  O  O187  1  1.00980150  0.60778916  0.73381212  1
  O  O188  1  0.39188863  0.25350419  -0.00330037  1
  O  O189  1  0.37992858  0.24349928  0.51397847  1
  O  O190  1  0.36176191  0.76726054  -0.00780064  1
  O  O191  1  0.37253214  0.75860224  0.51214791  1
  O  O192  1  0.88107816  0.24834396  0.00645682  1
  O  O193  1  0.86895366  0.23255726  0.49475377  1
  O  O194  1  0.86104356  0.76175525  0.00662594  1
  O  O195  1  0.88425187  0.76367454  0.51491286  1
  O  O196  1  0.07797370  0.23879847  0.47483161  1
  O  O197  1  0.12067424  0.24215887  0.97934562  1
  O  O198  1  0.11087060  0.73975306  0.49252909  1
  O  O199  1  0.13794307  0.74315842  0.99190564  1
  O  O200  1  0.64215400  0.23275820  0.48836940  1
  O  O201  1  0.62856466  0.22203020  0.99859685  1
  O  O202  1  0.62850037  0.72468777  0.53303807  1
  O  O203  1  0.63142071  0.75646203  1.00035942  1
  O  O204  1  0.51307242  0.23097978  0.11875727  1
  O  O205  1  0.49453050  0.24638249  0.62497715  1
  O  O206  1  0.50404099  0.73919303  0.14600835  1
  O  O207  1  0.49171166  0.74821553  0.63378062  1
  O  O208  1  0.98725657  0.24496188  0.13543889  1
  O  O209  1  1.00342605  0.23150195  0.63541994  1
  O  O210  1  0.98830594  0.74612261  0.13755513  1
  O  O211  1  0.99260947  0.73650792  0.62866034  1
  O  O212  1  -0.02842053  0.27481204  0.35284303  1
  O  O213  1  0.01431121  0.23588120  0.85958428  1
  O  O214  1  0.00968694  0.74272899  0.36569596  1
  O  O215  1  0.02158719  0.74811818  0.88438936  1
  O  O216  1  0.51673640  0.26448109  0.38734188  1
  O  O217  1  0.50309762  0.25385358  0.85131915  1
  O  O218  1  0.49547328  0.74556311  0.36536345  1
  O  O219  1  0.50985788  0.76273121  0.88694720  1
  O  O220  1  0.25464113  0.12224055  0.47579762  1
  O  O221  1  0.21990194  0.09515681  1.00698689  1
  O  O222  1  0.23014803  0.61568569  0.49253101  1
  O  O223  1  0.26684066  0.63057158  0.99988209  1
  O  O224  1  0.74608082  0.12375094  0.48405791  1
  O  O225  1  0.75648539  0.13000828  0.98581570  1
  O  O226  1  0.74059806  0.61625715  0.49263930  1
  O  O227  1  0.73514548  0.63974005  0.99924575  1
  O  O228  1  0.27671345  0.36145319  0.00027436  1
  O  O229  1  0.24412532  0.38712338  0.51325249  1
  O  O230  1  0.26070149  0.88705046  0.00723024  1
  O  O231  1  0.27674340  0.87680259  0.46521356  1
  O  O232  1  0.73004147  0.34285842  -0.00553535  1
  O  O233  1  0.76850580  0.35356408  0.48359671  1
  O  O234  1  0.75269234  0.86878377  0.00581030  1
  O  O235  1  0.76828884  0.88234744  0.51502628  1
  O  O236  1  0.13873883  0.52597896  0.25029730  1
  O  O237  1  0.14178746  0.48625597  0.76633960  1
  O  O238  1  0.12376185  0.98084647  0.24904492  1
  O  O239  1  0.12326190  0.99111992  0.74057602  1
  O  O240  1  0.63745881  0.51166450  0.25138377  1
  O  O241  1  0.63600677  0.55355935  0.72876496  1
  O  O242  1  0.62531916  0.98915934  0.24509129  1
  O  O243  1  0.61880999  0.99734778  0.72814114  1
  O  O244  1  0.36540943  -0.01501992  0.25444811  1
  O  O245  1  0.38995374  0.00180722  0.76460063  1
  O  O246  1  0.37106749  0.51445848  0.25326051  1
  O  O247  1  0.36757313  0.49484180  0.76091788  1
  O  O248  1  0.85840084  -0.01243109  0.24294303  1
  O  O249  1  0.87573365  -0.01335905  0.75521750  1
  O  O250  1  0.86532479  0.51641642  0.25618368  1
  O  O251  1  0.85963093  0.49384289  0.77515149  1
  O  O252  1  0.10070961  0.37749123  0.37561186  1
  O  O253  1  0.13542621  0.35303367  0.87161167  1
  O  O254  1  0.12708315  0.86191222  0.38337126  1
  O  O255  1  0.11781852  0.88932700  0.86897248  1
  O  O256  1  0.64115131  0.35789849  0.37857261  1
  O  O257  1  0.61688482  0.38226608  0.86467028  1
  O  O258  1  0.62307782  0.88221540  0.37107197  1
  O  O259  1  0.63498124  0.86634190  0.87706175  1
  O  O260  1  0.38662683  0.12215958  0.13389978  1
  O  O261  1  0.39013958  0.12877868  0.62009483  1
  O  O262  1  0.38103626  0.62566783  0.13711476  1
  O  O263  1  0.36143184  0.64625678  0.62309790  1
  O  O264  1  0.89335118  0.13277519  0.12005792  1
  O  O265  1  0.88751802  0.11527211  0.62926233  1
  O  O266  1  0.87741819  0.63969310  0.13758477  1
  O  O267  1  0.88325916  0.63727827  0.62484126  1
  O  O268  1  0.22371905  0.32917928  0.17073680  1
  O  O269  1  0.26252291  0.25832293  0.62556528  1
  O  O270  1  0.24474885  0.74603444  0.10652513  1
  O  O271  1  0.24818225  0.75502748  0.62336891  1
  O  O272  1  0.76200205  0.23069026  0.10841928  1
  O  O273  1  0.75327417  0.25214206  0.60629115  1
  O  O274  1  0.75424531  0.74754944  0.11509460  1
  O  O275  1  0.76225103  0.75426125  0.62335012  1
  O  O276  1  0.24413466  0.23959567  0.35993523  1
  O  O277  1  0.24682522  0.23319162  0.86691198  1
  O  O278  1  0.22700540  0.73517651  0.37386611  1
  O  O279  1  0.23810393  0.75387398  0.89251521  1
  O  O280  1  0.74914013  0.23275282  0.37691889  1
  O  O281  1  0.74979445  0.23089927  0.88394138  1
  O  O282  1  0.73011282  0.76177848  0.38905124  1
  O  O283  1  0.74324740  0.75001012  0.89341836  1
  O  O284  1  0.00367597  0.11860812  0.00258662  1
  O  O285  1  -0.00722561  0.10456940  0.51380441  1
  O  O286  1  -0.01007863  0.63684669  0.01999507  1
  O  O287  1  0.00407304  0.61760344  0.50804291  1
  O  O288  1  0.49290760  0.10724301  0.01431181  1
  O  O289  1  0.51476852  0.13178710  0.50812661  1
  O  O290  1  0.50689357  0.63967623  0.01542449  1
  O  O291  1  0.50903588  0.61221279  0.49068746  1
  O  O292  1  0.51240355  0.39004216  0.48792671  1
  O  O293  1  0.50351276  0.36424617  0.97114721  1
  O  O294  1  0.49013845  0.86948989  0.48891016  1
  O  O295  1  0.48789555  0.88807264  1.00543245  1
  O  O296  1  0.99672616  0.39343061  0.50630158  1
  O  O297  1  1.13371679  0.48335420  1.00749161  1
  O  O298  1  0.98983742  0.88315997  0.51202709  1
  O  O299  1  0.98664130  0.86916280  1.00441921  1
  O  O300  1  0.49331784  0.49076206  0.38288473  1
  O  O301  1  0.49589440  0.48458388  0.85653565  1
  O  O302  1  0.48299533  0.99117736  0.36667804  1
  O  O303  1  0.49085144  1.00955605  0.89010482  1
  O  O304  1  0.99035452  0.49561820  0.38217414  1
  O  O305  1  0.98149445  0.49574523  0.88675280  1
  O  O306  1  1.00657005  0.99813435  0.39424210  1
  O  O307  1  0.98342521  1.00439407  0.87299540  1
  O  O308  1  0.00351770  0.01177403  0.12535176  1
  O  O309  1  0.00755007  0.00655127  0.62343499  1
  O  O310  1  -0.01387421  0.51914975  0.12769823  1
  O  O311  1  -0.02018678  0.51171445  0.61384803  1
  O  O312  1  0.50862952  0.00306032  0.11816192  1
  O  O313  1  0.50494996  0.01341482  0.62413235  1
  O  O314  1  0.50074821  0.52920212  0.13454513  1
  O  O315  1  0.50404578  0.49465561  0.61187513  1
  O  O316  1  0.24407400  0.37836329  0.22937100  1
  O  O317  1  0.25129784  0.37944072  0.73782806  1
  O  O318  1  0.23472955  0.87981132  0.25440212  1
  O  O319  1  0.23045624  0.87645232  0.75338231  1
  O  O320  1  0.75000967  0.38955977  0.24748578  1
  O  O321  1  0.73957775  0.36780935  0.73833157  1
  O  O322  1  0.73576270  0.88840832  0.25709711  1
  O  O323  1  0.74152225  0.86902889  0.73052234  1
  O  O324  1  0.26948097  0.11673571  0.24562421  1
  O  O325  1  0.25745938  0.12628735  0.74605771  1
  O  O326  1  0.26001139  0.63282565  0.25847953  1
  O  O327  1  0.24336088  0.60260963  0.74088239  1
  O  O328  1  0.75073478  0.11132069  0.26217958  1
  O  O329  1  0.74753129  0.13096137  0.76282316  1
  O  O330  1  0.76049804  0.62966625  0.24965225  1
  O  O331  1  0.75467462  0.65324094  0.77160074  1
  O  O332  1  0.36768302  0.13697017  0.35524054  1
  O  O333  1  0.36618462  0.11872898  0.87110861  1
  O  O334  1  0.35499063  0.63047836  0.36962652  1
  O  O335  1  0.38901246  0.60270944  0.88339375  1
  O  O336  1  0.87190353  0.12241882  0.37570818  1
  O  O337  1  0.86741715  0.10865139  0.87018885  1
  O  O338  1  0.87859371  0.62028180  0.36425529  1
  O  O339  1  0.85779800  0.62874118  0.88841629  1
  O  O340  1  0.15613921  0.35007488  0.13296509  1
  O  O341  1  0.13936198  0.36319499  0.62538148  1
  O  O342  1  0.12272021  0.86893898  0.13031753  1
  O  O343  1  0.12974565  0.88884174  0.63138957  1
  O  O344  1  0.58250256  0.40189813  0.10453556  1
  O  O345  1  0.65597678  0.37461877  0.58887058  1
  O  O346  1  0.62082532  0.88814700  0.13680728  1
  O  O347  1  0.63966003  0.88696815  0.60926193  1
  O  O348  1  0.08938701  0.25181689  0.25665378  1
  O  O349  1  0.11720944  0.24889776  0.75640438  1
  O  O350  1  0.11800757  0.76245780  0.25991737  1
  O  O351  1  0.13430399  0.75713968  0.77209395  1
  O  O352  1  0.63285924  0.24153034  0.26642194  1
  O  O353  1  0.61289100  0.25082522  0.73038266  1
  O  O354  1  0.62078190  0.76667955  0.25481804  1
  O  O355  1  0.61484685  0.75139243  0.76725947  1
  O  O356  1  0.37312238  0.24829753  0.23514674  1
  O  O357  1  0.38931044  0.24484392  0.73122912  1
  O  O358  1  0.38350048  0.75726472  0.25446882  1
  O  O359  1  0.37563334  0.76642224  0.73635752  1
  O  O360  1  0.87779840  0.25363506  0.23253502  1
  O  O361  1  0.89056222  0.25064139  0.75953393  1
  O  O362  1  0.87550235  0.74785915  0.24902659  1
  O  O363  1  0.87626892  0.75693165  0.74086891  1
  O  O364  1  0.38857788  0.50863950  0.50441798  1
  O  O365  1  0.39863271  0.48589184  0.98665864  1
  O  O366  1  0.38587213  0.98993093  0.50854287  1
  O  O367  1  0.38259190  0.99217815  0.99504456  1
  O  O368  1  0.88088890  0.51172895  0.48500483  1
  O  O369  1  0.83726286  0.49448978  0.97983784  1
  O  O370  1  0.88825806  0.98339933  0.50562356  1
  O  O371  1  0.87075375  0.98312658  1.01219431  1
  O  O372  1  0.16467191  0.04232259  0.00493075  1
  O  O373  1  0.11319758  -0.01017825  0.51367713  1
  O  O374  1  0.16557136  0.50917265  0.07456304  1
  O  O375  1  0.10449013  0.51348937  0.49792030  1
  O  O376  1  0.61400166  -0.00891989  0.01373577  1
  O  O377  1  0.63212882  0.01374687  0.50681919  1
  O  O378  1  0.62455888  0.52182632  -0.00628576  1
  O  O379  1  0.61680901  0.51625171  0.49241836  1
  O  O380  1  0.40326248  0.37859026  0.10097453  1
  O  O381  1  0.36901672  0.36493881  0.62140602  1
  O  O382  1  0.37654779  0.87671712  0.11488114  1
  O  O383  1  0.37409977  0.86855040  0.61110494  1
  O  O384  1  0.87057225  0.35964598  0.11642735  1
  O  O385  1  0.85736881  0.36848257  0.62391352  1
  O  O386  1  0.87643967  0.86363627  0.11884700  1
  O  O387  1  0.86700388  0.86267807  0.62581382  1
  O  O388  1  0.14294912  0.13027583  0.34570502  1
  O  O389  1  0.14447366  0.12591431  0.86386392  1
  O  O390  1  0.12471472  0.63270903  0.38738171  1
  O  O391  1  0.12603754  0.62660995  0.87340840  1
  O  O392  1  0.61790708  0.12635641  0.38274705  1
  O  O393  1  0.63980289  0.10301041  0.87650922  1
  O  O394  1  0.62444200  0.63544693  0.37806902  1
  O  O395  1  0.62564500  0.64787037  0.89279843  1
