# generated using pymatgen
data_V35Zn35O128
_symmetry_space_group_name_H-M   'P 1'
_cell_length_a   16.91381183
_cell_length_b   16.91659584
_cell_length_c   16.90977457
_cell_angle_alpha   89.98927181
_cell_angle_beta   89.90768179
_cell_angle_gamma   90.37806874
_symmetry_Int_Tables_number   1
_chemical_formula_structural   V35Zn35O128
_chemical_formula_sum   'V70 Zn70 O256'
_cell_volume   4838.18264377
_cell_formula_units_Z   2
loop_
 _symmetry_equiv_pos_site_id
 _symmetry_equiv_pos_as_xyz
  1  'x, y, z'
loop_
 _atom_site_type_symbol
 _atom_site_label
 _atom_site_symmetry_multiplicity
 _atom_site_fract_x
 _atom_site_fract_y
 _atom_site_fract_z
 _atom_site_occupancy
  V  V0  1  0.00559565  0.86491671  0.86853122  1
  V  V1  1  0.50361692  0.46974298  -0.00156161  1
  V  V2  1  0.74727895  0.51690545  0.75877692  1
  V  V3  1  0.00443954  0.72681066  0.74095160  1
  V  V4  1  0.36694980  0.62512607  0.23968040  1
  V  V5  1  0.74939583  0.11412763  0.37047122  1
  V  V6  1  -0.00276671  0.36607504  0.90453375  1
  V  V7  1  0.63366891  0.24617003  0.86584709  1
  V  V8  1  0.38566261  -0.00799869  0.37364579  1
  V  V9  1  0.25370477  0.37594510  0.64248682  1
  V  V10  1  0.00682912  0.26573372  0.74870492  1
  V  V11  1  0.25693973  0.86414850  0.12366475  1
  V  V12  1  0.62329613  0.87141010  0.76365753  1
  V  V13  1  0.50239391  0.25361933  0.24768011  1
  V  V14  1  0.87858808  0.87035316  0.01072903  1
  V  V15  1  0.61412279  0.12617266  0.49603556  1
  V  V16  1  0.26113149  0.36235360  0.09946185  1
  V  V17  1  0.75347859  -0.01001625  0.74452892  1
  V  V18  1  -0.01110947  0.37198056  0.39824756  1
  V  V19  1  0.24009525  0.59873384  0.84193631  1
  V  V20  1  0.24503475  0.24414619  0.48951092  1
  V  V21  1  0.24438640  0.12902592  0.88877606  1
  V  V22  1  0.75638846  0.00051078  0.23860295  1
  V  V23  1  0.50344385  0.62792524  0.11399053  1
  V  V24  1  0.50392164  0.74851066  0.74728280  1
  V  V25  1  0.88559193  0.12339676  0.74931909  1
  V  V26  1  0.14091820  0.00534552  0.63038456  1
  V  V27  1  0.12202532  0.86726706  0.25758034  1
  V  V28  1  0.49771662  0.61704069  0.61107124  1
  V  V29  1  0.03121451  0.26990547  0.25696446  1
  V  V30  1  0.62537874  0.25763024  0.36889206  1
  V  V31  1  0.73524824  0.74354044  -0.02712448  1
  V  V32  1  0.45437020  0.15576882  0.08587656  1
  V  V33  1  0.50392101  0.12746325  0.64591219  1
  V  V34  1  0.86372385  0.75818978  0.61640664  1
  V  V35  1  0.62006162  0.60433150  0.49324203  1
  V  V36  1  0.75494216  0.12096326  0.87761155  1
  V  V37  1  0.76321265  0.26659455  0.00559890  1
  V  V38  1  0.49225900  0.75148429  0.24465435  1
  V  V39  1  0.24694620  0.48749706  0.24763810  1
  V  V40  1  0.38093398  0.88026367  0.50331272  1
  V  V41  1  0.11841932  0.00140444  0.11595875  1
  V  V42  1  0.62463330  0.37776174  0.75133786  1
  V  V43  1  0.38471498  0.24624535  0.64064590  1
  V  V44  1  0.13648794  0.50585744  0.09875201  1
  V  V45  1  0.25131500  0.74645565  0.48896021  1
  V  V46  1  0.75012465  0.38317928  0.62400883  1
  V  V47  1  0.49421110  0.36061646  0.87012054  1
  V  V48  1  0.75377697  0.25100731  0.49913282  1
  V  V49  1  0.74266940  0.86375150  0.12056324  1
  V  V50  1  0.88257516  -0.00748783  0.87837537  1
  V  V51  1  -0.02851876  0.52846867  0.00098660  1
  V  V52  1  0.38608508  0.37030738  0.49368838  1
  V  V53  1  0.37152306  0.13312581  0.25926451  1
  V  V54  1  0.75260968  0.61941639  0.36160462  1
  V  V55  1  0.38168281  0.50628722  0.37995637  1
  V  V56  1  0.87759375  0.24765280  0.62393714  1
  V  V57  1  0.50000998  -0.00246607  -0.00162058  1
  V  V58  1  0.62403260  0.49218455  0.13607606  1
  V  V59  1  0.37234474  0.86830510  -0.00174711  1
  V  V60  1  0.63284672  0.11739019  0.00963671  1
  V  V61  1  0.37097615  0.74855053  0.62437042  1
  V  V62  1  0.62372926  -0.00776579  0.61518755  1
  V  V63  1  0.24822698  0.00051017  0.25967459  1
  V  V64  1  -0.01566069  0.64242839  0.14714759  1
  V  V65  1  0.60724241  0.88822925  0.24067548  1
  V  V66  1  0.61696043  0.75976124  0.37877469  1
  V  V67  1  0.36696799  0.00360126  0.86390560  1
  V  V68  1  0.87304315  0.15876732  0.23858122  1
  V  V69  1  0.12605774  0.73498812  0.36722195  1
  Zn  Zn70  1  0.12882518  0.24370967  0.88100768  1
  Zn  Zn71  1  0.21216050  0.57814120  0.42457856  1
  Zn  Zn72  1  0.85680516  0.49856588  0.88128851  1
  Zn  Zn73  1  0.75316474  0.38735336  0.12012928  1
  Zn  Zn74  1  0.14277991  0.74184960  0.89458622  1
  Zn  Zn75  1  0.51168164  0.38249570  0.36956909  1
  Zn  Zn76  1  0.19335743  0.18391865  0.18154134  1
  Zn  Zn77  1  0.19744087  0.19201169  0.69424510  1
  Zn  Zn78  1  0.18204293  0.68242975  0.17693862  1
  Zn  Zn79  1  0.20675476  0.72981657  0.72901456  1
  Zn  Zn80  1  0.69180501  0.19531085  0.18486255  1
  Zn  Zn81  1  0.69393551  0.18095821  0.68608351  1
  Zn  Zn82  1  0.67639010  0.68780392  0.19137222  1
  Zn  Zn83  1  0.68406348  0.69729904  0.66801317  1
  Zn  Zn84  1  0.30655973  0.31720654  0.31309819  1
  Zn  Zn85  1  0.30880581  0.29584212  0.81929026  1
  Zn  Zn86  1  0.31303237  0.81334780  0.31286202  1
  Zn  Zn87  1  0.32058823  0.81799135  0.81631134  1
  Zn  Zn88  1  0.81325208  0.32363078  0.32356190  1
  Zn  Zn89  1  0.81821357  0.31814816  0.81403916  1
  Zn  Zn90  1  0.78499495  0.81814428  0.31325173  1
  Zn  Zn91  1  0.82309038  0.80569436  0.80393986  1
  Zn  Zn92  1  0.17180073  0.42641807  0.49728844  1
  Zn  Zn93  1  0.19052056  0.43074489  0.92185528  1
  Zn  Zn94  1  0.16237859  0.90640565  0.46351366  1
  Zn  Zn95  1  0.18869143  0.93989024  0.93965430  1
  Zn  Zn96  1  0.69659440  0.43945764  0.43498620  1
  Zn  Zn97  1  0.66288770  0.57461464  0.93781593  1
  Zn  Zn98  1  0.56392613  0.94011438  0.43162933  1
  Zn  Zn99  1  0.68887434  0.93794039  0.93730964  1
  Zn  Zn100  1  0.30631256  0.05280537  0.06421922  1
  Zn  Zn101  1  0.32208243  0.07017157  0.55631488  1
  Zn  Zn102  1  0.32279149  0.55128529  0.05208959  1
  Zn  Zn103  1  0.29220348  0.56454154  0.57760138  1
  Zn  Zn104  1  0.81999912  0.05583994  0.06600891  1
  Zn  Zn105  1  0.80487447  0.07317561  0.56567450  1
  Zn  Zn106  1  0.80421237  0.58030192  0.07858020  1
  Zn  Zn107  1  0.79626748  0.58853127  0.57128504  1
  Zn  Zn108  1  0.43228046  0.43683555  0.18190796  1
  Zn  Zn109  1  0.41263565  0.45125872  0.68570044  1
  Zn  Zn110  1  0.43577148  0.95489240  0.17405965  1
  Zn  Zn111  1  0.44347871  0.93557006  0.68433766  1
  Zn  Zn112  1  0.97756895  0.41090212  0.17361317  1
  Zn  Zn113  1  0.92678007  0.43867135  0.69572704  1
  Zn  Zn114  1  0.93736052  0.91928770  0.32293877  1
  Zn  Zn115  1  0.94634291  0.93135536  0.68402897  1
  Zn  Zn116  1  0.03342645  0.06116257  0.23625178  1
  Zn  Zn117  1  0.06380117  0.06030734  0.82085463  1
  Zn  Zn118  1  0.06420910  0.54993189  0.30791044  1
  Zn  Zn119  1  0.03625714  0.58028427  0.84719410  1
  Zn  Zn120  1  0.56072301  0.07434926  0.30314520  1
  Zn  Zn121  1  0.56641906  0.05259153  0.81787687  1
  Zn  Zn122  1  0.55854821  0.56865953  0.30790058  1
  Zn  Zn123  1  0.52297894  0.55496922  0.80496265  1
  Zn  Zn124  1  0.43564685  0.18822939  0.43200766  1
  Zn  Zn125  1  0.44410949  0.17759861  0.91338243  1
  Zn  Zn126  1  0.43472322  0.68904468  0.43285575  1
  Zn  Zn127  1  0.43593056  0.68449847  0.92955162  1
  Zn  Zn128  1  0.93168659  0.19110317  0.42236867  1
  Zn  Zn129  1  0.93938030  0.18720718  0.93943048  1
  Zn  Zn130  1  0.91034202  0.74134626  0.40371977  1
  Zn  Zn131  1  0.92737643  0.69398345  0.94835429  1
  Zn  Zn132  1  0.08002210  0.30917147  0.06970656  1
  Zn  Zn133  1  0.06835270  0.31198722  0.57236141  1
  Zn  Zn134  1  0.06348154  0.80911264  0.07178686  1
  Zn  Zn135  1  0.03012306  0.77779437  0.53533232  1
  Zn  Zn136  1  0.58017919  0.30438138  0.05941266  1
  Zn  Zn137  1  0.56555113  0.31224842  0.56404575  1
  Zn  Zn138  1  0.56046509  0.81028197  0.05856922  1
  Zn  Zn139  1  0.55537323  0.81420782  0.56318243  1
  O  O140  1  0.12092352  0.10091645  0.15496546  1
  O  O141  1  0.13240329  0.11187759  0.63216070  1
  O  O142  1  0.11225429  0.60475272  0.13299114  1
  O  O143  1  0.07535886  0.58730343  0.59190848  1
  O  O144  1  0.63908121  0.12359828  0.10867736  1
  O  O145  1  0.61703910  0.12231364  0.61711491  1
  O  O146  1  0.60774804  0.61750434  0.12856972  1
  O  O147  1  0.61127880  0.63295875  0.59998915  1
  O  O148  1  0.37940421  0.38072964  0.38417029  1
  O  O149  1  0.39614920  0.35305824  0.86775355  1
  O  O150  1  0.38094918  0.88660420  0.37759322  1
  O  O151  1  0.36901887  0.88832721  0.89100983  1
  O  O152  1  0.88892270  0.38395223  0.38354956  1
  O  O153  1  0.89432765  0.38647360  0.87063234  1
  O  O154  1  0.85339390  0.89274634  0.43669587  1
  O  O155  1  0.88074555  0.87888773  0.88211943  1
  O  O156  1  0.26639871  -0.00643732  0.36017015  1
  O  O157  1  0.25988450  0.00507090  0.87514908  1
  O  O158  1  0.26707421  0.49771192  0.35550057  1
  O  O159  1  0.23999877  0.49738984  0.84507608  1
  O  O160  1  0.73711857  0.01372752  0.35849490  1
  O  O161  1  0.75940217  0.00135701  0.86371899  1
  O  O162  1  0.75195313  0.51802679  0.37822521  1
  O  O163  1  0.74281021  0.52182682  0.86329314  1
  O  O164  1  0.24931706  0.49988103  0.12774634  1
  O  O165  1  0.29621807  0.47194655  0.64678674  1
  O  O166  1  0.24295531  0.99020930  0.13792650  1
  O  O167  1  0.24601642  1.02247990  0.63944248  1
  O  O168  1  0.72685777  0.50645712  0.11614154  1
  O  O169  1  0.75416883  0.48454301  0.62114230  1
  O  O170  1  0.74717495  0.98989054  0.13368688  1
  O  O171  1  0.73293633  1.01229631  0.63547837  1
  O  O172  1  0.01248928  0.37571194  0.27903868  1
  O  O173  1  0.00207699  0.36744895  0.75226025  1
  O  O174  1  0.02584139  0.87148297  0.25029777  1
  O  O175  1  0.00233296  0.87261045  0.76709917  1
  O  O176  1  0.48786868  0.35604374  0.24654531  1
  O  O177  1  0.51822346  0.36949176  0.76011348  1
  O  O178  1  0.50297441  0.87418226  0.23010249  1
  O  O179  1  0.51672375  0.86632112  0.74118221  1
  O  O180  1  0.48408249  0.13649083  0.24542186  1
  O  O181  1  0.51140889  0.12616667  0.74450708  1
  O  O182  1  0.48923363  0.63393081  0.23812785  1
  O  O183  1  0.51427448  0.64400541  0.72179056  1
  O  O184  1  0.98082319  0.16679015  0.25045733  1
  O  O185  1  0.98797780  0.13055700  0.76112024  1
  O  O186  1  0.99154652  0.59644680  0.23929314  1
  O  O187  1  0.99685440  0.62562170  0.75125119  1
  O  O188  1  0.39735294  0.20326972  0.02071891  1
  O  O189  1  0.37520911  0.26046367  0.49930626  1
  O  O190  1  0.38660105  0.77066384  -0.00672713  1
  O  O191  1  0.37832018  0.76550700  0.50184879  1
  O  O192  1  0.85711661  0.23011905  0.00373398  1
  O  O193  1  0.86279486  0.23481771  0.50714046  1
  O  O194  1  0.84997945  0.76489763  -0.00493103  1
  O  O195  1  0.91637191  0.75425551  0.51704640  1
  O  O196  1  0.14658721  0.25223353  0.51501621  1
  O  O197  1  0.09188213  0.21069784  1.00525956  1
  O  O198  1  0.14594649  0.74083042  0.48815186  1
  O  O199  1  0.12517741  0.74731613  1.00422519  1
  O  O200  1  0.63318951  0.24312515  0.49202689  1
  O  O201  1  0.64642531  0.23691421  0.98784047  1
  O  O202  1  0.61208799  0.76384881  0.47894281  1
  O  O203  1  0.63657214  0.75830837  0.99291837  1
  O  O204  1  0.50914406  0.23542346  0.12844177  1
  O  O205  1  0.49880841  0.23602571  0.62397580  1
  O  O206  1  0.50266581  0.73880068  0.13179659  1
  O  O207  1  0.48934786  0.74670569  0.62408151  1
  O  O208  1  1.00538071  0.29328581  0.15659857  1
  O  O209  1  0.98923585  0.25619518  0.63839264  1
  O  O210  1  1.00975099  0.73953792  0.14904309  1
  O  O211  1  1.02353781  0.74166743  0.64292689  1
  O  O212  1  0.00137302  0.26413892  0.36936216  1
  O  O213  1  -0.00800041  0.25745111  0.86220965  1
  O  O214  1  0.02906400  0.74170375  0.38639964  1
  O  O215  1  -0.01448386  0.76044878  0.87240160  1
  O  O216  1  0.51025972  0.25174836  0.36540684  1
  O  O217  1  0.52060101  0.25224564  0.87764042  1
  O  O218  1  0.50526116  0.74615182  0.35655528  1
  O  O219  1  0.48499159  0.74203131  0.84493599  1
  O  O220  1  0.26553451  0.14453798  0.49609453  1
  O  O221  1  0.25186277  0.11478261  0.98925887  1
  O  O222  1  0.28447008  0.64735249  0.48985338  1
  O  O223  1  0.28769338  0.61590192  0.95753155  1
  O  O224  1  0.73813994  0.13218804  0.48985897  1
  O  O225  1  0.74801984  0.10822650  0.98635090  1
  O  O226  1  0.72384418  0.62702564  0.49026039  1
  O  O227  1  0.74593234  0.63991925  0.99353267  1
  O  O228  1  0.25724209  0.37914698  -0.00025955  1
  O  O229  1  0.27199516  0.36337819  0.51737721  1
  O  O230  1  0.26098940  0.87922048  0.01221830  1
  O  O231  1  0.26750119  0.86018173  0.49312086  1
  O  O232  1  0.76863565  0.36485035  -0.00436365  1
  O  O233  1  0.74254233  0.36338903  0.51357472  1
  O  O234  1  0.74619857  0.86736720  0.00831193  1
  O  O235  1  0.82913097  0.93698533  0.49386230  1
  O  O236  1  0.14656609  0.49714504  0.24396181  1
  O  O237  1  0.05194870  0.53748082  0.64154867  1
  O  O238  1  0.14324343  0.98264558  0.25797887  1
  O  O239  1  0.12786512  1.00910855  0.73538247  1
  O  O240  1  0.61338776  0.50007783  0.23619743  1
  O  O241  1  0.63367086  0.48145961  0.75174429  1
  O  O242  1  0.62161008  0.99123931  0.24890792  1
  O  O243  1  0.63159534  0.98751189  0.74330161  1
  O  O244  1  0.37283429  0.00620615  0.25805128  1
  O  O245  1  0.38377425  -0.01410996  0.76643139  1
  O  O246  1  0.37065883  0.50924148  0.25212666  1
  O  O247  1  0.42463723  0.51387842  0.77432632  1
  O  O248  1  0.85173197  -0.01408086  0.25418689  1
  O  O249  1  0.87179319  0.00268757  0.75267086  1
  O  O250  1  0.82958400  0.45432407  0.23988338  1
  O  O251  1  0.85150170  0.50197287  0.75279917  1
  O  O252  1  0.10666177  0.41232461  0.39970929  1
  O  O253  1  0.10666081  0.35604338  0.89388421  1
  O  O254  1  0.13994856  0.85860457  0.36231158  1
  O  O255  1  0.10487082  0.87481973  0.89315092  1
  O  O256  1  0.62866134  0.36220789  0.37857531  1
  O  O257  1  0.63013717  0.35805113  0.86067955  1
  O  O258  1  0.61664247  0.86925708  0.35530917  1
  O  O259  1  0.62146492  0.87801123  0.86211068  1
  O  O260  1  0.36967338  0.12121975  0.14381948  1
  O  O261  1  0.39621898  0.13134579  0.62249418  1
  O  O262  1  0.38596178  0.61634513  0.13413243  1
  O  O263  1  0.38581818  0.64009723  0.61388610  1
  O  O264  1  0.87036971  0.11857062  0.14543331  1
  O  O265  1  0.87015646  0.13522492  0.63716290  1
  O  O266  1  0.88312245  0.63839348  0.13351562  1
  O  O267  1  0.87365214  0.64991365  0.62075522  1
  O  O268  1  0.23451975  0.26441305  0.11498036  1
  O  O269  1  0.27303325  0.25141916  0.62208721  1
  O  O270  1  0.24994849  0.76507951  0.13018777  1
  O  O271  1  0.26798398  0.74503985  0.61100173  1
  O  O272  1  0.74082923  0.26694466  0.11097063  1
  O  O273  1  0.75701970  0.25056326  0.61602247  1
  O  O274  1  0.74202585  0.76330505  0.12910062  1
  O  O275  1  0.76186815  0.76128576  0.61373406  1
  O  O276  1  0.24624671  0.26204422  0.38944561  1
  O  O277  1  0.24753685  0.23747724  0.89224620  1
  O  O278  1  0.24894991  0.74752937  0.38116707  1
  O  O279  1  0.25197556  0.73397019  0.85373276  1
  O  O280  1  0.74351534  0.24696957  0.38109798  1
  O  O281  1  0.75346817  0.23878703  0.88157267  1
  O  O282  1  0.72048048  0.74259438  0.36593743  1
  O  O283  1  0.74663846  0.75286737  0.87337026  1
  O  O284  1  0.02945519  0.16081601  0.01116008  1
  O  O285  1  0.00415336  0.10742778  0.47457471  1
  O  O286  1  -0.00368011  0.62657008  0.02981219  1
  O  O287  1  -0.06677866  0.55593994  0.46993612  1
  O  O288  1  0.51719898  0.12273032  -0.00426267  1
  O  O289  1  0.51250197  0.12808332  0.49752140  1
  O  O290  1  0.49185947  0.63367457  0.01449984  1
  O  O291  1  0.50637742  0.62912527  0.50059538  1
  O  O292  1  0.49041279  0.37105777  0.49802954  1
  O  O293  1  0.50599776  0.36339535  0.99123924  1
  O  O294  1  0.48766851  0.88222119  0.49657298  1
  O  O295  1  0.49010890  0.89162248  1.01348827  1
  O  O296  1  0.99525633  0.35740200  0.49820260  1
  O  O297  1  0.98536406  0.34429909  1.00007708  1
  O  O298  1  1.06001877  0.88239920  0.50791787  1
  O  O299  1  0.98003088  0.86209156  1.00323648  1
  O  O300  1  0.48551539  0.49503443  0.36246633  1
  O  O301  1  0.51562565  0.46668871  0.88968952  1
  O  O302  1  0.49098815  1.00516235  0.36915482  1
  O  O303  1  0.48638584  1.01033087  0.88896190  1
  O  O304  1  1.04533487  0.47395005  0.39839446  1
  O  O305  1  1.02006405  0.47660708  0.91738572  1
  O  O306  1  0.98917508  1.01658553  0.33100384  1
  O  O307  1  0.98896704  0.98823545  0.87334430  1
  O  O308  1  0.02121156  -0.01245100  0.13990159  1
  O  O309  1  0.03753378  -0.00994610  0.62467380  1
  O  O310  1  0.01876428  0.48659044  0.09305719  1
  O  O311  1  -0.00486569  0.48321981  0.61203821  1
  O  O312  1  0.48450970  0.03213303  0.10057675  1
  O  O313  1  0.51485792  0.01423151  0.63071179  1
  O  O314  1  0.50485793  0.50486138  0.11847105  1
  O  O315  1  0.48887541  0.51902028  0.61993297  1
  O  O316  1  0.25891421  0.38625091  0.23573294  1
  O  O317  1  0.24951011  0.35187067  0.74019023  1
  O  O318  1  0.25779122  0.88348757  0.23923489  1
  O  O319  1  0.23667272  0.83913565  0.74518775  1
  O  O320  1  0.76424357  0.40437585  0.24926836  1
  O  O321  1  0.74465373  0.38194978  0.74255720  1
  O  O322  1  0.73029760  0.88543631  0.23881033  1
  O  O323  1  0.74074421  0.88295528  0.75209806  1
  O  O324  1  0.26186059  0.11163399  0.25034826  1
  O  O325  1  0.25422996  0.13887983  0.77432288  1
  O  O326  1  0.26400609  0.61674231  0.23756779  1
  O  O327  1  0.24379171  0.62114725  0.74139752  1
  O  O328  1  0.75229712  0.11637209  0.24912217  1
  O  O329  1  0.76059495  0.11410643  0.76068416  1
  O  O330  1  0.73793807  0.62530737  0.26083693  1
  O  O331  1  0.73116459  0.60901911  0.72526193  1
  O  O332  1  0.37747190  0.11151616  0.36508606  1
  O  O333  1  0.36387545  0.11221061  0.87159514  1
  O  O334  1  0.38136445  0.61214551  0.36096575  1
  O  O335  1  0.34647373  0.61321040  0.89528793  1
  O  O336  1  0.85877909  0.13671561  0.35084337  1
  O  O337  1  0.87226209  0.11224108  0.87175321  1
  O  O338  1  0.84814191  0.64794635  0.37782419  1
  O  O339  1  0.92996686  0.58904723  0.90273100  1
  O  O340  1  0.14367626  0.39540513  0.11093215  1
  O  O341  1  0.15363734  0.38374346  0.61492893  1
  O  O342  1  0.13982267  0.88030873  0.13675878  1
  O  O343  1  0.16197465  0.90477534  0.63745145  1
  O  O344  1  0.62484769  0.38752872  0.12390837  1
  O  O345  1  0.63900205  0.36128631  0.63967846  1
  O  O346  1  0.62975181  0.87558733  0.13209360  1
  O  O347  1  0.62224471  0.89115963  0.62101271  1
  O  O348  1  0.12747009  0.24909662  0.25647606  1
  O  O349  1  0.10671358  0.24449951  0.74866508  1
  O  O350  1  0.13944644  0.75537674  0.25861424  1
  O  O351  1  0.10213991  0.74379936  0.77811835  1
  O  O352  1  0.61638949  0.24183223  0.25812531  1
  O  O353  1  0.64173656  0.25132200  0.75950293  1
  O  O354  1  0.60907338  0.76515119  0.25152382  1
  O  O355  1  0.61930161  0.76506202  0.73844464  1
  O  O356  1  0.37682171  0.23705010  0.26090222  1
  O  O357  1  0.38352967  0.24725764  0.73841209  1
  O  O358  1  0.37858845  0.73506499  0.25497690  1
  O  O359  1  0.38876428  0.76459941  0.72865380  1
  O  O360  1  0.85005426  0.25604383  0.23534520  1
  O  O361  1  0.88153317  0.24285102  0.74436410  1
  O  O362  1  0.89296996  0.81678093  0.31992595  1
  O  O363  1  0.89196532  0.75350534  0.73196293  1
  O  O364  1  0.37228418  0.48986488  0.48321186  1
  O  O365  1  0.40632939  0.49517160  1.00004118  1
  O  O366  1  0.36820859  0.99106569  0.48555332  1
  O  O367  1  0.38284264  0.99556830  0.99034770  1
  O  O368  1  0.87900187  0.51670747  0.50035471  1
  O  O369  1  0.87525714  0.50150963  1.01559802  1
  O  O370  1  0.87413831  1.00526391  0.50337978  1
  O  O371  1  0.86605102  0.98186769  0.98961118  1
  O  O372  1  0.12587261  -0.00107139  0.01648950  1
  O  O373  1  0.14979519  0.00806001  0.52685594  1
  O  O374  1  0.15241509  0.51674973  0.00248978  1
  O  O375  1  0.19234289  0.53214634  0.52541482  1
  O  O376  1  0.60974129  0.00348745  -0.00949655  1
  O  O377  1  0.62506977  0.00738297  0.50911769  1
  O  O378  1  0.60424719  0.50662929  0.01325018  1
  O  O379  1  0.61657410  0.50507283  0.49148157  1
  O  O380  1  0.36040012  0.37365302  0.12018248  1
  O  O381  1  0.38796683  0.35691166  0.61933885  1
  O  O382  1  0.36505637  0.88291015  0.11454736  1
  O  O383  1  0.37987980  0.87194498  0.60968657  1
  O  O384  1  0.86263961  0.43809023  0.16516154  1
  O  O385  1  0.85779179  0.36087594  0.63289883  1
  O  O386  1  0.85445188  0.87604839  0.11205489  1
  O  O387  1  0.88711145  0.86224709  0.62322349  1
  O  O388  1  0.04257827  0.06230534  0.42927234  1
  O  O389  1  0.13671734  0.12339538  0.87612238  1
  O  O390  1  0.13479665  0.62986332  0.35972716  1
  O  O391  1  0.14014339  0.61741504  0.87288315  1
  O  O392  1  0.63051668  0.13457315  0.37817247  1
  O  O393  1  0.63933410  0.12589190  0.87745758  1
  O  O394  1  0.61900418  0.63510937  0.38225694  1
  O  O395  1  0.58230986  0.61713316  0.87403952  1
