# generated using pymatgen
data_V35Zn35O128
_symmetry_space_group_name_H-M   'P 1'
_cell_length_a   16.99148616
_cell_length_b   16.93879911
_cell_length_c   16.92758157
_cell_angle_alpha   90.03261005
_cell_angle_beta   89.60923980
_cell_angle_gamma   90.02354786
_symmetry_Int_Tables_number   1
_chemical_formula_structural   V35Zn35O128
_chemical_formula_sum   'V70 Zn70 O256'
_cell_volume   4871.90366663
_cell_formula_units_Z   2
loop_
 _symmetry_equiv_pos_site_id
 _symmetry_equiv_pos_as_xyz
  1  'x, y, z'
loop_
 _atom_site_type_symbol
 _atom_site_label
 _atom_site_symmetry_multiplicity
 _atom_site_fract_x
 _atom_site_fract_y
 _atom_site_fract_z
 _atom_site_occupancy
  V  V0  1  0.01328106  0.37911090  0.90010149  1
  V  V1  1  0.86879512  0.00156565  0.36927816  1
  V  V2  1  0.89039986  0.49933288  0.38909070  1
  V  V3  1  0.48816435  0.49945338  -0.00112279  1
  V  V4  1  0.11758282  0.24389370  0.35827620  1
  V  V5  1  0.11260343  0.50209418  0.12303739  1
  V  V6  1  0.12212893  0.61334334  0.49504883  1
  V  V7  1  0.75302063  0.88126082  0.65423723  1
  V  V8  1  0.35402399  0.47605253  0.84499834  1
  V  V9  1  0.13412993  0.87523960  0.24634000  1
  V  V10  1  0.24564035  0.37687449  0.62791579  1
  V  V11  1  -0.01100153  0.00165390  0.00405050  1
  V  V12  1  0.24349934  -0.00353508  0.72561237  1
  V  V13  1  0.75506486  0.74876622  0.50527123  1
  V  V14  1  0.17638819  0.55248815  0.67883510  1
  V  V15  1  0.62058342  0.47377429  0.62870399  1
  V  V16  1  0.00514797  0.86329338  0.37764074  1
  V  V17  1  0.70394075  0.69665642  0.00377358  1
  V  V18  1  0.00377105  0.00708651  0.50726666  1
  V  V19  1  0.59615690  0.25990895  0.38204627  1
  V  V20  1  0.50910467  0.26593373  0.23376714  1
  V  V21  1  0.72274134  0.38386565  0.12121783  1
  V  V22  1  0.25121837  0.75173834  -0.01904273  1
  V  V23  1  0.24126151  0.75797611  0.50535422  1
  V  V24  1  0.87746643  0.13300555  0.72485354  1
  V  V25  1  0.36037537  0.36976321  0.00941809  1
  V  V26  1  0.24595365  0.48873878  0.23984133  1
  V  V27  1  0.87719644  0.87782014  0.50476734  1
  V  V28  1  0.24805629  0.25495160  0.49557863  1
  V  V29  1  0.37050222  0.77899509  0.13491910  1
  V  V30  1  0.64270499  0.88959077  0.24944915  1
  V  V31  1  0.38247707  0.75561228  0.61556764  1
  V  V32  1  0.37730761  0.49922020  0.36989504  1
  V  V33  1  0.86848815  0.61411413  0.76301720  1
  V  V34  1  0.07278100  0.31521046  0.69788729  1
  V  V35  1  0.86647535  0.85705840  0.01607929  1
  V  V36  1  0.24258614  0.63233780  0.36728482  1
  V  V37  1  0.51747380  0.28704516  0.76711800  1
  V  V38  1  0.77609652  0.12106611  0.88548483  1
  V  V39  1  0.37913835  0.36904884  0.49210825  1
  V  V40  1  0.01095136  0.74724859  0.76020734  1
  V  V41  1  0.12521578  0.88342137  0.74656992  1
  V  V42  1  0.00389036  0.74781883  0.23140918  1
  V  V43  1  -0.00292170  0.60711142  0.62263158  1
  V  V44  1  0.52163861  0.89378554  0.86239763  1
  V  V45  1  0.13379869  -0.00248372  0.12312748  1
  V  V46  1  0.00179048  0.36785005  0.36565915  1
  V  V47  1  0.86784949  0.35581801  0.51883859  1
  V  V48  1  0.13465208  0.25332701  0.89573786  1
  V  V49  1  0.64032678  0.00780566  0.10637358  1
  V  V50  1  0.59814469  -0.00425289  0.62006152  1
  V  V51  1  0.75651737  0.62411600  0.37880751  1
  V  V52  1  0.38564233  0.62967931  0.23744221  1
  V  V53  1  0.00028847  0.13165437  0.13522987  1
  V  V54  1  0.37794229  0.11597938  0.72218747  1
  V  V55  1  0.60944433  0.10704859  0.48392699  1
  V  V56  1  0.87790381  0.74540896  0.63443240  1
  V  V57  1  0.62434807  0.15571230  -0.01315702  1
  V  V58  1  0.86172913  0.27068809  0.12202823  1
  V  V59  1  0.60984378  0.75212708  0.37272947  1
  V  V60  1  0.49808191  0.50296107  0.49797752  1
  V  V61  1  0.24310896  0.11710005  0.89809109  1
  V  V62  1  0.35522201  0.24427184  0.12626791  1
  V  V63  1  0.74994936  0.15402752  0.37207490  1
  V  V64  1  0.87636176  0.49097553  0.89565703  1
  V  V65  1  0.12051714  0.12712847  0.51389355  1
  V  V66  1  0.25818728  0.11605793  0.36368484  1
  V  V67  1  0.88313156  0.62778358  0.24107033  1
  V  V68  1  0.62330482  0.62594553  0.51349474  1
  V  V69  1  0.11821386  0.62960778  -0.00335545  1
  Zn  Zn70  1  0.75815232  0.49043703  0.25591979  1
  Zn  Zn71  1  0.35632263  0.61618846  0.72626702  1
  Zn  Zn72  1  0.87321461  0.13214208  0.24800025  1
  Zn  Zn73  1  -0.00941831  0.88426624  0.87768699  1
  Zn  Zn74  1  0.36226514  0.88450607  -0.00623631  1
  Zn  Zn75  1  0.38363356  0.00785543  0.88384149  1
  Zn  Zn76  1  0.18506275  0.17713067  0.18630893  1
  Zn  Zn77  1  0.22201979  0.20464112  0.70400476  1
  Zn  Zn78  1  0.18945051  0.68965943  0.17828845  1
  Zn  Zn79  1  0.22500523  0.73487949  0.72150136  1
  Zn  Zn80  1  0.68432260  0.18907869  0.18930172  1
  Zn  Zn81  1  0.70968452  0.21831177  0.75018032  1
  Zn  Zn82  1  0.72114369  0.72892890  0.20171650  1
  Zn  Zn83  1  0.67382780  0.60315023  0.71023681  1
  Zn  Zn84  1  0.31334678  0.30710764  0.30900726  1
  Zn  Zn85  1  0.34058048  0.27502754  0.82723411  1
  Zn  Zn86  1  0.31375141  0.80849121  0.31172921  1
  Zn  Zn87  1  0.33996059  0.81287297  0.81465814  1
  Zn  Zn88  1  0.81802483  0.31961994  0.29451775  1
  Zn  Zn89  1  0.84933768  0.28591959  0.84483098  1
  Zn  Zn90  1  0.82143697  0.81283212  0.31490586  1
  Zn  Zn91  1  0.79983248  0.80740113  0.84896787  1
  Zn  Zn92  1  0.18899345  0.43745715  0.42535714  1
  Zn  Zn93  1  0.19182420  0.44852647  0.93828811  1
  Zn  Zn94  1  0.18124675  0.94030477  0.43410427  1
  Zn  Zn95  1  0.17667385  0.93040281  0.93268040  1
  Zn  Zn96  1  0.69124724  0.43512841  0.44246078  1
  Zn  Zn97  1  0.69130430  0.48275170  0.95828369  1
  Zn  Zn98  1  0.68928376  0.92926637  0.44093349  1
  Zn  Zn99  1  0.70289369  0.94018400  0.93183831  1
  Zn  Zn100  1  0.31787683  0.05779571  0.06904128  1
  Zn  Zn101  1  0.30301101  0.06374052  0.55122941  1
  Zn  Zn102  1  0.30912740  0.56676022  0.05522335  1
  Zn  Zn103  1  0.31315328  0.56805857  0.55281637  1
  Zn  Zn104  1  0.81233538  0.07414560  0.06146942  1
  Zn  Zn105  1  0.78040470  0.18255994  0.56770221  1
  Zn  Zn106  1  0.80606763  0.55830048  0.06924420  1
  Zn  Zn107  1  0.80782827  0.55437462  0.56857127  1
  Zn  Zn108  1  0.43593512  0.43783575  0.17908791  1
  Zn  Zn109  1  0.43197688  0.43259113  0.67534501  1
  Zn  Zn110  1  0.47216586  0.93595794  0.19425682  1
  Zn  Zn111  1  0.42913346  0.92208869  0.69981752  1
  Zn  Zn112  1  0.93765093  0.44257356  0.18992809  1
  Zn  Zn113  1  0.93461967  0.42983432  0.69732304  1
  Zn  Zn114  1  0.93863983  0.93696721  0.18557008  1
  Zn  Zn115  1  0.93988887  0.93536926  0.68839182  1
  Zn  Zn116  1  0.05924761  0.05599474  0.31314235  1
  Zn  Zn117  1  0.06926341  0.06448903  0.82066538  1
  Zn  Zn118  1  0.06386505  0.56161580  0.30732533  1
  Zn  Zn119  1  0.05942147  0.56364348  0.82242812  1
  Zn  Zn120  1  0.50063919  0.12419883  0.12369612  1
  Zn  Zn121  1  0.56988240  0.07152841  0.80823607  1
  Zn  Zn122  1  0.55583083  0.58037518  0.32966493  1
  Zn  Zn123  1  0.54535333  0.47511904  0.82637921  1
  Zn  Zn124  1  0.46124759  0.11558469  0.34127920  1
  Zn  Zn125  1  0.43470314  0.18410833  0.93961022  1
  Zn  Zn126  1  0.42911300  0.68572128  0.44328242  1
  Zn  Zn127  1  0.48045708  0.70869411  1.00861403  1
  Zn  Zn128  1  0.93393897  0.18866122  0.44262042  1
  Zn  Zn129  1  0.95683442  0.19228472  0.95348328  1
  Zn  Zn130  1  0.93991628  0.68590270  0.44304606  1
  Zn  Zn131  1  0.93513885  0.68325358  0.94569257  1
  Zn  Zn132  1  0.07751716  0.31469784  0.07558394  1
  Zn  Zn133  1  0.06030647  0.32239490  0.53787309  1
  Zn  Zn134  1  0.06820736  0.81747464  0.05499043  1
  Zn  Zn135  1  0.06709375  0.80333153  0.56565596  1
  Zn  Zn136  1  0.55004653  0.32723836  0.04560122  1
  Zn  Zn137  1  0.59942768  0.25117176  0.60265222  1
  Zn  Zn138  1  0.57235972  0.82031866  0.08802715  1
  Zn  Zn139  1  0.58878614  0.78688957  0.60074386  1
  O  O140  1  0.11294751  0.10560499  0.13740770  1
  O  O141  1  0.12860214  0.13112370  0.60935106  1
  O  O142  1  0.13308525  0.61526123  0.11711298  1
  O  O143  1  0.11310412  0.61307029  0.61801296  1
  O  O144  1  0.62998316  0.12980865  0.10390407  1
  O  O145  1  0.58073778  0.10583049  0.58449936  1
  O  O146  1  0.61682240  0.56565195  0.17165119  1
  O  O147  1  0.62305489  0.65059880  0.61233449  1
  O  O148  1  0.36070463  0.38914535  0.38316184  1
  O  O149  1  0.35332809  0.37745435  0.87380149  1
  O  O150  1  0.39862722  0.88354097  0.34011637  1
  O  O151  1  0.38739940  0.88961845  0.87602963  1
  O  O152  1  0.88132580  0.39122558  0.37072834  1
  O  O153  1  0.89952801  0.37960950  0.88107654  1
  O  O154  1  0.88682889  0.87889138  0.38445442  1
  O  O155  1  0.88101588  0.86758121  0.89701785  1
  O  O156  1  0.24039129  0.01740588  0.38027566  1
  O  O157  1  0.23367156  0.01458238  0.87409803  1
  O  O158  1  0.25627357  0.51174259  0.36298027  1
  O  O159  1  0.26881998  0.51642813  0.88075176  1
  O  O160  1  0.77056694  -0.01132384  0.38244044  1
  O  O161  1  0.76197615  0.02053600  0.87778996  1
  O  O162  1  0.75722642  0.51150285  0.37398100  1
  O  O163  1  0.77809495  0.48519523  0.87848186  1
  O  O164  1  0.25483926  0.50364931  0.14003128  1
  O  O165  1  0.23872060  0.49320513  0.61614433  1
  O  O166  1  0.23249124  1.00595336  0.12690058  1
  O  O167  1  0.24627834  0.99254337  0.62667971  1
  O  O168  1  0.75011717  0.49046937  0.14110851  1
  O  O169  1  0.71844697  0.51509709  0.62687363  1
  O  O170  1  0.73744476  1.02367176  0.13259308  1
  O  O171  1  0.76939315  0.97605096  0.65211403  1
  O  O172  1  -0.00196399  0.37774357  0.26710185  1
  O  O173  1  0.01111684  0.37225000  0.75734116  1
  O  O174  1  -0.00162755  0.86008390  0.26162082  1
  O  O175  1  -0.00307774  0.85725394  0.75273907  1
  O  O176  1  0.48921159  0.36581330  0.24825740  1
  O  O177  1  0.49530328  0.39118407  0.76209355  1
  O  O178  1  0.54371521  0.86132019  0.24278805  1
  O  O179  1  0.49900477  0.86140063  0.76776724  1
  O  O180  1  0.49505085  0.15599553  0.24242824  1
  O  O181  1  0.47244283  0.11328738  0.75223228  1
  O  O182  1  0.48308150  0.62005035  0.25374236  1
  O  O183  1  0.47425363  0.64037792  0.77763818  1
  O  O184  1  0.99359317  0.11687376  0.24071304  1
  O  O185  1  0.98132633  0.08434345  0.74342983  1
  O  O186  1  0.99508220  0.63880257  0.25694367  1
  O  O187  1  1.00142671  0.62993684  0.73745421  1
  O  O188  1  0.37486297  0.25988539  0.01047188  1
  O  O189  1  0.35932713  0.26711228  0.48765114  1
  O  O190  1  0.36127711  0.76605068  0.01784434  1
  O  O191  1  0.35710432  0.75039074  0.50519545  1
  O  O192  1  0.88962967  0.25131175  0.02591631  1
  O  O193  1  0.86488261  0.25045496  0.51124543  1
  O  O194  1  0.88197161  0.75597985  0.01091675  1
  O  O195  1  0.87589139  0.75691069  0.51190994  1
  O  O196  1  0.12689174  0.23875240  0.48843373  1
  O  O197  1  0.13697212  0.25326197  0.99425219  1
  O  O198  1  0.13253303  0.73131677  0.50191893  1
  O  O199  1  0.14020101  0.74286806  1.00557833  1
  O  O200  1  0.59608569  0.22312839  0.48752133  1
  O  O201  1  0.62409636  0.25468556  0.98947544  1
  O  O202  1  0.63828260  0.74684614  0.49298716  1
  O  O203  1  0.60662290  0.72940331  1.01745362  1
  O  O204  1  0.50227700  0.25662923  0.12873746  1
  O  O205  1  0.50644557  0.25685219  0.67061482  1
  O  O206  1  0.47616125  0.75898664  0.11375958  1
  O  O207  1  0.48334301  0.75566805  0.61341362  1
  O  O208  1  1.01796580  0.23174233  0.12601961  1
  O  O209  1  1.01870074  0.26209254  0.63387194  1
  O  O210  1  1.00105611  0.75390815  0.13456161  1
  O  O211  1  0.98997975  0.74033021  0.63258673  1
  O  O212  1  0.00611239  0.25481850  0.37326180  1
  O  O213  1  0.02092686  0.26331132  0.88596192  1
  O  O214  1  -0.00043200  0.76213934  0.38011164  1
  O  O215  1  -0.00182741  0.73698648  0.85839646  1
  O  O216  1  0.49835622  0.25502750  0.36124776  1
  O  O217  1  0.45685863  0.24931749  0.84514776  1
  O  O218  1  0.51148578  0.74515709  0.38676507  1
  O  O219  1  0.50136888  0.80405357  0.93333535  1
  O  O220  1  0.23425605  0.13332134  0.49063952  1
  O  O221  1  0.24293810  0.11898099  0.99574879  1
  O  O222  1  0.24078632  0.62809520  0.48406235  1
  O  O223  1  0.24886647  0.64641942  1.00496685  1
  O  O224  1  0.72893697  0.12465799  0.47747720  1
  O  O225  1  0.74213742  0.13469561  0.98982221  1
  O  O226  1  0.74585277  0.62959596  0.49835648  1
  O  O227  1  0.71585424  0.59163171  1.00181080  1
  O  O228  1  0.26118322  0.37820010  -0.00211620  1
  O  O229  1  0.24820766  0.37012685  0.49781943  1
  O  O230  1  0.24239711  0.85908628  -0.00646257  1
  O  O231  1  0.23154558  0.85612357  0.48732233  1
  O  O232  1  0.74028923  0.39853092  0.02125217  1
  O  O233  1  0.77268173  0.38215024  0.49940517  1
  O  O234  1  0.76659591  0.87530294  -0.00037435  1
  O  O235  1  0.76585244  0.86495877  0.50631575  1
  O  O236  1  0.13932796  0.50910385  0.23965147  1
  O  O237  1  0.12229760  0.50141089  0.74392834  1
  O  O238  1  0.11540077  0.98176181  0.24296529  1
  O  O239  1  0.13084328  0.99335537  0.74652074  1
  O  O240  1  0.62416348  0.53001555  0.23665689  1
  O  O241  1  0.60393044  0.51114099  0.73012867  1
  O  O242  1  0.64961526  0.98358578  0.26989717  1
  O  O243  1  0.62027376  1.02558213  0.71284452  1
  O  O244  1  0.37373561  -0.04197111  0.32761230  1
  O  O245  1  0.35444459  0.00125585  0.74832863  1
  O  O246  1  0.36643865  0.50903831  0.25221992  1
  O  O247  1  0.36230090  0.50102018  0.74167810  1
  O  O248  1  0.88232100  -0.00350083  0.26860914  1
  O  O249  1  0.91851203  0.02649008  0.75972725  1
  O  O250  1  0.88099225  0.51714092  0.26625181  1
  O  O251  1  0.87961676  0.51181908  0.75356253  1
  O  O252  1  0.10852682  0.36168359  0.38522647  1
  O  O253  1  0.12395186  0.36817837  0.88230588  1
  O  O254  1  0.10775363  0.88087971  0.36417818  1
  O  O255  1  0.10576557  0.88085403  0.85512728  1
  O  O256  1  0.62651442  0.35504306  0.39446914  1
  O  O257  1  0.72431808  0.40682659  0.76291717  1
  O  O258  1  0.63804888  0.85458962  0.36979744  1
  O  O259  1  0.62255474  0.89282498  0.86562418  1
  O  O260  1  0.38119085  0.14227404  0.11447379  1
  O  O261  1  0.38004720  0.10399675  0.62149598  1
  O  O262  1  0.37417034  0.62561009  0.13768789  1
  O  O263  1  0.37233371  0.63916424  0.61515796  1
  O  O264  1  0.88825781  0.13329606  0.12767578  1
  O  O265  1  0.86562002  0.12989676  0.62540972  1
  O  O266  1  0.87451204  0.61823779  0.14391444  1
  O  O267  1  0.88299671  0.62471761  0.63286058  1
  O  O268  1  0.25616606  0.24285881  0.12725519  1
  O  O269  1  0.24169887  0.26508196  0.60504056  1
  O  O270  1  0.26789657  0.75879204  0.13430640  1
  O  O271  1  0.24603287  0.74918699  0.60628029  1
  O  O272  1  0.75496947  0.26935995  0.12502090  1
  O  O273  1  0.70327156  0.22458376  0.63860386  1
  O  O274  1  0.74616850  0.72001099  0.09329953  1
  O  O275  1  0.76478250  0.75195175  0.61532897  1
  O  O276  1  0.23475678  0.24639654  0.37868576  1
  O  O277  1  0.24019313  0.23452147  0.87237539  1
  O  O278  1  0.25740859  0.73536092  0.38193068  1
  O  O279  1  0.26337093  0.74807012  0.88134081  1
  O  O280  1  0.77081667  0.25067652  0.37715841  1
  O  O281  1  0.75368688  0.23040364  0.85637369  1
  O  O282  1  0.76404060  0.73807218  0.39318084  1
  O  O283  1  0.74383338  0.73334126  0.91605311  1
  O  O284  1  0.00385309  0.11026516  0.02047655  1
  O  O285  1  0.00795298  0.11641876  0.49743081  1
  O  O286  1  0.01909109  0.63768985  0.00742968  1
  O  O287  1  0.00635026  0.62901207  0.51642552  1
  O  O288  1  0.51937563  0.13618948  -0.00205722  1
  O  O289  1  0.52880301  0.08203370  0.42967816  1
  O  O290  1  0.48380516  0.60042697  -0.00440821  1
  O  O291  1  0.51012664  0.61276740  0.49199325  1
  O  O292  1  0.47844064  0.38358597  0.49537101  1
  O  O293  1  0.47185757  0.38115630  0.98209588  1
  O  O294  1  0.43196593  0.96319604  0.48214046  1
  O  O295  1  0.50514622  0.87134045  0.98380678  1
  O  O296  1  0.97448547  0.36725317  0.48105605  1
  O  O297  1  1.01177073  0.37841939  0.99829674  1
  O  O298  1  0.99978114  0.87763137  0.49239869  1
  O  O299  1  0.99119970  0.88492706  1.00391624  1
  O  O300  1  0.48841928  0.50161765  0.38200856  1
  O  O301  1  0.44338960  0.51548913  0.87672937  1
  O  O302  1  0.42768211  1.00268440  0.28526909  1
  O  O303  1  0.50158293  0.99691138  0.86423730  1
  O  O304  1  0.99508055  0.49200435  0.37609012  1
  O  O305  1  0.99844607  0.48361535  0.87637476  1
  O  O306  1  0.99105083  0.98997413  0.38575182  1
  O  O307  1  1.00936331  1.00683849  0.90153803  1
  O  O308  1  0.00606782  0.00602256  0.12184877  1
  O  O309  1  -0.00395685  -0.00767769  0.60448520  1
  O  O310  1  0.01340960  0.50686720  0.13488380  1
  O  O311  1  -0.00858083  0.50969134  0.62609818  1
  O  O312  1  0.53468936  0.01395228  0.14102369  1
  O  O313  1  0.50474267  -0.03610516  0.62177081  1
  O  O314  1  0.50513705  0.48386289  0.09803097  1
  O  O315  1  0.50818630  0.49039050  0.60726354  1
  O  O316  1  0.25069363  0.39097836  0.25692415  1
  O  O317  1  0.25526613  0.37054544  0.72337576  1
  O  O318  1  0.23080073  0.87021266  0.26416337  1
  O  O319  1  0.23249605  0.88272584  0.75356630  1
  O  O320  1  0.74322603  0.37878303  0.23778241  1
  O  O321  1  0.77135863  0.35857487  0.73516902  1
  O  O322  1  0.73943936  0.83643180  0.24366703  1
  O  O323  1  0.75957223  0.84938085  0.74940587  1
  O  O324  1  0.25034302  0.12688309  0.26449675  1
  O  O325  1  0.24858475  0.10079811  0.74373169  1
  O  O326  1  0.25737723  0.62432177  0.25995026  1
  O  O327  1  0.23307899  0.61700573  0.73161362  1
  O  O328  1  0.75613684  0.13472494  0.26687225  1
  O  O329  1  0.78078965  0.11726349  0.76329837  1
  O  O330  1  0.77199527  0.63661899  0.26628954  1
  O  O331  1  0.77018822  0.62930141  0.76059824  1
  O  O332  1  0.35581258  0.12721068  0.38491676  1
  O  O333  1  0.35115250  0.12226975  0.87544589  1
  O  O334  1  0.36487049  0.61621719  0.36822109  1
  O  O335  1  0.47533439  0.68671851  0.83514506  1
  O  O336  1  0.86699141  0.11321036  0.38005662  1
  O  O337  1  0.87604907  0.13327694  0.89605246  1
  O  O338  1  0.87493745  0.61377779  0.38027256  1
  O  O339  1  0.89169248  0.60721464  0.86767338  1
  O  O340  1  0.13009731  0.40130095  0.12070044  1
  O  O341  1  0.13055229  0.37348409  0.62418019  1
  O  O342  1  0.12234186  0.88122383  0.13966516  1
  O  O343  1  0.10960831  0.87181725  0.64600044  1
  O  O344  1  0.62396167  0.37569002  0.12317284  1
  O  O345  1  0.62648482  0.37717025  0.62288133  1
  O  O346  1  0.64157508  0.89753280  0.13255964  1
  O  O347  1  0.64598731  0.88228504  0.62554881  1
  O  O348  1  0.12724493  0.25063897  0.26094502  1
  O  O349  1  0.13138200  0.25447008  0.75549239  1
  O  O350  1  0.11198749  0.76005215  0.24457794  1
  O  O351  1  0.11504621  0.75649437  0.74890476  1
  O  O352  1  0.61364199  0.25899678  0.25942134  1
  O  O353  1  0.61265047  0.27363022  0.78973476  1
  O  O354  1  0.62756464  0.72493678  0.27639559  1
  O  O355  1  0.61542131  0.71281897  0.75716704  1
  O  O356  1  0.37878360  0.25748425  0.23029278  1
  O  O357  1  0.34100978  0.21560280  0.72964557  1
  O  O358  1  0.37610719  0.73911857  0.24334129  1
  O  O359  1  0.34413540  0.73626351  0.73109271  1
  O  O360  1  0.88073996  0.25016002  0.22771489  1
  O  O361  1  0.89744036  0.22857222  0.75426727  1
  O  O362  1  0.89172699  0.73824463  0.25669808  1
  O  O363  1  0.88881813  0.73134393  0.74587635  1
  O  O364  1  0.37918465  0.49766361  0.48799901  1
  O  O365  1  0.37484502  0.48415078  1.01006916  1
  O  O366  1  0.35940985  0.96453192  0.49316471  1
  O  O367  1  0.37802558  0.99456629  1.00151041  1
  O  O368  1  0.87576582  0.49999011  0.49033683  1
  O  O369  1  0.88090879  0.51154530  0.99281200  1
  O  O370  1  0.88948363  0.98557236  0.49224176  1
  O  O371  1  0.88718288  0.99629298  1.01128204  1
  O  O372  1  0.11446344  -0.01569887  0.02047118  1
  O  O373  1  0.11269073  0.01428019  0.49463256  1
  O  O374  1  0.13444924  0.51642636  0.01335957  1
  O  O375  1  0.12531993  0.51292254  0.48719392  1
  O  O376  1  0.63510016  0.00222773  0.00674195  1
  O  O377  1  0.63846065  -0.00016639  0.51151096  1
  O  O378  1  0.58167125  0.48140093  -0.06414494  1
  O  O379  1  0.61799328  0.50589537  0.50906436  1
  O  O380  1  0.36982854  0.36256173  0.11544220  1
  O  O381  1  0.35528446  0.38538696  0.60122155  1
  O  O382  1  0.37856153  0.87861654  0.15103086  1
  O  O383  1  0.36411299  0.85405878  0.63344621  1
  O  O384  1  0.87747866  0.37175350  0.12678203  1
  O  O385  1  0.87816279  0.37697478  0.61614018  1
  O  O386  1  0.87640518  0.87522824  0.11721994  1
  O  O387  1  0.87161465  0.86367592  0.62403589  1
  O  O388  1  0.12386893  0.13663659  0.37484392  1
  O  O389  1  0.13170428  0.14224827  0.87482033  1
  O  O390  1  0.13757066  0.62361758  0.37489254  1
  O  O391  1  0.12652772  0.61781890  0.89517282  1
  O  O392  1  0.64275026  0.15632978  0.36659186  1
  O  O393  1  0.63457554  0.12665724  0.88442354  1
  O  O394  1  0.63797347  0.63177549  0.39260720  1
  O  O395  1  0.60332515  0.72389037  0.82912639  1
