# generated using pymatgen
data_V35Zn35O128
_symmetry_space_group_name_H-M   'P 1'
_cell_length_a   16.87520111
_cell_length_b   16.85115492
_cell_length_c   16.90607024
_cell_angle_alpha   90.28053053
_cell_angle_beta   89.91736793
_cell_angle_gamma   89.88149053
_symmetry_Int_Tables_number   1
_chemical_formula_structural   V35Zn35O128
_chemical_formula_sum   'V70 Zn70 O256'
_cell_volume   4807.44921287
_cell_formula_units_Z   2
loop_
 _symmetry_equiv_pos_site_id
 _symmetry_equiv_pos_as_xyz
  1  'x, y, z'
loop_
 _atom_site_type_symbol
 _atom_site_label
 _atom_site_symmetry_multiplicity
 _atom_site_fract_x
 _atom_site_fract_y
 _atom_site_fract_z
 _atom_site_occupancy
  V  V0  1  0.38089690  0.12598095  0.75021047  1
  V  V1  1  0.73982505  0.49723659  0.24873654  1
  V  V2  1  0.74956835  -0.00700505  0.73602192  1
  V  V3  1  0.37170170  0.10430504  0.25712676  1
  V  V4  1  0.74576602  0.62384481  0.88259026  1
  V  V5  1  0.62238003  0.88638917  0.24168724  1
  V  V6  1  0.87056114  0.63043310  0.24790918  1
  V  V7  1  0.25996337  0.61878459  0.87440504  1
  V  V8  1  0.62329668  0.26375996  0.37666872  1
  V  V9  1  0.36860340  0.24944107  0.13597903  1
  V  V10  1  0.12633300  0.26179840  0.38990711  1
  V  V11  1  0.39043852  0.26021488  0.62717243  1
  V  V12  1  0.00123703  0.61199759  0.61845807  1
  V  V13  1  0.14221631  0.86584173  0.72848867  1
  V  V14  1  0.24861606  0.24830533  0.00385341  1
  V  V15  1  0.01134388  -0.01207361  0.51241329  1
  V  V16  1  0.49877566  0.12484853  0.12700306  1
  V  V17  1  0.74963806  0.24669489  0.00103503  1
  V  V18  1  0.11634116  0.36535399  0.76932219  1
  V  V19  1  0.12366784  0.38297653  0.23937142  1
  V  V20  1  0.85804192  0.75273539  0.12285827  1
  V  V21  1  -0.00245018  0.62680016  0.12798178  1
  V  V22  1  0.15039821  0.01375437  0.62257745  1
  V  V23  1  0.51539679  0.50010500  0.52087305  1
  V  V24  1  0.37333662  0.00318675  0.87641833  1
  V  V25  1  0.36904051  0.75756526  0.12482108  1
  V  V26  1  0.38165939  0.86546896  0.50247579  1
  V  V27  1  0.11913662  0.12625567  0.02547552  1
  V  V28  1  0.88530381  0.24358003  0.60819763  1
  V  V29  1  -0.01843898  0.49867926  -0.01211377  1
  V  V30  1  0.36840020  0.62319042  0.26166532  1
  V  V31  1  0.49208416  0.38896080  0.89415875  1
  V  V32  1  0.00481378  -0.00355531  0.01292723  1
  V  V33  1  0.88699456  0.49031702  0.37474784  1
  V  V34  1  0.49446760  0.72547897  0.74311681  1
  V  V35  1  0.88627261  0.24526790  0.12907002  1
  V  V36  1  0.25826410  0.49596665  0.75695435  1
  V  V37  1  0.11976223  0.75922928  0.87228934  1
  V  V38  1  0.74745689  0.12610831  0.38656948  1
  V  V39  1  0.26278929  0.24961876  0.50394356  1
  V  V40  1  0.30548532  0.42314314  0.07017018  1
  V  V41  1  0.88983973  0.12804066  0.74408323  1
  V  V42  1  0.11818971  0.61902539  -0.00349947  1
  V  V43  1  0.74360868  0.12225709  0.86938162  1
  V  V44  1  0.23897600  0.12859114  0.86900307  1
  V  V45  1  0.62695344  0.12039181  0.00615848  1
  V  V46  1  0.24608617  0.37989834  0.62481462  1
  V  V47  1  0.86071098  0.87313371  -0.00114291  1
  V  V48  1  0.85760379  0.86875462  0.50113648  1
  V  V49  1  0.74328123  0.00251815  0.23515666  1
  V  V50  1  0.87767781  0.60793326  0.75629363  1
  V  V51  1  0.60816950  0.88563404  0.74427177  1
  V  V52  1  0.24996064  0.49862383  0.26746251  1
  V  V53  1  0.87958541  -0.01153011  0.36841776  1
  V  V54  1  0.50090509  0.62056810  0.11559597  1
  V  V55  1  0.74624759  0.37274917  0.13160314  1
  V  V56  1  -0.00954188  0.76066711  0.74874665  1
  V  V57  1  0.50021912  0.75722646  0.25534557  1
  V  V58  1  0.00432755  0.25044538  0.25638069  1
  V  V59  1  0.62161105  0.75905431  0.88595536  1
  V  V60  1  0.25326912  0.11738027  0.38128914  1
  V  V61  1  0.37378974  0.87928652  -0.00261349  1
  V  V62  1  0.51049468  0.25152286  0.77000747  1
  V  V63  1  0.48105118  0.38647553  0.37349403  1
  V  V64  1  0.50009518  0.00014318  -0.00300064  1
  V  V65  1  0.24540577  0.75868732  -0.00029564  1
  V  V66  1  0.88687786  -0.00161695  0.87376184  1
  V  V67  1  0.75115256  0.36649905  0.60679114  1
  V  V68  1  0.63012815  0.75101930  0.38186313  1
  V  V69  1  0.63189755  0.37717262  0.76045492  1
  Zn  Zn70  1  0.88235068  0.12022785  0.25100583  1
  Zn  Zn71  1  0.85946780  0.74989584  0.61921188  1
  Zn  Zn72  1  0.74158324  0.62472175  0.38339749  1
  Zn  Zn73  1  0.60608081  0.48658374  0.10913278  1
  Zn  Zn74  1  0.74541470  0.49752471  0.74868540  1
  Zn  Zn75  1  0.87826101  0.37296111  -0.00339856  1
  Zn  Zn76  1  0.18990606  0.18715513  0.19942865  1
  Zn  Zn77  1  0.19155932  0.19169483  0.68967172  1
  Zn  Zn78  1  0.18688205  0.67832629  0.18219840  1
  Zn  Zn79  1  0.17411775  0.66917539  0.69460696  1
  Zn  Zn80  1  0.69005972  0.19256451  0.19138618  1
  Zn  Zn81  1  0.68987371  0.18726084  0.56145850  1
  Zn  Zn82  1  0.68380770  0.68632025  0.18431938  1
  Zn  Zn83  1  0.70076094  0.71024392  0.72583126  1
  Zn  Zn84  1  0.31075773  0.31647482  0.31481094  1
  Zn  Zn85  1  0.31571694  0.31393372  0.81940922  1
  Zn  Zn86  1  0.30543684  0.81085841  0.31567854  1
  Zn  Zn87  1  0.31582821  0.80809880  0.81437390  1
  Zn  Zn88  1  0.81381405  0.31407645  0.32017126  1
  Zn  Zn89  1  0.81476878  0.30102754  0.81024208  1
  Zn  Zn90  1  0.80453659  0.81365320  0.30773365  1
  Zn  Zn91  1  0.81037748  0.81752101  0.82109804  1
  Zn  Zn92  1  0.18243803  0.44435799  0.44728129  1
  Zn  Zn93  1  0.17778100  0.43763472  0.93393724  1
  Zn  Zn94  1  0.19209720  0.92361909  0.43812762  1
  Zn  Zn95  1  0.18566546  0.94256870  0.93500414  1
  Zn  Zn96  1  0.68509078  0.44682284  0.43750455  1
  Zn  Zn97  1  0.68001956  0.43539432  0.93831662  1
  Zn  Zn98  1  0.68109572  0.93801312  0.42295795  1
  Zn  Zn99  1  0.68486865  0.94173978  0.93206298  1
  Zn  Zn100  1  0.30374833  0.06115416  0.06802450  1
  Zn  Zn101  1  0.34021302  0.06413334  0.56566356  1
  Zn  Zn102  1  0.31021186  0.58180327  0.06560368  1
  Zn  Zn103  1  0.29848282  0.54300338  0.53437625  1
  Zn  Zn104  1  0.82017858  0.06432021  0.06253942  1
  Zn  Zn105  1  0.82385396  0.05530084  0.55955868  1
  Zn  Zn106  1  0.77878581  0.54537420  0.04343497  1
  Zn  Zn107  1  0.84111590  0.53613389  0.57944035  1
  Zn  Zn108  1  0.44096187  0.43807986  0.19840047  1
  Zn  Zn109  1  0.44057940  0.43990636  0.69867543  1
  Zn  Zn110  1  0.43571463  0.93856739  0.18210181  1
  Zn  Zn111  1  0.43233959  0.94569956  0.68446586  1
  Zn  Zn112  1  0.93505021  0.44035906  0.18484520  1
  Zn  Zn113  1  0.93659863  0.42526256  0.68587346  1
  Zn  Zn114  1  0.93238685  0.93690429  0.18297390  1
  Zn  Zn115  1  0.93469340  0.93461882  0.68290104  1
  Zn  Zn116  1  0.05909278  0.07601781  0.34230603  1
  Zn  Zn117  1  0.06729518  0.04838680  0.80259169  1
  Zn  Zn118  1  0.06271217  0.57213835  0.31402333  1
  Zn  Zn119  1  0.06670159  0.55613660  0.80823909  1
  Zn  Zn120  1  0.58358245  0.10537285  0.28864599  1
  Zn  Zn121  1  0.58154536  0.08392128  0.70307032  1
  Zn  Zn122  1  0.55937272  0.56414018  0.31341282  1
  Zn  Zn123  1  0.56548884  0.56099685  0.82140037  1
  Zn  Zn124  1  0.44482818  0.19180693  0.43292366  1
  Zn  Zn125  1  0.43411850  0.19083081  0.94270109  1
  Zn  Zn126  1  0.44689512  0.67405135  0.43832662  1
  Zn  Zn127  1  0.44164102  0.69176469  0.93283916  1
  Zn  Zn128  1  0.94580877  0.17161244  0.43592444  1
  Zn  Zn129  1  0.93857081  0.18434504  0.93580246  1
  Zn  Zn130  1  0.90211262  0.65691541  0.46028169  1
  Zn  Zn131  1  0.93410062  0.68980194  0.93481868  1
  Zn  Zn132  1  0.06482594  0.31763658  0.05872556  1
  Zn  Zn133  1  0.07600561  0.29464589  0.58559023  1
  Zn  Zn134  1  0.04854568  0.80679350  0.05659457  1
  Zn  Zn135  1  0.04905842  0.80032441  0.55475479  1
  Zn  Zn136  1  0.56154288  0.30391777  0.06644763  1
  Zn  Zn137  1  0.56763239  0.32163741  0.55820265  1
  Zn  Zn138  1  0.55735186  0.81314844  0.06574917  1
  Zn  Zn139  1  0.57150133  0.80444827  0.57399571  1
  O  O140  1  0.12463108  0.12349194  0.12417283  1
  O  O141  1  0.13311224  0.11241408  0.62913736  1
  O  O142  1  0.10638649  0.63631333  0.11376295  1
  O  O143  1  0.10044345  0.60626873  0.63831069  1
  O  O144  1  0.61230965  0.13086537  0.12008985  1
  O  O145  1  0.61639914  0.12321246  0.61003647  1
  O  O146  1  0.60177259  0.63137301  0.12827903  1
  O  O147  1  0.70672487  0.66483382  0.56781529  1
  O  O148  1  0.38071725  0.37664980  0.38116552  1
  O  O149  1  0.39218787  0.36988578  0.88259302  1
  O  O150  1  0.38248905  0.86449912  0.39698350  1
  O  O151  1  0.36324503  0.88874162  0.88722567  1
  O  O152  1  0.87608854  0.39052539  0.37974396  1
  O  O153  1  0.90404607  0.33819244  0.88108610  1
  O  O154  1  0.86569687  0.88259434  0.37938244  1
  O  O155  1  0.87380402  0.88468575  0.88897263  1
  O  O156  1  0.24561576  0.01950826  0.39373248  1
  O  O157  1  0.25941600  0.01832832  0.88271518  1
  O  O158  1  0.25570407  0.50082641  0.36456844  1
  O  O159  1  0.24892345  0.51186529  0.87622245  1
  O  O160  1  0.75719388  0.00820977  0.36551718  1
  O  O161  1  0.76449433  0.01051236  0.87612701  1
  O  O162  1  0.75411559  0.50620493  0.35937863  1
  O  O163  1  0.74139035  0.51891741  0.86998152  1
  O  O164  1  0.25542881  0.49169970  0.12917405  1
  O  O165  1  0.26102986  0.48546102  0.64284357  1
  O  O166  1  0.23853775  0.99492561  0.12676030  1
  O  O167  1  0.24924420  1.00678196  0.61620089  1
  O  O168  1  0.76730970  0.48642473  0.14217457  1
  O  O169  1  0.76792175  0.47105719  0.63701161  1
  O  O170  1  0.75008173  1.00824935  0.13627013  1
  O  O171  1  0.75693809  1.00260424  0.63804998  1
  O  O172  1  0.01506169  0.37131673  0.25030518  1
  O  O173  1  0.01916333  0.38580464  0.74840283  1
  O  O174  1  0.03075132  0.87153286  0.20967034  1
  O  O175  1  0.00903582  0.86290121  0.74160358  1
  O  O176  1  0.49819183  0.37701010  0.27144988  1
  O  O177  1  0.50735045  0.36558097  0.76470252  1
  O  O178  1  0.50038495  0.86544552  0.24803425  1
  O  O179  1  0.50751876  0.89496248  0.75087678  1
  O  O180  1  0.48252769  0.11697718  0.24103030  1
  O  O181  1  0.49133680  0.13816901  0.75387683  1
  O  O182  1  0.48323088  0.63578781  0.24364405  1
  O  O183  1  0.50362763  0.62520827  0.75035113  1
  O  O184  1  1.00517011  0.14497460  0.26053555  1
  O  O185  1  0.98839476  0.11427110  0.75040871  1
  O  O186  1  0.99155983  0.62572146  0.23434313  1
  O  O187  1  0.98808520  0.62970685  0.74983398  1
  O  O188  1  0.35861110  0.23992320  0.01619685  1
  O  O189  1  0.38028001  0.24659168  0.51943534  1
  O  O190  1  0.36712710  0.76055499  0.00266713  1
  O  O191  1  0.38496247  0.76108935  0.49637636  1
  O  O192  1  0.87043514  0.24300984  0.01758581  1
  O  O193  1  0.88528351  0.23454451  0.50755782  1
  O  O194  1  0.87431665  0.76663673  0.00041493  1
  O  O195  1  0.87326061  0.76480927  0.49500408  1
  O  O196  1  0.14023563  0.25326248  0.49550122  1
  O  O197  1  0.13110035  0.23560537  1.01109723  1
  O  O198  1  0.11925209  0.74419630  0.47044186  1
  O  O199  1  0.12645260  0.74807042  0.99164672  1
  O  O200  1  0.62961643  0.25176878  0.48449724  1
  O  O201  1  0.64009344  0.23526741  1.00710386  1
  O  O202  1  0.61612759  0.76233740  0.48010551  1
  O  O203  1  0.62251596  0.76401474  0.98593914  1
  O  O204  1  0.48057910  0.23750502  0.11867463  1
  O  O205  1  0.49253428  0.26288212  0.63601298  1
  O  O206  1  0.48740058  0.74453445  0.13449183  1
  O  O207  1  0.50756875  0.74319052  0.64326938  1
  O  O208  1  0.99122122  0.25680124  0.13441243  1
  O  O209  1  0.98588380  0.24779756  0.62585620  1
  O  O210  1  0.98001430  0.73416578  0.11146935  1
  O  O211  1  0.99829509  0.73712534  0.64077582  1
  O  O212  1  0.02062167  0.24802057  0.37772166  1
  O  O213  1  -0.03406902  0.28463954  0.88063834  1
  O  O214  1  0.08047542  0.71375471  0.40834794  1
  O  O215  1  0.00753312  0.74657623  0.85983852  1
  O  O216  1  0.51335056  0.26951620  0.38468345  1
  O  O217  1  0.50122783  0.25431888  0.87294622  1
  O  O218  1  0.50448383  0.74304054  0.35839229  1
  O  O219  1  0.51635686  0.74442105  0.86635201  1
  O  O220  1  0.27464592  0.13764873  0.49160765  1
  O  O221  1  0.23270618  0.12896699  0.99432959  1
  O  O222  1  0.19399634  0.53904591  0.50334233  1
  O  O223  1  0.23796241  0.63328037  0.99060295  1
  O  O224  1  0.75889654  0.11831380  0.48966392  1
  O  O225  1  0.74659155  0.12577325  0.99757331  1
  O  O226  1  0.76078633  0.63369788  0.51878015  1
  O  O227  1  0.76614446  0.63947212  0.97920826  1
  O  O228  1  0.24054215  0.36688328  0.00669578  1
  O  O229  1  0.25364918  0.36864276  0.51788132  1
  O  O230  1  0.25234774  0.86596243  -0.00330032  1
  O  O231  1  0.27668263  0.86247122  0.51140276  1
  O  O232  1  0.75670170  0.35904208  0.00537009  1
  O  O233  1  0.74832415  0.37935993  0.50866216  1
  O  O234  1  0.76251930  0.88802308  0.00208746  1
  O  O235  1  0.75902775  0.88780311  0.49561055  1
  O  O236  1  0.13490946  0.49417062  0.25875347  1
  O  O237  1  0.14380694  0.48397253  0.76210855  1
  O  O238  1  0.12964461  0.98450106  0.28687548  1
  O  O239  1  0.12511966  0.97861307  0.72709552  1
  O  O240  1  0.63893638  0.50658702  0.24031646  1
  O  O241  1  0.62296468  0.48003086  0.75056244  1
  O  O242  1  0.62847513  0.99585857  0.25535599  1
  O  O243  1  0.63861647  0.99661312  0.75393984  1
  O  O244  1  0.37018409  0.00433290  0.25260109  1
  O  O245  1  0.37837231  0.01775674  0.76123696  1
  O  O246  1  0.36444858  0.51429045  0.24980441  1
  O  O247  1  0.35906040  0.49127582  0.76149197  1
  O  O248  1  0.85717787  -0.00789618  0.25178987  1
  O  O249  1  0.86871418  0.00327540  0.75433823  1
  O  O250  1  0.87092245  0.51021725  0.26075064  1
  O  O251  1  0.87880978  0.50736802  0.75923223  1
  O  O252  1  0.13524936  0.36552219  0.37627780  1
  O  O253  1  0.12417482  0.36288395  0.87116390  1
  O  O254  1  0.11818991  0.92567176  0.33264473  1
  O  O255  1  0.13347111  0.86445098  0.86105160  1
  O  O256  1  0.64142094  0.36212458  0.36723760  1
  O  O257  1  0.61591034  0.37223024  0.86720656  1
  O  O258  1  0.62172751  0.86222356  0.35586997  1
  O  O259  1  0.63130047  0.86685852  0.86393814  1
  O  O260  1  0.37492857  0.13045881  0.13840710  1
  O  O261  1  0.36558920  0.14775164  0.64611015  1
  O  O262  1  0.37980152  0.63921367  0.13593231  1
  O  O263  1  0.31231052  0.65534675  0.60093544  1
  O  O264  1  0.87344344  0.14002854  0.13479591  1
  O  O265  1  0.87267376  0.12927979  0.63530952  1
  O  O266  1  0.87678402  0.63666570  0.13087734  1
  O  O267  1  0.87807459  0.63428245  0.64556285  1
  O  O268  1  0.25858934  0.24406020  0.12168612  1
  O  O269  1  0.25965428  0.25914717  0.61963192  1
  O  O270  1  0.25754223  0.73706491  0.10774753  1
  O  O271  1  0.25399073  0.70337878  0.60910650  1
  O  O272  1  0.76038758  0.25411234  0.12410009  1
  O  O273  1  0.76607175  0.25551663  0.61469294  1
  O  O274  1  0.75834648  0.74426521  0.11740690  1
  O  O275  1  0.73501853  0.73323631  0.61380700  1
  O  O276  1  0.24939558  0.25052963  0.38936728  1
  O  O277  1  0.25619470  0.23726308  0.89082064  1
  O  O278  1  0.22144562  0.82801157  0.38513167  1
  O  O279  1  0.24193229  0.74016361  0.88204353  1
  O  O280  1  0.74946789  0.23251414  0.36977953  1
  O  O281  1  0.76364207  0.23071172  0.88948132  1
  O  O282  1  0.73531744  0.74700335  0.36950083  1
  O  O283  1  0.73280128  0.74095826  0.85230731  1
  O  O284  1  0.01479989  0.12074995  -0.00359150  1
  O  O285  1  0.01581277  0.08075474  0.46031273  1
  O  O286  1  -0.00093975  0.61872152  0.00260079  1
  O  O287  1  -0.00466641  0.63927776  0.52057191  1
  O  O288  1  0.50744588  0.12186114  0.00622401  1
  O  O289  1  0.50977556  0.10290081  0.48718147  1
  O  O290  1  0.48598982  0.62885461  0.01685492  1
  O  O291  1  0.49384809  0.60958106  0.51224138  1
  O  O292  1  0.50715648  0.39023920  0.48854731  1
  O  O293  1  0.51251590  0.37437404  0.99342012  1
  O  O294  1  0.48609691  0.86911049  0.50923625  1
  O  O295  1  0.48428907  0.88551798  1.00739434  1
  O  O296  1  1.01333242  0.38473410  0.51031318  1
  O  O297  1  1.00030186  0.39622257  1.00971889  1
  O  O298  1  0.99368500  0.88397298  0.49309867  1
  O  O299  1  0.99495974  0.89186367  1.00074218  1
  O  O300  1  0.50491155  0.49089180  0.37995184  1
  O  O301  1  0.50245306  0.48887698  0.88124796  1
  O  O302  1  0.54011535  1.03985417  0.44926438  1
  O  O303  1  0.48255934  1.00677511  0.89228795  1
  O  O304  1  0.98673082  0.50865105  0.36821181  1
  O  O305  1  0.99883409  0.50819750  0.88955190  1
  O  O306  1  0.97637843  0.99044334  0.34106595  1
  O  O307  1  0.99150950  1.00314201  0.88040068  1
  O  O308  1  -0.00928049  0.00804013  0.11135662  1
  O  O309  1  0.00021696  0.00287097  0.61186552  1
  O  O310  1  -0.01409380  0.52004184  0.11236011  1
  O  O311  1  -0.03600754  0.51375194  0.61642631  1
  O  O312  1  0.48855921  0.01413906  0.11171106  1
  O  O313  1  0.44465001  0.02612841  0.60891199  1
  O  O314  1  0.49631264  0.51366843  0.13234589  1
  O  O315  1  0.50920858  0.48069609  0.62009680  1
  O  O316  1  0.24128889  0.38886921  0.25369354  1
  O  O317  1  0.24501270  0.37858357  0.75160114  1
  O  O318  1  0.21594997  0.83278080  0.23049096  1
  O  O319  1  0.24135106  0.85839735  0.74169804  1
  O  O320  1  0.75632158  0.38658238  0.24587221  1
  O  O321  1  0.73836787  0.37046627  0.76585790  1
  O  O322  1  0.73332392  0.88849696  0.24788773  1
  O  O323  1  0.74844353  0.89022699  0.75318293  1
  O  O324  1  0.26242262  0.12493077  0.26556007  1
  O  O325  1  0.26431595  0.13681853  0.76449643  1
  O  O326  1  0.25615908  0.61401818  0.24521483  1
  O  O327  1  0.24526692  0.61159438  0.76484247  1
  O  O328  1  0.74961616  0.11138664  0.25729009  1
  O  O329  1  0.75666663  0.11120668  0.76443816  1
  O  O330  1  0.75645459  0.61262716  0.24055936  1
  O  O331  1  0.76366810  0.61848413  0.75139718  1
  O  O332  1  0.37195053  0.12948141  0.36344435  1
  O  O333  1  0.36854259  0.12296874  0.86938737  1
  O  O334  1  0.36912651  0.63944398  0.35972392  1
  O  O335  1  0.35794234  0.62979076  0.88324852  1
  O  O336  1  0.86825797  0.10891116  0.36895699  1
  O  O337  1  0.87257785  0.11644836  0.86500086  1
  O  O338  1  0.86613902  0.64175814  0.35332638  1
  O  O339  1  0.86302938  0.63901379  0.85896427  1
  O  O340  1  0.12822103  0.37404587  0.14106861  1
  O  O341  1  0.14322259  0.37473454  0.63392013  1
  O  O342  1  0.08281489  0.87485948  0.15341876  1
  O  O343  1  0.12943236  0.85438342  0.62847847  1
  O  O344  1  0.64097059  0.36909579  0.12468861  1
  O  O345  1  0.64609084  0.36004318  0.63999779  1
  O  O346  1  0.61410945  0.87697197  0.14168427  1
  O  O347  1  0.62363186  0.87770471  0.64483705  1
  O  O348  1  0.12517629  0.26570552  0.26184896  1
  O  O349  1  0.12699151  0.26539205  0.74381019  1
  O  O350  1  0.16316086  0.77875398  0.24473253  1
  O  O351  1  0.11684508  0.75365400  0.75317081  1
  O  O352  1  0.61888280  0.22440442  0.27460802  1
  O  O353  1  0.60997328  0.25603715  0.75350098  1
  O  O354  1  0.61124183  0.75960775  0.24808214  1
  O  O355  1  0.60760438  0.76835219  0.75635494  1
  O  O356  1  0.36609052  0.24642730  0.23830941  1
  O  O357  1  0.38774822  0.24576402  0.75027542  1
  O  O358  1  0.37498703  0.75026084  0.24592951  1
  O  O359  1  0.39681768  0.75239258  0.76130224  1
  O  O360  1  0.88646620  0.25410217  0.24537571  1
  O  O361  1  0.87551518  0.22983286  0.74533821  1
  O  O362  1  0.86668965  0.75039996  0.23150512  1
  O  O363  1  0.88486551  0.75854297  0.74909540  1
  O  O364  1  0.40087399  0.52214662  0.50227015  1
  O  O365  1  0.35862029  0.48477075  1.01340879  1
  O  O366  1  0.37831028  0.96982859  0.49307686  1
  O  O367  1  0.37598729  0.99757817  0.99725597  1
  O  O368  1  0.86501450  0.53549276  0.46828308  1
  O  O369  1  0.87724925  0.49643464  0.99455070  1
  O  O370  1  0.88783747  0.98822488  0.48553955  1
  O  O371  1  0.88592301  0.99648720  0.99419778  1
  O  O372  1  0.11398697  0.01088540  -0.00167483  1
  O  O373  1  0.12306503  -0.02444500  0.51846998  1
  O  O374  1  0.11601500  0.51553152  -0.00283146  1
  O  O375  1  0.05288321  0.44626501  0.49688529  1
  O  O376  1  0.61495282  0.00981070  -0.00342644  1
  O  O377  1  0.59784640  0.00201966  0.48844130  1
  O  O378  1  0.66913112  0.50867686  0.02077955  1
  O  O379  1  0.61655885  0.50972409  0.50097048  1
  O  O380  1  0.37386609  0.36423156  0.12924534  1
  O  O381  1  0.36491702  0.36233646  0.64185461  1
  O  O382  1  0.37118949  0.86589806  0.11657689  1
  O  O383  1  0.38114186  0.86732270  0.60735404  1
  O  O384  1  0.86747361  0.36153662  0.12464950  1
  O  O385  1  0.86610943  0.35236342  0.63183752  1
  O  O386  1  0.87663782  0.86337719  0.11270238  1
  O  O387  1  0.87361737  0.87118517  0.60772795  1
  O  O388  1  0.14815030  0.14569397  0.37073517  1
  O  O389  1  0.13873783  0.11915465  0.86252480  1
  O  O390  1  0.12576184  0.66026564  0.36640445  1
  O  O391  1  0.12954537  0.63736297  0.88089579  1
  O  O392  1  0.64385772  0.12222292  0.38341938  1
  O  O393  1  0.64354760  0.12215299  0.88740706  1
  O  O394  1  0.62435254  0.64301422  0.36654447  1
  O  O395  1  0.63653517  0.63963736  0.87147301  1
