# generated using pymatgen
data_V35Zn35O128
_symmetry_space_group_name_H-M   'P 1'
_cell_length_a   16.89356194
_cell_length_b   16.89322266
_cell_length_c   16.89159604
_cell_angle_alpha   89.96037850
_cell_angle_beta   89.84577950
_cell_angle_gamma   90.05131352
_symmetry_Int_Tables_number   1
_chemical_formula_structural   V35Zn35O128
_chemical_formula_sum   'V70 Zn70 O256'
_cell_volume   4820.61635172
_cell_formula_units_Z   2
loop_
 _symmetry_equiv_pos_site_id
 _symmetry_equiv_pos_as_xyz
  1  'x, y, z'
loop_
 _atom_site_type_symbol
 _atom_site_label
 _atom_site_symmetry_multiplicity
 _atom_site_fract_x
 _atom_site_fract_y
 _atom_site_fract_z
 _atom_site_occupancy
  V  V0  1  0.87831737  0.24597949  0.60512153  1
  V  V1  1  0.72913154  0.24720452  -0.00365753  1
  V  V2  1  0.62672752  0.50936185  0.12393095  1
  V  V3  1  0.63004989  0.50017821  0.62382628  1
  V  V4  1  0.12430020  0.13169070  0.49845226  1
  V  V5  1  0.62883254  0.63311807  -0.01568859  1
  V  V6  1  0.49107120  0.49345273  0.00829685  1
  V  V7  1  0.63152685  0.36413491  0.75079562  1
  V  V8  1  0.63531360  0.62982751  0.49743014  1
  V  V9  1  0.87481736  0.00048089  0.87555861  1
  V  V10  1  0.26254217  0.11910294  0.36803083  1
  V  V11  1  0.49735306  -0.02503248  -0.01060795  1
  V  V12  1  0.36967727  -0.01450742  0.85837603  1
  V  V13  1  0.73198427  0.12749252  0.87555822  1
  V  V14  1  0.00208992  0.89330609  0.36491382  1
  V  V15  1  0.48680733  0.24578707  0.74523391  1
  V  V16  1  0.88032864  0.12629109  0.74736372  1
  V  V17  1  0.75854326  0.00753003  0.26237520  1
  V  V18  1  0.87704872  0.49857727  0.88063782  1
  V  V19  1  0.00725942  0.50182893  0.00872228  1
  V  V20  1  0.13754976  0.87875451  0.24189118  1
  V  V21  1  0.49904942  0.63606397  0.63694922  1
  V  V22  1  0.48801794  0.73889956  0.24416273  1
  V  V23  1  0.50389518  0.50253095  0.49712494  1
  V  V24  1  0.00968513  -0.00093303  0.51306419  1
  V  V25  1  0.13472150  0.72890199  0.89543221  1
  V  V26  1  0.75762071  0.51223718  0.25712450  1
  V  V27  1  -0.00300921  0.74509189  0.25853183  1
  V  V28  1  0.49648559  -0.00108502  0.48549715  1
  V  V29  1  0.12863159  0.37812907  0.73932444  1
  V  V30  1  0.50594816  0.36726581  0.87543320  1
  V  V31  1  0.74465686  0.86824591  0.62077141  1
  V  V32  1  0.74339467  -0.00230582  0.74689261  1
  V  V33  1  0.26313861  0.13181509  0.86056714  1
  V  V34  1  0.48711831  0.24088583  0.24417243  1
  V  V35  1  -0.00092249  0.01334758  0.01190505  1
  V  V36  1  0.49816928  0.37464167  0.36997010  1
  V  V37  1  0.37259189  0.37629142  0.51452026  1
  V  V38  1  0.12086692  0.24271201  0.88652711  1
  V  V39  1  0.37335601  0.48414633  0.86292980  1
  V  V40  1  0.35531725  0.50348840  0.37256363  1
  V  V41  1  0.61358857  0.88043975  0.25161178  1
  V  V42  1  0.00661515  0.37694986  0.36796463  1
  V  V43  1  0.87825325  0.88280175  0.49326532  1
  V  V44  1  0.50948207  0.12812358  0.09600858  1
  V  V45  1  0.87694573  0.36647407  -0.00311353  1
  V  V46  1  0.75269765  0.50233105  0.75819527  1
  V  V47  1  0.27827232  0.25865152  0.00571797  1
  V  V48  1  0.62929175  0.01840580  0.61387403  1
  V  V49  1  0.13857464  0.62333136  0.50328860  1
  V  V50  1  -0.00160254  0.25636655  0.75178704  1
  V  V51  1  0.14532934  -0.00867292  0.64210311  1
  V  V52  1  0.25473078  0.65425611  0.37451211  1
  V  V53  1  0.14155855  0.01515708  0.12578807  1
  V  V54  1  0.88671654  0.75545712  0.63013224  1
  V  V55  1  0.26210871  0.25369436  0.50553856  1
  V  V56  1  0.87042484  0.74313804  0.12880102  1
  V  V57  1  0.25155522  0.60258907  0.89609830  1
  V  V58  1  0.74176119  0.88143861  0.12504471  1
  V  V59  1  0.63922308  0.24617363  0.38678552  1
  V  V60  1  0.62347653  0.37349125  0.24716317  1
  V  V61  1  0.87681685  0.62888676  0.75969547  1
  V  V62  1  0.48568746  0.13344087  0.61748256  1
  V  V63  1  0.87022288  0.87068084  0.00191571  1
  V  V64  1  0.34268715  0.84032745  0.50084935  1
  V  V65  1  0.62653847  0.75071996  0.37343933  1
  V  V66  1  0.01332135  0.87466598  0.87509898  1
  V  V67  1  0.87523954  0.23256221  0.13404342  1
  V  V68  1  0.75987886  0.37093394  0.61007728  1
  V  V69  1  0.00858756  0.60915306  0.62532858  1
  Zn  Zn70  1  0.74475461  0.36975655  0.12473444  1
  Zn  Zn71  1  -0.00343579  0.61670924  0.13392733  1
  Zn  Zn72  1  0.25539717  0.49785839  0.73237375  1
  Zn  Zn73  1  0.02080726  0.75666534  0.75150219  1
  Zn  Zn74  1  0.54111122  0.72446235  0.81425110  1
  Zn  Zn75  1  0.78495723  0.72714389  0.47046474  1
  Zn  Zn76  1  0.20445728  0.18235858  0.17419880  1
  Zn  Zn77  1  0.18150830  0.18123028  0.67773985  1
  Zn  Zn78  1  0.18846063  0.69280228  0.19862023  1
  Zn  Zn79  1  0.18114687  0.67098952  0.71729512  1
  Zn  Zn80  1  0.68373701  0.18531774  0.18726290  1
  Zn  Zn81  1  0.69814161  0.18932216  0.68561986  1
  Zn  Zn82  1  0.68526548  0.69112568  0.18367489  1
  Zn  Zn83  1  0.68597591  0.68915988  0.69551432  1
  Zn  Zn84  1  0.31189291  0.30536772  0.32559953  1
  Zn  Zn85  1  0.30605965  0.31150718  0.80624227  1
  Zn  Zn86  1  0.35329560  0.86766220  0.29981315  1
  Zn  Zn87  1  0.34378056  0.77614649  0.85061366  1
  Zn  Zn88  1  0.81190188  0.32291136  0.31088562  1
  Zn  Zn89  1  0.81009336  0.31245927  0.81422943  1
  Zn  Zn90  1  0.81057545  0.81846822  0.30895569  1
  Zn  Zn91  1  0.81238226  0.81709559  0.80844418  1
  Zn  Zn92  1  0.18709816  0.44148159  0.56693489  1
  Zn  Zn93  1  0.17450582  0.41690794  0.92610104  1
  Zn  Zn94  1  0.19184483  0.93765412  0.42667042  1
  Zn  Zn95  1  0.18419345  0.96100848  0.93641739  1
  Zn  Zn96  1  0.68855370  0.43566924  0.43161349  1
  Zn  Zn97  1  0.68575554  0.43674346  0.93953444  1
  Zn  Zn98  1  0.68290784  0.93425367  0.43766114  1
  Zn  Zn99  1  0.68685964  0.93349178  0.93549928  1
  Zn  Zn100  1  0.32412340  0.07800505  0.04285946  1
  Zn  Zn101  1  0.30874015  0.06170867  0.55445960  1
  Zn  Zn102  1  0.27972352  0.46843396  0.03915503  1
  Zn  Zn103  1  0.31985920  0.57598024  0.56023298  1
  Zn  Zn104  1  0.80056192  0.06102339  0.06220422  1
  Zn  Zn105  1  0.81960728  0.06023908  0.56159351  1
  Zn  Zn106  1  0.80604024  0.56392736  0.05963888  1
  Zn  Zn107  1  0.81477622  0.56853224  0.57889410  1
  Zn  Zn108  1  0.44779912  0.54266832  0.19911754  1
  Zn  Zn109  1  0.44663779  0.43915614  0.68880175  1
  Zn  Zn110  1  0.41149346  1.01681724  0.17584153  1
  Zn  Zn111  1  0.41077664  0.95864993  0.65809519  1
  Zn  Zn112  1  0.92696156  0.42955918  0.18059205  1
  Zn  Zn113  1  0.93456916  0.43334822  0.69071988  1
  Zn  Zn114  1  0.92924456  0.94199321  0.18803634  1
  Zn  Zn115  1  0.94086190  0.93637178  0.68883174  1
  Zn  Zn116  1  0.07407932  0.07165635  0.30459549  1
  Zn  Zn117  1  0.06311330  0.06678333  0.81489988  1
  Zn  Zn118  1  0.07491800  0.57086407  0.31894954  1
  Zn  Zn119  1  0.05780097  0.56012104  0.81788473  1
  Zn  Zn120  1  0.57544877  0.07059012  0.30991683  1
  Zn  Zn121  1  0.55076452  0.05461625  0.80603669  1
  Zn  Zn122  1  0.57223163  0.56793049  0.31611073  1
  Zn  Zn123  1  0.56287072  0.55106881  0.81423315  1
  Zn  Zn124  1  0.44528028  0.18587252  0.43437081  1
  Zn  Zn125  1  0.43807661  0.18837989  0.92669528  1
  Zn  Zn126  1  0.44161571  0.69013679  0.43377209  1
  Zn  Zn127  1  0.42976148  0.66713265  0.95819937  1
  Zn  Zn128  1  0.94674050  0.16618699  0.40898917  1
  Zn  Zn129  1  0.93102935  0.18677084  0.93381928  1
  Zn  Zn130  1  0.99891786  0.73681454  0.47592300  1
  Zn  Zn131  1  0.94230166  0.68626248  0.94444296  1
  Zn  Zn132  1  0.04766766  0.30188937  0.06153810  1
  Zn  Zn133  1  0.05378796  0.30923075  0.56224463  1
  Zn  Zn134  1  0.05737344  0.81988552  0.06864624  1
  Zn  Zn135  1  0.15323551  0.81693041  0.56132578  1
  Zn  Zn136  1  0.55430133  0.31490332  0.06808873  1
  Zn  Zn137  1  0.56367046  0.31432370  0.56282890  1
  Zn  Zn138  1  0.55309675  0.80748945  0.06619364  1
  Zn  Zn139  1  0.55960354  0.81539172  0.55917686  1
  O  O140  1  0.11910846  0.11307502  0.13781878  1
  O  O141  1  0.13027428  0.10619229  0.60528666  1
  O  O142  1  0.12186313  0.59544953  0.15993490  1
  O  O143  1  0.11412352  0.63013045  0.63270979  1
  O  O144  1  0.60620492  0.12606460  0.12577075  1
  O  O145  1  0.63624655  0.11926951  0.61983260  1
  O  O146  1  0.62160635  0.61131682  0.11808140  1
  O  O147  1  0.62412905  0.61363485  0.61985168  1
  O  O148  1  0.38337812  0.38595137  0.38560581  1
  O  O149  1  0.38883699  0.37700929  0.86672200  1
  O  O150  1  0.37585223  0.87510683  0.41161801  1
  O  O151  1  0.34483614  0.88873578  0.86905666  1
  O  O152  1  0.89898776  0.37736056  0.36648471  1
  O  O153  1  0.86806273  0.38262010  0.88710511  1
  O  O154  1  0.88398962  0.87233534  0.38498464  1
  O  O155  1  0.87368096  0.88518312  0.88292739  1
  O  O156  1  0.25558354  0.01727714  0.38012906  1
  O  O157  1  0.25816046  0.02255252  0.87846247  1
  O  O158  1  0.25903482  0.49795023  0.38032166  1
  O  O159  1  0.26600354  0.47833894  0.87465340  1
  O  O160  1  0.74282222  -0.00831483  0.36176400  1
  O  O161  1  0.75408505  0.00634726  0.86738714  1
  O  O162  1  0.74187636  0.50038898  0.35746543  1
  O  O163  1  0.75680646  0.49650142  0.86497881  1
  O  O164  1  0.27021178  0.46859840  0.15438668  1
  O  O165  1  0.25977562  0.50509585  0.62252268  1
  O  O166  1  0.23976422  1.01667445  0.10670291  1
  O  O167  1  0.24564314  0.99955925  0.62624217  1
  O  O168  1  0.73381068  0.49616975  0.12743501  1
  O  O169  1  0.75020302  0.48782124  0.63369995  1
  O  O170  1  0.74815685  0.98555685  0.13304901  1
  O  O171  1  0.74454999  0.99746556  0.62640037  1
  O  O172  1  -0.00249057  0.37961679  0.26216435  1
  O  O173  1  0.00062249  0.36041807  0.75155547  1
  O  O174  1  -0.00442742  0.87544256  0.25798848  1
  O  O175  1  -0.00786143  0.87482111  0.77168334  1
  O  O176  1  0.50743531  0.36677018  0.25913639  1
  O  O177  1  0.51188195  0.36432394  0.75101965  1
  O  O178  1  0.51573927  0.86223526  0.24628826  1
  O  O179  1  0.50457717  0.88504263  0.71519445  1
  O  O180  1  0.50062864  0.13989579  0.25311420  1
  O  O181  1  0.50709841  0.14005872  0.73736200  1
  O  O182  1  0.49613611  0.62995856  0.25345024  1
  O  O183  1  0.51144271  0.62315332  0.73987624  1
  O  O184  1  0.98520390  0.13932434  0.30605353  1
  O  O185  1  0.98554471  0.13050236  0.75114904  1
  O  O186  1  1.00095968  0.64147287  0.25686330  1
  O  O187  1  0.99339816  0.63001692  0.74673262  1
  O  O188  1  0.37725603  0.26403615  -0.00964312  1
  O  O189  1  0.37220502  0.26498520  0.49903246  1
  O  O190  1  0.36565212  0.72576895  0.03950713  1
  O  O191  1  0.37475829  0.74340431  0.50801105  1
  O  O192  1  0.86718633  0.25781189  -0.00192214  1
  O  O193  1  0.89093367  0.23639224  0.50865636  1
  O  O194  1  0.88079988  0.76112340  0.01260461  1
  O  O195  1  0.88617773  0.76286808  0.51084486  1
  O  O196  1  0.12361339  0.23491821  0.50677131  1
  O  O197  1  0.11745436  0.25318675  0.98658403  1
  O  O198  1  0.10909207  0.73248406  0.50790650  1
  O  O199  1  0.11974344  0.76208521  0.99034980  1
  O  O200  1  0.62392805  0.26025041  0.48644245  1
  O  O201  1  0.63159159  0.25570107  0.99756264  1
  O  O202  1  0.62378800  0.74523104  0.48609456  1
  O  O203  1  0.61254334  0.72949022  1.00699186  1
  O  O204  1  0.49892072  0.24208285  0.13477959  1
  O  O205  1  0.50562404  0.24311829  0.63258277  1
  O  O206  1  0.49942430  0.74418248  0.14414555  1
  O  O207  1  0.51196267  0.73454860  0.62145558  1
  O  O208  1  0.97576989  0.24749352  0.12585439  1
  O  O209  1  0.98261954  0.25235877  0.63610974  1
  O  O210  1  0.98697313  0.74872791  0.13394448  1
  O  O211  1  0.98965972  0.75247713  0.63722346  1
  O  O212  1  -0.00341382  0.27041965  0.36973278  1
  O  O213  1  0.00949584  0.23855091  0.86234287  1
  O  O214  1  -0.00344588  0.76368544  0.36167825  1
  O  O215  1  0.00814997  0.76384957  0.88230150  1
  O  O216  1  0.50777645  0.25953920  0.36677907  1
  O  O217  1  0.50249955  0.25690877  0.85559333  1
  O  O218  1  0.51770471  0.74251665  0.36447824  1
  O  O219  1  0.44780226  0.73860987  0.87448866  1
  O  O220  1  0.24531905  0.13614129  0.49318869  1
  O  O221  1  0.25955244  0.15055178  0.98050647  1
  O  O222  1  0.24189144  0.63699678  0.50189307  1
  O  O223  1  0.23762261  0.56996289  0.99183125  1
  O  O224  1  0.78296957  0.12400855  0.46369269  1
  O  O225  1  0.74510427  0.13107403  0.98414791  1
  O  O226  1  0.74178833  0.62987262  0.51428245  1
  O  O227  1  0.72880241  0.61770402  0.99470032  1
  O  O228  1  0.24553571  0.36355609  0.00024428  1
  O  O229  1  0.26315758  0.36814240  0.50550036  1
  O  O230  1  0.24690710  0.86939038  0.00364254  1
  O  O231  1  0.23703485  0.86000429  0.49779288  1
  O  O232  1  0.75239119  0.35876406  -0.00552024  1
  O  O233  1  0.75217156  0.38440225  0.51244362  1
  O  O234  1  0.75662990  0.88274954  0.01435137  1
  O  O235  1  0.76282030  0.88041484  0.51043213  1
  O  O236  1  0.12397289  0.53752822  0.21504671  1
  O  O237  1  0.11378884  0.47667115  0.76127510  1
  O  O238  1  0.12664271  0.99284562  0.23735604  1
  O  O239  1  0.12678922  1.01307076  0.73922993  1
  O  O240  1  0.61856398  0.49496715  0.23615797  1
  O  O241  1  0.63450469  0.49124504  0.74079458  1
  O  O242  1  0.62482822  0.98264857  0.25189318  1
  O  O243  1  0.63689108  1.00464050  0.73564545  1
  O  O244  1  0.35653874  -0.03595699  0.24774687  1
  O  O245  1  0.37569447  -0.00246240  0.75752955  1
  O  O246  1  0.37773826  0.50151966  0.27305805  1
  O  O247  1  0.37821995  0.49604334  0.76122929  1
  O  O248  1  0.85926083  -0.00008023  0.25292578  1
  O  O249  1  0.86785145  0.00715189  0.75446503  1
  O  O250  1  0.85643351  0.49829192  0.23863479  1
  O  O251  1  0.87163981  0.50511602  0.76085397  1
  O  O252  1  0.10781836  0.36170492  0.35661552  1
  O  O253  1  0.12327321  0.34754028  0.85219966  1
  O  O254  1  0.11063699  0.88367281  0.35654141  1
  O  O255  1  0.11309770  0.88653144  0.88148507  1
  O  O256  1  0.61406657  0.37318530  0.36671143  1
  O  O257  1  0.61672615  0.38462835  0.86118734  1
  O  O258  1  0.62711183  0.86153694  0.36362270  1
  O  O259  1  0.66656650  0.82720991  0.88140580  1
  O  O260  1  0.39981089  0.11800818  0.12257113  1
  O  O261  1  0.38795787  0.12373022  0.62371465  1
  O  O262  1  0.32031597  0.68986191  0.09512759  1
  O  O263  1  0.40117282  0.61870857  0.62488530  1
  O  O264  1  0.86429276  0.13304762  0.11920634  1
  O  O265  1  0.86091300  0.14010924  0.63420792  1
  O  O266  1  0.87057306  0.64051830  0.11954455  1
  O  O267  1  0.88888528  0.63406860  0.63661905  1
  O  O268  1  0.26746039  0.24322895  0.10539738  1
  O  O269  1  0.24637003  0.24381648  0.60510095  1
  O  O270  1  0.25148218  0.72937343  0.10595267  1
  O  O271  1  0.27519192  0.74268145  0.67695436  1
  O  O272  1  0.74948042  0.24491208  0.10428848  1
  O  O273  1  0.76261245  0.26277900  0.62186582  1
  O  O274  1  0.76362545  0.76255550  0.13288067  1
  O  O275  1  0.76145813  0.76318237  0.62614552  1
  O  O276  1  0.24644756  0.24561251  0.39660715  1
  O  O277  1  0.24096020  0.24902889  0.88048825  1
  O  O278  1  0.26011537  0.74997440  0.38114329  1
  O  O279  1  0.24774478  0.71539324  0.89537777  1
  O  O280  1  0.73722111  0.27003683  0.37522900  1
  O  O281  1  0.74913913  0.23593917  0.88058904  1
  O  O282  1  0.73877475  0.75263713  0.37152471  1
  O  O283  1  0.72780646  0.77903901  0.88333708  1
  O  O284  1  -0.00835998  0.11120470  -0.00602963  1
  O  O285  1  0.01091181  0.10789655  0.49162411  1
  O  O286  1  -0.00261806  0.60787705  0.00941357  1
  O  O287  1  0.00458074  0.62605936  0.52302010  1
  O  O288  1  0.51257448  0.13999237  -0.00411069  1
  O  O289  1  0.50527252  0.12625007  0.51387331  1
  O  O290  1  0.50966080  0.59800848  -0.00122370  1
  O  O291  1  0.51472569  0.61498595  0.50726125  1
  O  O292  1  0.49412820  0.38283226  0.49387887  1
  O  O293  1  0.51197622  0.38290768  0.98637315  1
  O  O294  1  0.51306599  0.89933155  0.50221030  1
  O  O295  1  0.48822068  0.87589033  1.00320921  1
  O  O296  1  1.00921044  0.37472264  0.47263101  1
  O  O297  1  0.98078210  0.37996813  1.00325174  1
  O  O298  1  0.99773347  0.88540818  0.48391856  1
  O  O299  1  0.98764190  0.88693634  0.99114630  1
  O  O300  1  0.50609219  0.49414594  0.38603768  1
  O  O301  1  0.48949513  0.48751084  0.88035288  1
  O  O302  1  0.51217131  1.01437465  0.38794200  1
  O  O303  1  0.48236722  0.99089676  0.87095587  1
  O  O304  1  1.01799865  0.48024800  0.36803470  1
  O  O305  1  0.98376792  0.50158533  0.89029805  1
  O  O306  1  1.00100721  0.99330139  0.37820134  1
  O  O307  1  0.99177457  0.99414732  0.88226096  1
  O  O308  1  -0.00820368  0.00116108  0.11252391  1
  O  O309  1  0.00944841  -0.00413610  0.61583794  1
  O  O310  1  -0.00870316  0.49605715  0.11368506  1
  O  O311  1  -0.00431030  0.51014369  0.63230518  1
  O  O312  1  0.50042903  0.01198515  0.09368647  1
  O  O313  1  0.51594293  0.02009757  0.62403120  1
  O  O314  1  0.50482350  0.49161736  0.11552252  1
  O  O315  1  0.51594814  0.50061007  0.61685147  1
  O  O316  1  0.25444565  0.37945689  0.25077329  1
  O  O317  1  0.23346809  0.37444954  0.74197184  1
  O  O318  1  0.23294269  0.86156709  0.25211299  1
  O  O319  1  0.31015725  0.78853884  0.72664591  1
  O  O320  1  0.73513676  0.38857360  0.24601082  1
  O  O321  1  0.74828779  0.38293588  0.74351446  1
  O  O322  1  0.74293059  0.88314691  0.23999707  1
  O  O323  1  0.76076345  0.88857380  0.73172641  1
  O  O324  1  0.23814988  0.14238298  0.27168193  1
  O  O325  1  0.24927616  0.14486373  0.76154089  1
  O  O326  1  0.25048421  0.63756050  0.27413192  1
  O  O327  1  0.22895371  0.59526209  0.78789044  1
  O  O328  1  0.73606330  0.10485639  0.24533863  1
  O  O329  1  0.75858314  0.11936322  0.75968217  1
  O  O330  1  0.73996963  0.61085739  0.24198568  1
  O  O331  1  0.76383644  0.61122378  0.73724767  1
  O  O332  1  0.36297776  0.13538484  0.37753445  1
  O  O333  1  0.36714766  0.12718463  0.86248993  1
  O  O334  1  0.36098419  0.61355499  0.39285227  1
  O  O335  1  0.35904856  0.59570621  0.89003209  1
  O  O336  1  0.83042882  0.12627880  0.40435547  1
  O  O337  1  0.86562480  0.11369013  0.86750693  1
  O  O338  1  0.88681808  0.56316221  0.42776267  1
  O  O339  1  0.87832266  0.61980931  0.86781465  1
  O  O340  1  0.12573387  0.34657812  0.14369593  1
  O  O341  1  0.11548397  0.37539093  0.63204392  1
  O  O342  1  0.12058062  0.89103376  0.13481930  1
  O  O343  1  0.12724276  0.88950550  0.63945546  1
  O  O344  1  0.62286766  0.38344449  0.13223101  1
  O  O345  1  0.63872344  0.38199483  0.62924053  1
  O  O346  1  0.63682235  0.86272772  0.13510527  1
  O  O347  1  0.64334233  0.88252558  0.61622194  1
  O  O348  1  0.13724123  0.29346740  0.19605600  1
  O  O349  1  0.10651211  0.25147709  0.73918459  1
  O  O350  1  0.10489154  0.76715774  0.23579788  1
  O  O351  1  0.13076578  0.74904645  0.78771880  1
  O  O352  1  0.61932997  0.26187093  0.25400752  1
  O  O353  1  0.62874122  0.26180400  0.74311098  1
  O  O354  1  0.62142920  0.75286338  0.25887945  1
  O  O355  1  0.62492002  0.76006377  0.75204897  1
  O  O356  1  0.38961544  0.25779598  0.25506581  1
  O  O357  1  0.38875806  0.25708166  0.74404306  1
  O  O358  1  0.39215428  0.76302771  0.26131109  1
  O  O359  1  0.46693500  0.82882608  0.74639057  1
  O  O360  1  0.85124489  0.25215182  0.23059509  1
  O  O361  1  0.88344582  0.24369430  0.75431380  1
  O  O362  1  0.88518486  0.75808758  0.23890208  1
  O  O363  1  0.87187819  0.74177494  0.74752070  1
  O  O364  1  0.38575324  0.49170291  0.49352197  1
  O  O365  1  0.38935477  0.48576772  0.99908882  1
  O  O366  1  0.39713003  1.01174926  0.50295163  1
  O  O367  1  0.38846489  1.00687091  0.97634475  1
  O  O368  1  0.87196170  0.51511284  0.48312375  1
  O  O369  1  0.87083109  0.48791720  0.99624744  1
  O  O370  1  0.89396836  0.99197063  0.50803359  1
  O  O371  1  0.87742958  0.99429704  0.99232810  1
  O  O372  1  0.10862504  -0.00051918  0.01456336  1
  O  O373  1  0.11683742  -0.00487215  0.50579094  1
  O  O374  1  0.10355514  0.47833246  -0.00584373  1
  O  O375  1  0.12653670  0.52309824  0.51219364  1
  O  O376  1  0.59860636  -0.01098860  -0.02933616  1
  O  O377  1  0.62532671  0.00549374  0.51121719  1
  O  O378  1  0.61794169  0.50001509  0.01056194  1
  O  O379  1  0.62423286  0.50542013  0.50639717  1
  O  O380  1  0.29252457  0.39627038  0.18444069  1
  O  O381  1  0.38566311  0.37978128  0.61243289  1
  O  O382  1  0.30257638  0.88373702  0.04947237  1
  O  O383  1  0.37256286  0.88068367  0.59083620  1
  O  O384  1  0.86198566  0.36400983  0.10873813  1
  O  O385  1  0.86784709  0.36512430  0.62274141  1
  O  O386  1  0.86494188  0.86936931  0.11829448  1
  O  O387  1  0.87194267  0.87208773  0.61786764  1
  O  O388  1  0.13681506  0.11552494  0.39470304  1
  O  O389  1  0.13567950  0.13808106  0.87084588  1
  O  O390  1  0.14103795  0.62780516  0.39194047  1
  O  O391  1  0.12033555  0.62648515  0.89532996  1
  O  O392  1  0.63160734  0.14675318  0.37293772  1
  O  O393  1  0.63502793  0.11913026  0.86205252  1
  O  O394  1  0.63059899  0.63439023  0.38702158  1
  O  O395  1  0.61168795  0.62982266  0.88114490  1
