# generated using pymatgen
data_V35Zn35O128
_symmetry_space_group_name_H-M   'P 1'
_cell_length_a   16.89089851
_cell_length_b   16.85417881
_cell_length_c   16.88473778
_cell_angle_alpha   89.88717612
_cell_angle_beta   90.09067793
_cell_angle_gamma   90.02698114
_symmetry_Int_Tables_number   1
_chemical_formula_structural   V35Zn35O128
_chemical_formula_sum   'V70 Zn70 O256'
_cell_volume   4806.76883413
_cell_formula_units_Z   2
loop_
 _symmetry_equiv_pos_site_id
 _symmetry_equiv_pos_as_xyz
  1  'x, y, z'
loop_
 _atom_site_type_symbol
 _atom_site_label
 _atom_site_symmetry_multiplicity
 _atom_site_fract_x
 _atom_site_fract_y
 _atom_site_fract_z
 _atom_site_occupancy
  V  V0  1  -0.00817941  0.88211620  0.37275261  1
  V  V1  1  0.36903130  0.26043010  0.12994281  1
  V  V2  1  0.00482579  0.63438392  0.62576828  1
  V  V3  1  0.50394469  0.51172657  -0.00349149  1
  V  V4  1  0.38455534  0.62553676  0.24360409  1
  V  V5  1  0.52860699  0.00498793  0.49346796  1
  V  V6  1  0.14085171  0.87981637  0.23826361  1
  V  V7  1  0.87339448  0.50623509  0.35589185  1
  V  V8  1  0.88658392  0.12109749  0.76547039  1
  V  V9  1  0.87756967  0.63236838  0.75929272  1
  V  V10  1  0.75256487  0.02132214  0.24099176  1
  V  V11  1  0.86778620  0.01509327  0.36979101  1
  V  V12  1  0.50750760  0.76706478  0.24873561  1
  V  V13  1  -0.01079325  0.49670058  0.50886257  1
  V  V14  1  0.11635399  0.38360705  0.75523865  1
  V  V15  1  0.13260499  0.35918178  0.25901878  1
  V  V16  1  0.35257712  0.10913919  0.24860918  1
  V  V17  1  0.61939429  0.75818284  0.86991918  1
  V  V18  1  0.49330475  0.63851593  0.63638458  1
  V  V19  1  0.50963198  0.50381661  0.49527028  1
  V  V20  1  0.00221396  0.74543951  0.24897727  1
  V  V21  1  0.75391418  0.89343988  0.60714904  1
  V  V22  1  0.00643204  0.61154353  0.13125402  1
  V  V23  1  0.12100110  0.25607962  0.86821610  1
  V  V24  1  0.37655481  0.23599152  0.64176856  1
  V  V25  1  0.75553595  0.38290052  0.12464383  1
  V  V26  1  0.36853398  0.00103281  0.86502946  1
  V  V27  1  0.26518866  0.50101256  0.76145301  1
  V  V28  1  0.74167630  0.74038039  0.00515101  1
  V  V29  1  0.25104011  0.24429369  0.49404595  1
  V  V30  1  0.49605054  0.12995640  0.12382568  1
  V  V31  1  0.24427207  0.50212589  0.24438335  1
  V  V32  1  0.86208422  0.74811081  0.61137295  1
  V  V33  1  0.25108931  0.24834715  -0.00352768  1
  V  V34  1  0.13760935  0.50295674  0.62153116  1
  V  V35  1  0.74729836  0.00718347  0.78303172  1
  V  V36  1  0.71615472  0.24821478  -0.00561608  1
  V  V37  1  0.51258811  0.36322580  0.86704250  1
  V  V38  1  0.74352783  0.62152471  0.88070819  1
  V  V39  1  0.87792448  0.88353128  0.00228961  1
  V  V40  1  0.35259833  0.87491910  0.00189125  1
  V  V41  1  0.50148198  -0.01014548  -0.00252599  1
  V  V42  1  0.37431894  0.37318923  0.51522603  1
  V  V43  1  0.82860787  0.32628434  0.45502521  1
  V  V44  1  0.36514177  0.75579437  0.12292686  1
  V  V45  1  0.26690661  0.63628274  0.87632894  1
  V  V46  1  0.74163928  0.86567920  0.13857108  1
  V  V47  1  0.34046001  0.86290659  0.49043814  1
  V  V48  1  0.87425480  0.73644733  0.13041347  1
  V  V49  1  0.25152229  0.63098562  0.38782682  1
  V  V50  1  0.61319094  0.36303867  0.25277665  1
  V  V51  1  0.52172868  0.12638347  0.63034874  1
  V  V52  1  0.73968328  0.62404095  0.37518390  1
  V  V53  1  -0.03372696  0.24817608  0.25764055  1
  V  V54  1  0.25485756  0.12804477  0.85482949  1
  V  V55  1  0.75390190  0.49308358  0.75594468  1
  V  V56  1  0.37761399  0.49431821  0.37688582  1
  V  V57  1  0.12870399  0.63511332  -0.01015412  1
  V  V58  1  0.09074385  0.01501560  0.65190415  1
  V  V59  1  0.61663258  -0.00881778  0.13564058  1
  V  V60  1  0.89875915  0.25553314  0.63897943  1
  V  V61  1  0.37246614  0.38431768  -0.01233245  1
  V  V62  1  0.12637677  0.74648458  0.38735856  1
  V  V63  1  0.61906835  0.50984379  0.12782027  1
  V  V64  1  0.74332569  0.35961173  0.62709923  1
  V  V65  1  -0.00058333  0.86493619  0.86620377  1
  V  V66  1  -0.00023433  0.48509880  -0.01315359  1
  V  V67  1  0.62753258  0.50746823  0.63019342  1
  V  V68  1  0.62260830  0.76112826  0.38268322  1
  V  V69  1  0.13200069  0.86814996  0.74637246  1
  Zn  Zn70  1  0.09101170  0.14243375  0.53219490  1
  Zn  Zn71  1  0.87124890  0.22700690  0.11598473  1
  Zn  Zn72  1  0.00947285  0.37243531  0.38762631  1
  Zn  Zn73  1  0.62842331  0.87711078  0.74512375  1
  Zn  Zn74  1  0.13522673  0.48393539  0.11456204  1
  Zn  Zn75  1  0.01311796  0.09892350  0.06914314  1
  Zn  Zn76  1  0.17417110  0.18198917  0.17571263  1
  Zn  Zn77  1  0.18952038  0.19645384  0.68501944  1
  Zn  Zn78  1  0.18589543  0.68450721  0.19135898  1
  Zn  Zn79  1  0.18917172  0.68246219  0.70003795  1
  Zn  Zn80  1  0.67990708  0.18928079  0.15539823  1
  Zn  Zn81  1  0.72965174  0.11224429  0.62374871  1
  Zn  Zn82  1  0.69054914  0.67858674  0.20140315  1
  Zn  Zn83  1  0.68507201  0.68576500  0.68933739  1
  Zn  Zn84  1  0.31231112  0.31249559  0.31574516  1
  Zn  Zn85  1  0.31355993  0.32244613  0.80970807  1
  Zn  Zn86  1  0.31662255  0.81673285  0.31669647  1
  Zn  Zn87  1  0.30322567  0.82472795  0.81223292  1
  Zn  Zn88  1  0.75834739  0.26577517  0.28146381  1
  Zn  Zn89  1  0.79219563  0.29300745  0.80520102  1
  Zn  Zn90  1  0.81192921  0.79809045  0.31642860  1
  Zn  Zn91  1  0.80938049  0.81349457  0.81666018  1
  Zn  Zn92  1  0.19509947  0.43876951  0.43950547  1
  Zn  Zn93  1  0.18658961  0.44431342  0.93694136  1
  Zn  Zn94  1  0.14848639  0.92197957  0.46099285  1
  Zn  Zn95  1  0.18445613  0.93413758  0.92507393  1
  Zn  Zn96  1  0.68842097  0.43986472  0.43089367  1
  Zn  Zn97  1  0.68230696  0.43450390  0.94207047  1
  Zn  Zn98  1  0.69207610  0.94411067  0.42846754  1
  Zn  Zn99  1  0.68960557  0.93454319  0.94782546  1
  Zn  Zn100  1  0.31551038  0.07168900  0.05366639  1
  Zn  Zn101  1  0.30070820  0.06326653  0.58210254  1
  Zn  Zn102  1  0.31452912  0.56641706  0.05961846  1
  Zn  Zn103  1  0.32114201  0.56744227  0.56752797  1
  Zn  Zn104  1  0.82281166  0.08459632  -0.03324579  1
  Zn  Zn105  1  0.91151846  0.06260250  0.55627982  1
  Zn  Zn106  1  0.81904802  0.55114992  0.06248376  1
  Zn  Zn107  1  0.80765215  0.56908869  0.56468079  1
  Zn  Zn108  1  0.44152719  0.43643567  0.18702002  1
  Zn  Zn109  1  0.44390512  0.44007492  0.68940621  1
  Zn  Zn110  1  0.42792574  0.93724756  0.18908843  1
  Zn  Zn111  1  0.47138967  0.91236417  0.64046372  1
  Zn  Zn112  1  0.95227860  0.41114993  0.17905368  1
  Zn  Zn113  1  0.93440081  0.43977457  0.68633102  1
  Zn  Zn114  1  0.93190954  0.93506781  0.17434776  1
  Zn  Zn115  1  0.92364583  0.93326100  0.69893436  1
  Zn  Zn116  1  0.03718012  0.04787373  0.25044112  1
  Zn  Zn117  1  0.05323161  0.05960562  0.85163133  1
  Zn  Zn118  1  0.06279433  0.56063697  0.32218759  1
  Zn  Zn119  1  0.06323851  0.56342705  0.81329061  1
  Zn  Zn120  1  0.54720072  0.06779324  0.31066585  1
  Zn  Zn121  1  0.52575627  0.01051598  0.77496658  1
  Zn  Zn122  1  0.56612065  0.55707134  0.30858129  1
  Zn  Zn123  1  0.55991663  0.55962736  0.81549241  1
  Zn  Zn124  1  0.39765668  0.14918451  0.45364246  1
  Zn  Zn125  1  0.43888894  0.18505624  0.93748322  1
  Zn  Zn126  1  0.44369910  0.69298429  0.44239363  1
  Zn  Zn127  1  0.43948914  0.69361543  0.93981337  1
  Zn  Zn128  1  0.93186777  0.18442207  0.43727062  1
  Zn  Zn129  1  0.95262031  0.18467519  0.93544074  1
  Zn  Zn130  1  0.94017171  0.68084037  0.43849683  1
  Zn  Zn131  1  0.93791030  0.68515640  0.94702707  1
  Zn  Zn132  1  0.06618132  0.29631432  0.07868923  1
  Zn  Zn133  1  0.07744117  0.32152664  0.56872091  1
  Zn  Zn134  1  0.06283819  0.80951646  0.06329026  1
  Zn  Zn135  1  0.05292692  0.82254370  0.56644789  1
  Zn  Zn136  1  0.55499184  0.32451902  0.06496955  1
  Zn  Zn137  1  0.55607884  0.31218437  0.56068196  1
  Zn  Zn138  1  0.55508778  0.80728328  0.06305691  1
  Zn  Zn139  1  0.57620817  0.81343658  0.56048827  1
  O  O140  1  0.09101704  0.18347927  0.10284741  1
  O  O141  1  0.10860799  0.12118907  0.64713998  1
  O  O142  1  0.11583543  0.62184144  0.11835454  1
  O  O143  1  0.11102327  0.61858535  0.63953635  1
  O  O144  1  0.60127465  0.11230591  0.12326144  1
  O  O145  1  0.62007086  0.14477142  0.61824333  1
  O  O146  1  0.62641202  0.60962733  0.13423556  1
  O  O147  1  0.62503830  0.61048215  0.62073556  1
  O  O148  1  0.37411311  0.39067826  0.37945527  1
  O  O149  1  0.38316053  0.37954808  0.88522555  1
  O  O150  1  0.36032124  0.88724665  0.39294345  1
  O  O151  1  0.36299680  0.88732201  0.88949564  1
  O  O152  1  0.87988871  0.39688468  0.39709171  1
  O  O153  1  0.87690888  0.36683005  0.88096293  1
  O  O154  1  0.89387158  0.85640472  0.37413319  1
  O  O155  1  0.87960823  0.86270053  0.89664119  1
  O  O156  1  0.20892863  0.03325408  0.38548624  1
  O  O157  1  0.25450178  0.01699879  0.88003764  1
  O  O158  1  0.25901112  0.51372865  0.36957882  1
  O  O159  1  0.25299334  0.51110029  0.86719857  1
  O  O160  1  0.75573902  -0.00151131  0.35010231  1
  O  O161  1  0.75226815  0.01236431  0.88718108  1
  O  O162  1  0.76659449  0.50430526  0.37213589  1
  O  O163  1  0.74132906  0.50258899  0.86176579  1
  O  O164  1  0.25252821  0.50745987  0.14089838  1
  O  O165  1  0.23990491  0.52120258  0.63909112  1
  O  O166  1  0.20346990  1.01334849  0.08364865  1
  O  O167  1  0.19909754  1.00434400  0.60145561  1
  O  O168  1  0.73189134  0.49194274  0.11107694  1
  O  O169  1  0.74134809  0.49668031  0.63223553  1
  O  O170  1  0.73466055  0.98551165  0.13742616  1
  O  O171  1  0.75472020  0.99139810  0.62801842  1
  O  O172  1  0.01737879  0.36085645  0.26524233  1
  O  O173  1  0.01655400  0.38845810  0.75045286  1
  O  O174  1  0.00667824  0.85968334  0.25593081  1
  O  O175  1  -0.01034761  0.86342243  0.76370380  1
  O  O176  1  0.51157243  0.36413450  0.24472664  1
  O  O177  1  0.49766207  0.38230080  0.76787329  1
  O  O178  1  0.49381394  0.86611980  0.25304598  1
  O  O179  1  0.51531286  0.90091875  0.74182765  1
  O  O180  1  0.47950821  0.11546393  0.22844443  1
  O  O181  1  0.50794417  0.11540158  0.73131827  1
  O  O182  1  0.48506904  0.62351866  0.25379803  1
  O  O183  1  0.51021705  0.62100595  0.73548958  1
  O  O184  1  1.01452347  0.15986073  0.25590695  1
  O  O185  1  0.98613870  0.11659673  0.76987136  1
  O  O186  1  1.01069043  0.62839985  0.23879210  1
  O  O187  1  0.98403842  0.61632443  0.74192341  1
  O  O188  1  0.36728073  0.26253863  0.00244735  1
  O  O189  1  0.37448872  0.26524298  0.50132527  1
  O  O190  1  0.37952393  0.76208943  0.01323776  1
  O  O191  1  0.37830611  0.76692617  0.49897184  1
  O  O192  1  0.89561385  0.32814156  -0.05889870  1
  O  O193  1  0.88389799  0.26284151  0.51836277  1
  O  O194  1  0.86273848  0.74907575  0.01566272  1
  O  O195  1  0.88191095  0.74623774  0.51313552  1
  O  O196  1  0.14516337  0.24360504  0.51771310  1
  O  O197  1  0.14734774  0.26983829  0.97797694  1
  O  O198  1  0.11548726  0.75330308  0.48582971  1
  O  O199  1  0.12684654  0.73374406  1.00785874  1
  O  O200  1  0.61419022  0.24807191  0.47256539  1
  O  O201  1  0.61621790  0.24513755  1.00993218  1
  O  O202  1  0.61287192  0.74169293  0.48014754  1
  O  O203  1  0.63610406  0.74991207  0.99704195  1
  O  O204  1  0.48353811  0.23603286  0.11517922  1
  O  O205  1  0.48655717  0.23803190  0.61703822  1
  O  O206  1  0.48651993  0.75258396  0.14039278  1
  O  O207  1  0.51341976  0.73686890  0.62199141  1
  O  O208  1  0.96984891  0.28580957  0.15033063  1
  O  O209  1  0.99713255  0.26670886  0.63400654  1
  O  O210  1  0.99374735  0.73572326  0.13189854  1
  O  O211  1  0.99348722  0.73784383  0.62298514  1
  O  O212  1  -0.03205363  0.26434186  0.36501382  1
  O  O213  1  0.02273334  0.25367446  0.87425331  1
  O  O214  1  0.01090390  0.74481229  0.36787533  1
  O  O215  1  0.00137062  0.76563539  0.89911488  1
  O  O216  1  0.56966514  0.21459365  0.41532425  1
  O  O217  1  0.49399970  0.26275236  0.87891615  1
  O  O218  1  0.51052701  0.74173124  0.35917382  1
  O  O219  1  0.52052449  0.74422599  0.88108895  1
  O  O220  1  0.27988007  0.14192313  0.49568177  1
  O  O221  1  0.25275524  0.14453834  0.98822475  1
  O  O222  1  0.25959450  0.62399131  0.48652436  1
  O  O223  1  0.24008361  0.61866461  0.98838608  1
  O  O224  1  0.80781445  0.11887790  0.54112978  1
  O  O225  1  0.74028547  0.14919126  1.01165343  1
  O  O226  1  0.75848896  0.61858695  0.47792226  1
  O  O227  1  0.75989716  0.62724178  0.99023440  1
  O  O228  1  0.26603991  0.37335044  -0.00874457  1
  O  O229  1  0.26669274  0.37113436  0.50288109  1
  O  O230  1  0.25353578  0.87285192  -0.00030622  1
  O  O231  1  0.23896727  0.86183568  0.49691114  1
  O  O232  1  0.73670203  0.36322445  0.01243629  1
  O  O233  1  0.75589649  0.37867614  0.51219232  1
  O  O234  1  0.75568712  0.85973567  0.01460269  1
  O  O235  1  0.75257030  0.88555466  0.50771431  1
  O  O236  1  0.14052610  0.50727658  0.25220173  1
  O  O237  1  0.13331582  0.49704392  0.74633586  1
  O  O238  1  0.12788097  0.97962847  0.25647669  1
  O  O239  1  0.10422133  0.99786721  0.75232329  1
  O  O240  1  0.61543604  0.48635547  0.23399210  1
  O  O241  1  0.63697372  0.50238771  0.73678234  1
  O  O242  1  0.62941672  1.00855481  0.24211582  1
  O  O243  1  0.64522320  1.00255686  0.76873362  1
  O  O244  1  0.35852308  0.00832855  0.24064399  1
  O  O245  1  0.37474018  -0.00736168  0.76930432  1
  O  O246  1  0.37134927  0.50841302  0.25517122  1
  O  O247  1  0.36315647  0.50069491  0.74384069  1
  O  O248  1  0.85528870  -0.00335648  0.24471668  1
  O  O249  1  0.86741233  0.01297668  0.76102752  1
  O  O250  1  0.89447570  0.48733649  0.26183381  1
  O  O251  1  0.85939230  0.50998344  0.74351415  1
  O  O252  1  0.12589317  0.38878196  0.36535375  1
  O  O253  1  0.13296969  0.37122907  0.86280974  1
  O  O254  1  0.11745708  0.85784004  0.36154836  1
  O  O255  1  0.11551278  0.87332622  0.85846520  1
  O  O256  1  0.63305806  0.38136712  0.35172819  1
  O  O257  1  0.61299868  0.37196982  0.87652546  1
  O  O258  1  0.63045976  0.86057370  0.37627681  1
  O  O259  1  0.63194293  0.86068342  0.87935945  1
  O  O260  1  0.37338415  0.13612127  0.13024309  1
  O  O261  1  0.37753566  0.13225998  0.63504143  1
  O  O262  1  0.37440469  0.63298455  0.13786087  1
  O  O263  1  0.39260981  0.62674149  0.62941153  1
  O  O264  1  0.90634513  0.15424930  0.03708798  1
  O  O265  1  0.88848574  0.14669067  0.64492498  1
  O  O266  1  0.89172663  0.62672214  0.12031496  1
  O  O267  1  0.88368742  0.63241128  0.63377919  1
  O  O268  1  0.25989060  0.25094798  0.10584162  1
  O  O269  1  0.26981579  0.24693594  0.61500819  1
  O  O270  1  0.26692646  0.74143740  0.13078800  1
  O  O271  1  0.29025722  0.75031032  0.65687354  1
  O  O272  1  0.75940897  0.26247143  0.10934929  1
  O  O273  1  0.74674696  0.26186975  0.63144962  1
  O  O274  1  0.75307473  0.74446710  0.12389021  1
  O  O275  1  0.76217797  0.73428367  0.61713018  1
  O  O276  1  0.25149068  0.25832743  0.39480899  1
  O  O277  1  0.25859499  0.24284786  0.87703392  1
  O  O278  1  0.23973626  0.73858434  0.37052617  1
  O  O279  1  0.25596466  0.73701909  0.86758156  1
  O  O280  1  0.77716055  0.26739103  0.39338679  1
  O  O281  1  0.73958574  0.25972766  0.89537647  1
  O  O282  1  0.73334795  0.73856305  0.37204847  1
  O  O283  1  0.74473429  0.74049275  0.88712304  1
  O  O284  1  0.03583475  0.10683322  -0.04323687  1
  O  O285  1  -0.00464697  0.11110917  0.49066741  1
  O  O286  1  0.01188104  0.61490659  0.01019221  1
  O  O287  1  0.00060654  0.61400717  0.51901580  1
  O  O288  1  0.47757439  0.10449174  0.01635252  1
  O  O289  1  0.48642441  0.11018005  0.51053487  1
  O  O290  1  0.49204304  0.61073499  0.00035469  1
  O  O291  1  0.49390064  0.60786652  0.51229215  1
  O  O292  1  0.48731468  0.39136679  0.50350808  1
  O  O293  1  0.48837455  0.38220598  0.99037021  1
  O  O294  1  0.50955235  0.90028771  0.52279916  1
  O  O295  1  0.48633583  0.88588823  1.00480486  1
  O  O296  1  1.01354323  0.39321763  0.50534111  1
  O  O297  1  1.02066152  0.38808384  1.01454268  1
  O  O298  1  1.02419847  0.88997785  0.47348969  1
  O  O299  1  0.97803711  0.87326536  1.02164352  1
  O  O300  1  0.49304117  0.50877932  0.38875858  1
  O  O301  1  0.50726610  0.49250340  0.89106112  1
  O  O302  1  0.50244858  1.00590300  0.39377485  1
  O  O303  1  0.48133420  1.00560933  0.89200869  1
  O  O304  1  0.99186482  0.50617204  0.39559961  1
  O  O305  1  1.00827765  0.49448719  0.88642377  1
  O  O306  1  0.97911551  0.98527564  0.34493847  1
  O  O307  1  0.99937564  0.96478152  0.89267677  1
  O  O308  1  -0.00055949  0.01890185  0.14701510  1
  O  O309  1  -0.01208653  0.00447358  0.62886045  1
  O  O310  1  0.00570587  0.50759331  0.12928569  1
  O  O311  1  0.01088952  0.50749791  0.62146219  1
  O  O312  1  0.50086039  -0.00076827  0.11873533  1
  O  O313  1  0.51825774  0.01964336  0.61304873  1
  O  O314  1  0.50905251  0.49464386  0.11283734  1
  O  O315  1  0.51514560  0.50256698  0.61937771  1
  O  O316  1  0.24577353  0.39487115  0.26116183  1
  O  O317  1  0.24376373  0.39650617  0.75449139  1
  O  O318  1  0.24018897  0.86502891  0.24917113  1
  O  O319  1  0.23065758  0.88819887  0.74878841  1
  O  O320  1  0.74202871  0.37313738  0.22874643  1
  O  O321  1  0.75025671  0.38564303  0.74171945  1
  O  O322  1  0.75022165  0.86225931  0.23904789  1
  O  O323  1  0.75724382  0.89758466  0.75859799  1
  O  O324  1  0.25318170  0.12588264  0.23158313  1
  O  O325  1  0.25847387  0.12870699  0.75580714  1
  O  O326  1  0.26164559  0.61715717  0.25907452  1
  O  O327  1  0.24732178  0.61543537  0.76796570  1
  O  O328  1  0.74794933  0.12019625  0.23038498  1
  O  O329  1  0.76041109  0.10741914  0.74278136  1
  O  O330  1  0.76124926  0.62535225  0.27103184  1
  O  O331  1  0.75861106  0.61438178  0.75791548  1
  O  O332  1  0.37309447  0.13639447  0.34504490  1
  O  O333  1  0.36503428  0.11304400  0.88011199  1
  O  O334  1  0.36726875  0.62172936  0.36699925  1
  O  O335  1  0.36606348  0.62682768  0.88360293  1
  O  O336  1  0.87079047  0.11378921  0.36663678  1
  O  O337  1  0.86587207  0.14121576  0.86720454  1
  O  O338  1  0.87861621  0.61026365  0.37288248  1
  O  O339  1  0.86840568  0.62971805  0.86407478  1
  O  O340  1  0.12502929  0.37555018  0.15268839  1
  O  O341  1  0.13256463  0.39524514  0.63939781  1
  O  O342  1  0.12364667  0.86602737  0.13898105  1
  O  O343  1  0.09967511  0.89521886  0.64292850  1
  O  O344  1  0.62785274  0.38150654  0.13340879  1
  O  O345  1  0.63767000  0.38137347  0.61717725  1
  O  O346  1  0.62791072  0.88084368  0.12177802  1
  O  O347  1  0.65712722  0.85734586  0.63149858  1
  O  O348  1  0.14995587  0.26200318  0.26209489  1
  O  O349  1  0.13661481  0.27288247  0.75558822  1
  O  O350  1  0.11677998  0.75110488  0.25671376  1
  O  O351  1  0.12694306  0.76813722  0.73382812  1
  O  O352  1  0.64304226  0.25835421  0.24418497  1
  O  O353  1  0.62422080  0.19159726  0.80193763  1
  O  O354  1  0.61066951  0.74888885  0.25092195  1
  O  O355  1  0.63759744  0.75474929  0.76629905  1
  O  O356  1  0.36342495  0.25529066  0.23108692  1
  O  O357  1  0.37457820  0.25664208  0.73892095  1
  O  O358  1  0.38268979  0.74177930  0.24666595  1
  O  O359  1  0.34462366  0.76946016  0.70624566  1
  O  O360  1  0.86484570  0.23263735  0.24287878  1
  O  O361  1  0.87465193  0.24421535  0.74580892  1
  O  O362  1  0.88753666  0.74852896  0.23983230  1
  O  O363  1  0.86556034  0.73472194  0.74261097  1
  O  O364  1  0.37986038  0.49122945  0.49733366  1
  O  O365  1  0.38496687  0.48922286  1.01032316  1
  O  O366  1  0.36350389  0.97219005  0.53523014  1
  O  O367  1  0.37312501  0.98435203  1.00587323  1
  O  O368  1  0.88999760  0.49746414  0.51865833  1
  O  O369  1  0.89977623  0.49964894  1.00177572  1
  O  O370  1  0.87303213  0.99056768  0.46593086  1
  O  O371  1  0.85972055  0.98152549  1.00926662  1
  O  O372  1  0.15188385  0.00174669  0.02966463  1
  O  O373  1  0.14059726  0.01615538  0.53710252  1
  O  O374  1  0.12020108  0.51109454  0.00356591  1
  O  O375  1  0.12992856  0.50208794  0.51872140  1
  O  O376  1  0.60624687  -0.00611755  0.00902810  1
  O  O377  1  0.62872031  0.01626415  0.49028199  1
  O  O378  1  0.61174031  0.49931399  0.01086159  1
  O  O379  1  0.61422900  0.49378110  0.50543794  1
  O  O380  1  0.38212770  0.36367144  0.11399236  1
  O  O381  1  0.38155676  0.36846611  0.61771754  1
  O  O382  1  0.36742464  0.86452479  0.11825168  1
  O  O383  1  0.36178797  0.91002376  0.59740563  1
  O  O384  1  0.85505500  0.39480067  0.12036916  1
  O  O385  1  0.86197926  0.36299847  0.63579293  1
  O  O386  1  0.86160555  0.85875783  0.12190442  1
  O  O387  1  0.86035312  0.85713773  0.63277511  1
  O  O388  1  0.16614822  0.09279945  0.38212827  1
  O  O389  1  0.14513708  0.14669980  0.85939396  1
  O  O390  1  0.13870915  0.63351152  0.37478681  1
  O  O391  1  0.12534370  0.62865902  0.88662332  1
  O  O392  1  0.60911709  0.16247190  0.37212035  1
  O  O393  1  0.61935060  0.14874366  0.85960689  1
  O  O394  1  0.63532384  0.62106968  0.37151591  1
  O  O395  1  0.63924003  0.63276882  0.87008627  1
