# generated using pymatgen
data_V35Zn35O128
_symmetry_space_group_name_H-M   'P 1'
_cell_length_a   16.83823242
_cell_length_b   16.83878046
_cell_length_c   16.82161649
_cell_angle_alpha   90.00908959
_cell_angle_beta   90.06544049
_cell_angle_gamma   89.90877996
_symmetry_Int_Tables_number   1
_chemical_formula_structural   V35Zn35O128
_chemical_formula_sum   'V70 Zn70 O256'
_cell_volume   4769.51284889
_cell_formula_units_Z   2
loop_
 _symmetry_equiv_pos_site_id
 _symmetry_equiv_pos_as_xyz
  1  'x, y, z'
loop_
 _atom_site_type_symbol
 _atom_site_label
 _atom_site_symmetry_multiplicity
 _atom_site_fract_x
 _atom_site_fract_y
 _atom_site_fract_z
 _atom_site_occupancy
  V  V0  1  0.50980937  0.36813518  0.87122675  1
  V  V1  1  0.72877479  0.74780044  0.01121768  1
  V  V2  1  0.37400572  0.37540731  0.00953531  1
  V  V3  1  0.63718077  0.13712401  -0.00838214  1
  V  V4  1  0.12663213  0.75304077  0.36660001  1
  V  V5  1  0.49673452  0.00626752  -0.00326949  1
  V  V6  1  0.37310406  0.49419056  0.87171197  1
  V  V7  1  0.01630301  0.00577859  0.51104670  1
  V  V8  1  0.87739901  0.00796129  0.38274986  1
  V  V9  1  0.63559927  -0.00574160  0.61960450  1
  V  V10  1  0.62168361  0.62274852  0.52028840  1
  V  V11  1  0.61821892  0.00547117  0.12799380  1
  V  V12  1  0.38704593  0.62304978  0.24100376  1
  V  V13  1  0.12704848  0.10542404  0.00477731  1
  V  V14  1  0.13533787  0.88917786  0.23991663  1
  V  V15  1  0.37704556  0.01094458  0.36870152  1
  V  V16  1  0.25673977  0.61265110  0.37345870  1
  V  V17  1  0.37843851  0.62900243  0.73858289  1
  V  V18  1  0.37446252  0.26538240  0.61616283  1
  V  V19  1  0.24556968  0.49310441  0.22272605  1
  V  V20  1  0.26291536  0.12210601  0.86372511  1
  V  V21  1  0.50818230  0.24448492  0.75401574  1
  V  V22  1  0.77740368  0.51063147  0.26754098  1
  V  V23  1  0.74845253  0.03960936  0.75739036  1
  V  V24  1  0.50973260  0.12130708  0.59960600  1
  V  V25  1  0.12797661  0.24683885  0.87657749  1
  V  V26  1  0.49630929  0.24737542  0.24223093  1
  V  V27  1  0.23833693  0.24856929  0.49876336  1
  V  V28  1  0.10935734  0.49554108  0.62309396  1
  V  V29  1  0.11787891  0.74991109  0.86425503  1
  V  V30  1  0.11586179  0.62128326  0.49815158  1
  V  V31  1  0.74353818  0.25198990  0.49858946  1
  V  V32  1  0.87037285  0.50225068  0.87593371  1
  V  V33  1  0.25090655  0.25378545  0.00311471  1
  V  V34  1  0.38124061  -0.01585024  0.86219339  1
  V  V35  1  0.47945424  0.38385781  0.38134634  1
  V  V36  1  0.88025328  0.24173104  0.61505074  1
  V  V37  1  0.49641352  0.87531171  0.39542734  1
  V  V38  1  0.24744057  0.49161739  0.74120387  1
  V  V39  1  0.00063913  0.38269299  0.88371444  1
  V  V40  1  0.25605476  0.89526121  0.62812889  1
  V  V41  1  0.37318266  0.23328932  0.12960459  1
  V  V42  1  0.11990014  0.89442110  0.74198342  1
  V  V43  1  0.62360734  0.26532244  0.36464806  1
  V  V44  1  0.01107487  0.36153503  0.38783643  1
  V  V45  1  -0.00911097  0.23619593  0.75403638  1
  V  V46  1  0.53164050  0.78927590  0.75695224  1
  V  V47  1  0.11903377  0.36630941  0.23809573  1
  V  V48  1  0.76139025  0.75935003  0.51578793  1
  V  V49  1  0.65516523  0.49385575  0.14871217  1
  V  V50  1  0.63000862  0.73931780  0.37844593  1
  V  V51  1  0.87091053  0.01032229  0.88170728  1
  V  V52  1  -0.01090315  0.86847192  0.37334288  1
  V  V53  1  0.87693413  0.63452874  0.75064223  1
  V  V54  1  0.11512499  0.61444070  0.01090514  1
  V  V55  1  -0.03358274  0.11957340  0.14318631  1
  V  V56  1  0.75797668  -0.00783713  0.24538056  1
  V  V57  1  0.12589146  0.37095419  0.74468984  1
  V  V58  1  0.89653387  0.51265512  0.39930622  1
  V  V59  1  0.24735267  0.62246153  0.87499571  1
  V  V60  1  0.25795382  0.75857016  0.00180392  1
  V  V61  1  0.73194822  0.62802495  0.87286409  1
  V  V62  1  0.25593008  0.75481935  0.50690554  1
  V  V63  1  0.50736439  0.51196651  0.00609657  1
  V  V64  1  0.23180999  0.12456721  0.36732009  1
  V  V65  1  0.74950841  0.38177434  0.65091036  1
  V  V66  1  0.61852852  0.86605238  0.24893566  1
  V  V67  1  0.87831603  0.86422673  0.00938845  1
  V  V68  1  -0.00319957  0.64901486  0.62994965  1
  V  V69  1  0.73553980  0.12072653  0.37324792  1
  Zn  Zn70  1  0.37863505  0.74705240  0.12204168  1
  Zn  Zn71  1  -0.00955060  0.87131801  0.86860683  1
  Zn  Zn72  1  0.37630171  0.11921830  0.73301698  1
  Zn  Zn73  1  0.86121411  0.39520071  0.03325508  1
  Zn  Zn74  1  0.39303358  0.75335460  0.62013964  1
  Zn  Zn75  1  0.62875013  0.49344544  0.62322964  1
  Zn  Zn76  1  0.18144553  0.18433454  0.18778932  1
  Zn  Zn77  1  0.18852338  0.18044155  0.67920850  1
  Zn  Zn78  1  0.19284634  0.68883004  0.18462494  1
  Zn  Zn79  1  0.18703260  0.68278427  0.68740046  1
  Zn  Zn80  1  0.68131453  0.17826813  0.19542954  1
  Zn  Zn81  1  0.68481280  0.19430059  0.68413427  1
  Zn  Zn82  1  0.68464575  0.67436428  0.18819363  1
  Zn  Zn83  1  0.68816069  0.69270635  0.69440752  1
  Zn  Zn84  1  0.30271153  0.31217194  0.31355565  1
  Zn  Zn85  1  0.31995738  0.30757606  0.80592870  1
  Zn  Zn86  1  0.31657796  0.81046374  0.31122692  1
  Zn  Zn87  1  0.30502765  0.81138905  0.80634657  1
  Zn  Zn88  1  0.80034838  0.34467907  0.35288994  1
  Zn  Zn89  1  0.81762392  0.31508776  0.81399059  1
  Zn  Zn90  1  0.80700025  0.80351534  0.30903915  1
  Zn  Zn91  1  0.81147099  0.80323000  0.83127682  1
  Zn  Zn92  1  0.18362889  0.43095587  0.44049581  1
  Zn  Zn93  1  0.18519347  0.43560021  0.94093871  1
  Zn  Zn94  1  0.19441887  0.94297566  0.43490795  1
  Zn  Zn95  1  0.19451849  0.93365498  0.92578953  1
  Zn  Zn96  1  0.69248922  0.44620207  0.44268568  1
  Zn  Zn97  1  0.68494305  0.44273711  0.92983830  1
  Zn  Zn98  1  0.68742299  0.93045015  0.44055746  1
  Zn  Zn99  1  0.69502719  0.93979245  0.94321778  1
  Zn  Zn100  1  0.31783400  0.06642375  0.04832640  1
  Zn  Zn101  1  0.32537426  0.06393700  0.54322407  1
  Zn  Zn102  1  0.31789347  0.56834580  0.05744073  1
  Zn  Zn103  1  0.29951781  0.56613658  0.56407782  1
  Zn  Zn104  1  0.81065159  0.05561746  0.06206653  1
  Zn  Zn105  1  0.81190752  0.06342745  0.56152354  1
  Zn  Zn106  1  0.81698661  0.57582913  0.06130246  1
  Zn  Zn107  1  0.80757404  0.57002174  0.56345521  1
  Zn  Zn108  1  0.43857905  0.43683813  0.19561929  1
  Zn  Zn109  1  0.44869549  0.44086409  0.68553461  1
  Zn  Zn110  1  0.43787793  0.91979920  0.18731219  1
  Zn  Zn111  1  0.44486061  0.93859471  0.67617676  1
  Zn  Zn112  1  0.90474347  0.40157372  0.22976778  1
  Zn  Zn113  1  0.93188400  0.43319608  0.69312478  1
  Zn  Zn114  1  0.95363856  0.92791698  0.18041150  1
  Zn  Zn115  1  0.93951091  0.95878419  0.70450400  1
  Zn  Zn116  1  0.05818149  0.06552221  0.30307277  1
  Zn  Zn117  1  0.05855478  0.06311306  0.83320492  1
  Zn  Zn118  1  0.06145549  0.55503094  0.30252646  1
  Zn  Zn119  1  0.05980768  0.56298253  0.81115261  1
  Zn  Zn120  1  0.55380465  0.05817686  0.31271529  1
  Zn  Zn121  1  0.56707655  0.06142315  0.81334941  1
  Zn  Zn122  1  0.57108224  0.55272846  0.31196702  1
  Zn  Zn123  1  0.55651395  0.54986808  0.79429506  1
  Zn  Zn124  1  0.43366869  0.19221546  0.43245904  1
  Zn  Zn125  1  0.44613761  0.18630206  0.94388643  1
  Zn  Zn126  1  0.44357575  0.68802888  0.43265364  1
  Zn  Zn127  1  0.44279748  0.69241801  0.92251755  1
  Zn  Zn128  1  0.94184397  0.18262800  0.43332080  1
  Zn  Zn129  1  0.94233460  0.18692837  0.96157504  1
  Zn  Zn130  1  0.93652819  0.69295649  0.43905607  1
  Zn  Zn131  1  0.93636058  0.68850764  0.94416131  1
  Zn  Zn132  1  0.01486974  0.31371770  0.09301572  1
  Zn  Zn133  1  0.06364285  0.30195440  0.56504008  1
  Zn  Zn134  1  0.06279373  0.80156192  0.06096416  1
  Zn  Zn135  1  0.06796886  0.82392355  0.55661819  1
  Zn  Zn136  1  0.56577414  0.32219013  0.06400101  1
  Zn  Zn137  1  0.56342166  0.31120707  0.56078278  1
  Zn  Zn138  1  0.55072189  0.81557921  0.06846430  1
  Zn  Zn139  1  0.57202128  0.80929284  0.57143584  1
  O  O140  1  0.12581420  0.12917364  0.10480760  1
  O  O141  1  0.10604683  0.12496048  0.63208659  1
  O  O142  1  0.12973707  0.62950084  0.11023507  1
  O  O143  1  0.11101802  0.61880689  0.62209254  1
  O  O144  1  0.61900094  0.10861038  0.12905481  1
  O  O145  1  0.61283209  0.12865374  0.62411439  1
  O  O146  1  0.62051628  0.59016142  0.13567143  1
  O  O147  1  0.62592838  0.62193339  0.62457180  1
  O  O148  1  0.37919298  0.37092734  0.37790118  1
  O  O149  1  0.37574155  0.38082490  0.88216647  1
  O  O150  1  0.39534720  0.86007337  0.37716317  1
  O  O151  1  0.37079484  0.88563798  0.86636528  1
  O  O152  1  0.90383306  0.39273759  0.37052305  1
  O  O153  1  0.88826438  0.38993318  0.86650847  1
  O  O154  1  0.88631730  0.87732060  0.36837575  1
  O  O155  1  0.87200261  0.88198591  0.88115415  1
  O  O156  1  0.26035235  0.01453362  0.37355684  1
  O  O157  1  0.27103296  0.01244176  0.87974015  1
  O  O158  1  0.24921578  0.51352699  0.38558366  1
  O  O159  1  0.25439391  0.50237725  0.86598813  1
  O  O160  1  0.75379661  0.00796988  0.37232449  1
  O  O161  1  0.75310210  -0.00127608  0.86132766  1
  O  O162  1  0.77379090  0.49464851  0.37461956  1
  O  O163  1  0.76291304  0.50882133  0.87319802  1
  O  O164  1  0.24982518  0.49863179  0.12333797  1
  O  O165  1  0.23458905  0.50260357  0.63552223  1
  O  O166  1  0.25978618  0.98914672  0.12452941  1
  O  O167  1  0.26015167  0.99346455  0.61673976  1
  O  O168  1  0.76042504  0.50087710  0.13248322  1
  O  O169  1  0.75386592  0.48493187  0.63454197  1
  O  O170  1  0.73699192  0.99637405  0.14084490  1
  O  O171  1  0.74675111  1.01863899  0.64536645  1
  O  O172  1  0.01546672  0.38026810  0.26297590  1
  O  O173  1  0.00926401  0.36397200  0.75992931  1
  O  O174  1  0.01470885  0.88007605  0.26806517  1
  O  O175  1  0.01544393  0.87819287  0.74636976  1
  O  O176  1  0.49295195  0.35993965  0.26425990  1
  O  O177  1  0.48459755  0.35817806  0.76644297  1
  O  O178  1  0.51737473  0.87183697  0.26418346  1
  O  O179  1  0.51460417  0.88976254  0.75449353  1
  O  O180  1  0.50365382  0.14724636  0.25670837  1
  O  O181  1  0.49762639  0.13818092  0.75491498  1
  O  O182  1  0.48483685  0.61316545  0.25840886  1
  O  O183  1  0.47676301  0.62618071  0.75601531  1
  O  O184  1  0.99832452  0.13850425  0.23910763  1
  O  O185  1  1.00871576  0.13816368  0.75668503  1
  O  O186  1  0.99902047  0.63000525  0.22072619  1
  O  O187  1  0.99628087  0.62668362  0.73745672  1
  O  O188  1  0.37275422  0.25393421  0.00994677  1
  O  O189  1  0.37691823  0.25135012  0.51252115  1
  O  O190  1  0.36028184  0.73613117  -0.00852390  1
  O  O191  1  0.36019582  0.73997004  0.50330144  1
  O  O192  1  0.85616411  0.27594302  -0.02114222  1
  O  O193  1  0.87448185  0.24727953  0.51115018  1
  O  O194  1  0.86086416  0.75789271  -0.00778280  1
  O  O195  1  0.86201496  0.74681738  0.50147687  1
  O  O196  1  0.13932984  0.23305604  0.51581269  1
  O  O197  1  0.13640727  0.24580132  0.98416987  1
  O  O198  1  0.13225347  0.74032783  0.49303330  1
  O  O199  1  0.13718419  0.74220733  0.98663809  1
  O  O200  1  0.63912758  0.24912679  0.48458656  1
  O  O201  1  0.61615570  0.23476889  1.01387591  1
  O  O202  1  0.63344525  0.74222075  0.49614044  1
  O  O203  1  0.62670458  0.75103678  1.01363092  1
  O  O204  1  0.48929258  0.25716623  0.13478525  1
  O  O205  1  0.49509627  0.24222495  0.63051849  1
  O  O206  1  0.44971805  0.83164990  0.11348542  1
  O  O207  1  0.50342971  0.76238941  0.65321706  1
  O  O208  1  0.97900015  0.20534458  0.07453816  1
  O  O209  1  0.98667445  0.25528019  0.63969341  1
  O  O210  1  0.99270228  0.75978014  0.14188448  1
  O  O211  1  1.00462368  0.74742615  0.62527872  1
  O  O212  1  -0.00238599  0.26148836  0.37691187  1
  O  O213  1  0.00784572  0.25525674  0.86745288  1
  O  O214  1  0.01251867  0.76019673  0.38073394  1
  O  O215  1  0.01596335  0.74921439  0.87560500  1
  O  O216  1  0.51246950  0.25795971  0.36818416  1
  O  O217  1  0.49615080  0.25753355  0.86850373  1
  O  O218  1  0.51918411  0.76049174  0.38041472  1
  O  O219  1  0.48989148  0.75663557  0.84516854  1
  O  O220  1  0.26021980  0.13517993  0.48315739  1
  O  O221  1  0.24650394  0.13569203  0.98930452  1
  O  O222  1  0.23950808  0.63292529  0.49014713  1
  O  O223  1  0.24220290  0.62677609  0.98627149  1
  O  O224  1  0.75946482  0.14025905  0.48223486  1
  O  O225  1  0.73652284  0.12756096  1.01248047  1
  O  O226  1  0.73437318  0.63767010  0.50550127  1
  O  O227  1  0.74916610  0.63107820  0.98226182  1
  O  O228  1  0.25878231  0.36200093  -0.00819331  1
  O  O229  1  0.24354326  0.35138820  0.49521926  1
  O  O230  1  0.25352058  0.85764903  -0.01217134  1
  O  O231  1  0.24205997  0.86211629  0.51253112  1
  O  O232  1  0.75313038  0.36157869  -0.01447653  1
  O  O233  1  0.76238714  0.35154368  0.47229270  1
  O  O234  1  0.75092895  0.85389338  -0.00254426  1
  O  O235  1  0.74900402  0.86111057  0.50475272  1
  O  O236  1  0.14016112  0.49625415  0.24326613  1
  O  O237  1  0.12812182  0.49089923  0.74438303  1
  O  O238  1  0.12779089  0.98929667  0.25132803  1
  O  O239  1  0.12450650  0.99244723  0.76072855  1
  O  O240  1  0.65308626  0.48989805  0.25493720  1
  O  O241  1  0.55070058  0.48637325  0.70153935  1
  O  O242  1  0.62584619  0.99281095  0.24300623  1
  O  O243  1  0.64416563  1.01227555  0.74449053  1
  O  O244  1  0.38238903  -0.02176801  0.26712846  1
  O  O245  1  0.38513431  0.00402630  0.76029441  1
  O  O246  1  0.35720398  0.51073110  0.24326069  1
  O  O247  1  0.36565899  0.50218247  0.75294531  1
  O  O248  1  0.86031755  -0.01413618  0.25993649  1
  O  O249  1  0.85747207  0.01207094  0.76341917  1
  O  O250  1  0.88172325  0.51398795  0.26397954  1
  O  O251  1  0.88404313  0.51248171  0.76520480  1
  O  O252  1  0.11673930  0.38199220  0.36367476  1
  O  O253  1  0.11751970  0.36808425  0.86794528  1
  O  O254  1  0.12607818  0.86188316  0.37037313  1
  O  O255  1  0.12856390  0.86403729  0.86013212  1
  O  O256  1  0.63260322  0.36447381  0.37277335  1
  O  O257  1  0.60880667  0.37749373  0.87093844  1
  O  O258  1  0.61683083  0.87088100  0.37090694  1
  O  O259  1  0.58888160  0.88988146  0.91333452  1
  O  O260  1  0.37981586  0.13431368  0.12019172  1
  O  O261  1  0.39737784  0.12296028  0.61748212  1
  O  O262  1  0.37887381  0.62754137  0.13422914  1
  O  O263  1  0.37108266  0.62112058  0.63449723  1
  O  O264  1  0.86405819  0.11546536  0.14316460  1
  O  O265  1  0.86730260  0.14339637  0.62857146  1
  O  O266  1  0.90419680  0.63675302  0.12909043  1
  O  O267  1  0.88722047  0.62467682  0.63808091  1
  O  O268  1  0.26361335  0.24304488  0.11500719  1
  O  O269  1  0.26777229  0.23998922  0.61598452  1
  O  O270  1  0.25560641  0.74812091  0.10735850  1
  O  O271  1  0.24628366  0.74474902  0.61048871  1
  O  O272  1  0.75352911  0.24891707  0.12490837  1
  O  O273  1  0.75548726  0.25685956  0.60967997  1
  O  O274  1  0.75036950  0.72680742  0.10858132  1
  O  O275  1  0.74902230  0.74807374  0.61707262  1
  O  O276  1  0.25267661  0.23789560  0.38594040  1
  O  O277  1  0.24952396  0.24198957  0.87929291  1
  O  O278  1  0.24008280  0.74310386  0.38617766  1
  O  O279  1  0.24284281  0.73842274  0.87777371  1
  O  O280  1  0.74064816  0.23806267  0.36932318  1
  O  O281  1  0.78123870  0.28965721  0.94506083  1
  O  O282  1  0.73444173  0.75718983  0.38790010  1
  O  O283  1  0.73570837  0.73407183  0.88060948  1
  O  O284  1  0.03300864  0.10841203  -0.03573333  1
  O  O285  1  -0.00579325  0.10424680  0.49522835  1
  O  O286  1  0.01507132  0.62869769  -0.00177252  1
  O  O287  1  0.00779387  0.63284086  0.51643511  1
  O  O288  1  0.51209861  0.11024333  0.00208877  1
  O  O289  1  0.50883629  0.13063945  0.50085121  1
  O  O290  1  0.49077197  0.61009554  -0.01308728  1
  O  O291  1  0.52073338  0.63592018  0.50063083  1
  O  O292  1  0.50682899  0.36685921  0.48041654  1
  O  O293  1  0.49058071  0.37844338  0.98590921  1
  O  O294  1  0.50780563  0.87161848  0.49574547  1
  O  O295  1  0.53488888  0.89556596  0.97299569  1
  O  O296  1  1.01781622  0.37326411  0.48960901  1
  O  O297  1  1.00268795  0.36442366  0.98128740  1
  O  O298  1  1.00666944  0.88695908  0.47954411  1
  O  O299  1  0.98355991  0.86260805  0.99307388  1
  O  O300  1  0.50152283  0.48231720  0.36785726  1
  O  O301  1  0.48912320  0.48670218  0.87653777  1
  O  O302  1  0.49538397  0.98531039  0.37732896  1
  O  O303  1  0.48796548  1.00917407  0.88299631  1
  O  O304  1  1.00216840  0.50421735  0.38533147  1
  O  O305  1  0.99914049  0.48790020  0.87566384  1
  O  O306  1  0.98682361  0.99477482  0.37723166  1
  O  O307  1  0.97550658  0.99154587  0.86426039  1
  O  O308  1  -0.00892117  0.02146687  0.12319492  1
  O  O309  1  -0.01257160  -0.01411963  0.60682568  1
  O  O310  1  -0.04123474  0.59195822  0.16481836  1
  O  O311  1  0.00767116  0.49870127  0.63006797  1
  O  O312  1  0.51088052  -0.01232244  0.11030516  1
  O  O313  1  0.51869221  0.01385496  0.62419916  1
  O  O314  1  0.48799408  0.49480534  0.10509409  1
  O  O315  1  0.45025792  0.49592210  0.54780236  1
  O  O316  1  0.24309715  0.38877312  0.24771355  1
  O  O317  1  0.23915143  0.38131618  0.75829133  1
  O  O318  1  0.23474754  0.86658707  0.25577496  1
  O  O319  1  0.23853421  0.87671749  0.73582742  1
  O  O320  1  0.78497911  0.39308080  0.25048101  1
  O  O321  1  0.73732247  0.36383015  0.75061545  1
  O  O322  1  0.73551085  0.88889628  0.26597639  1
  O  O323  1  0.78635803  0.86324431  0.71583512  1
  O  O324  1  0.24841077  0.13432325  0.26609558  1
  O  O325  1  0.25759727  0.12873871  0.76073128  1
  O  O326  1  0.24856755  0.61123893  0.26072505  1
  O  O327  1  0.25118795  0.61042683  0.75653497  1
  O  O328  1  0.74483769  0.10782497  0.26333026  1
  O  O329  1  0.74896692  0.13992880  0.76335518  1
  O  O330  1  0.75455296  0.60978699  0.25397917  1
  O  O331  1  0.76611300  0.62836197  0.76202114  1
  O  O332  1  0.38396760  0.11391630  0.36576678  1
  O  O333  1  0.36731804  0.12761355  0.87815858  1
  O  O334  1  0.36042863  0.62849030  0.37001406  1
  O  O335  1  0.36311915  0.61172245  0.86431335  1
  O  O336  1  0.86795705  0.11079503  0.37015256  1
  O  O337  1  0.87495540  0.10900211  0.90281498  1
  O  O338  1  0.88589255  0.61237618  0.38068546  1
  O  O339  1  0.87939940  0.61477243  0.86876359  1
  O  O340  1  0.10758169  0.36655216  0.13607932  1
  O  O341  1  0.11927206  0.37870063  0.63753557  1
  O  O342  1  0.11710881  0.86836884  0.14153394  1
  O  O343  1  0.13648595  0.87770713  0.63411937  1
  O  O344  1  0.62308733  0.39982361  0.12088359  1
  O  O345  1  0.65184763  0.37035946  0.60825990  1
  O  O346  1  0.62311783  0.87993781  0.14321520  1
  O  O347  1  0.62998890  0.89512989  0.62793843  1
  O  O348  1  0.13685209  0.26751335  0.25224767  1
  O  O349  1  0.12328006  0.25467791  0.75893329  1
  O  O350  1  0.12845822  0.74472568  0.26540019  1
  O  O351  1  0.13031162  0.75022164  0.76111704  1
  O  O352  1  0.61737030  0.25306723  0.25667182  1
  O  O353  1  0.60669180  0.25502032  0.74453097  1
  O  O354  1  0.63666154  0.75842787  0.26040747  1
  O  O355  1  0.63151159  0.76836418  0.75807923  1
  O  O356  1  0.37897706  0.25231395  0.23625017  1
  O  O357  1  0.38203664  0.24259686  0.73289528  1
  O  O358  1  0.36539298  0.72781965  0.24690653  1
  O  O359  1  0.35691221  0.73146317  0.74209399  1
  O  O360  1  0.81712101  0.26603304  0.15913640  1
  O  O361  1  0.88713908  0.24502689  0.75584496  1
  O  O362  1  0.86436247  0.72772462  0.25242946  1
  O  O363  1  0.88236945  0.73327815  0.76648303  1
  O  O364  1  0.38799378  0.50100449  0.50641457  1
  O  O365  1  0.37664232  0.49266492  0.98750673  1
  O  O366  1  0.37372233  0.98830199  0.47186852  1
  O  O367  1  0.39226184  0.99609420  0.99410306  1
  O  O368  1  0.87763304  0.50428250  0.49887979  1
  O  O369  1  0.87350376  0.50167366  0.98498237  1
  O  O370  1  0.86919567  0.99685365  0.48418440  1
  O  O371  1  0.85354445  0.97844795  0.98841597  1
  O  O372  1  0.15062221  0.00700768  0.00066337  1
  O  O373  1  0.11674789  -0.00317370  0.50114867  1
  O  O374  1  0.12745969  0.51428866  -0.00504897  1
  O  O375  1  0.13286331  0.51249797  0.51173279  1
  O  O376  1  0.62721174  0.01014278  0.01529513  1
  O  O377  1  0.65057618  0.00729606  0.51975334  1
  O  O378  1  0.60917823  0.49884811  -0.00471027  1
  O  O379  1  0.63064337  0.51560036  0.50511661  1
  O  O380  1  0.37732027  0.36905682  0.11205266  1
  O  O381  1  0.38243316  0.36526008  0.62772400  1
  O  O382  1  0.29858223  0.92567357  0.13020052  1
  O  O383  1  0.35982602  0.87033659  0.63285326  1
  O  O384  1  0.91872197  0.36895862  0.12326880  1
  O  O385  1  0.85729640  0.35903925  0.63988867  1
  O  O386  1  0.87715582  0.87700022  0.11042620  1
  O  O387  1  0.84468121  0.86877241  0.66961477  1
  O  O388  1  0.13215785  0.11847506  0.37498245  1
  O  O389  1  0.14784730  0.12941036  0.87566955  1
  O  O390  1  0.12876404  0.63267020  0.37995090  1
  O  O391  1  0.13059110  0.63230694  0.87451837  1
  O  O392  1  0.63306781  0.12907900  0.37361845  1
  O  O393  1  0.62705160  0.12479957  0.89147790  1
  O  O394  1  0.62350101  0.63724644  0.37487990  1
  O  O395  1  0.63595054  0.60496680  0.85561189  1
