# generated using pymatgen
data_V35Zn35O128
_symmetry_space_group_name_H-M   'P 1'
_cell_length_a   16.85301208
_cell_length_b   17.04855863
_cell_length_c   16.98520409
_cell_angle_alpha   89.74739819
_cell_angle_beta   89.70915485
_cell_angle_gamma   90.50056669
_symmetry_Int_Tables_number   1
_chemical_formula_structural   V35Zn35O128
_chemical_formula_sum   'V70 Zn70 O256'
_cell_volume   4879.88393471
_cell_formula_units_Z   2
loop_
 _symmetry_equiv_pos_site_id
 _symmetry_equiv_pos_as_xyz
  1  'x, y, z'
loop_
 _atom_site_type_symbol
 _atom_site_label
 _atom_site_symmetry_multiplicity
 _atom_site_fract_x
 _atom_site_fract_y
 _atom_site_fract_z
 _atom_site_occupancy
  V  V0  1  0.77880689  0.86545976  0.62673107  1
  V  V1  1  0.25394732  0.53352198  0.76298188  1
  V  V2  1  0.50353877  0.76359295  0.26730505  1
  V  V3  1  0.75599694  0.37002132  0.62353827  1
  V  V4  1  0.64448830  0.86370035  0.75357175  1
  V  V5  1  0.51877495  0.63103204  0.13231837  1
  V  V6  1  0.13727690  0.37941454  0.75559261  1
  V  V7  1  -0.00673222  0.12760955  0.10931305  1
  V  V8  1  0.13186962  0.48381090  0.61021389  1
  V  V9  1  -0.00613774  0.50074284  0.01802679  1
  V  V10  1  0.26625049  0.00646077  0.23748719  1
  V  V11  1  0.12446216  -0.02660982  0.58914282  1
  V  V12  1  0.61276884  0.49987056  0.61569681  1
  V  V13  1  0.74742275  0.74202614  -0.02250500  1
  V  V14  1  -0.00137272  0.26343037  0.24134847  1
  V  V15  1  0.10998737  0.88110898  0.24938755  1
  V  V16  1  0.74998647  0.50588863  0.75735472  1
  V  V17  1  0.50177123  0.49498933  0.00834624  1
  V  V18  1  0.50772326  0.37981095  0.39154575  1
  V  V19  1  0.73477211  0.24556485  -0.00077766  1
  V  V20  1  0.34339864  0.76212222  0.61179841  1
  V  V21  1  0.15500611  0.50151642  0.12555494  1
  V  V22  1  0.61860944  0.37804268  0.75397574  1
  V  V23  1  0.12027567  0.00135592  0.11305107  1
  V  V24  1  -0.00550187  0.91607900  0.88016999  1
  V  V25  1  0.12547675  0.64180480  0.50304045  1
  V  V26  1  0.88781938  0.88713852  0.47100374  1
  V  V27  1  0.62408890  0.25177491  0.35432718  1
  V  V28  1  0.63137519  0.13282559  0.51054221  1
  V  V29  1  0.24467469  0.86623777  0.11406022  1
  V  V30  1  0.14366342  0.12762254  0.00127376  1
  V  V31  1  0.86600015  0.12071056  0.24181047  1
  V  V32  1  0.75309689  0.12608073  0.38323715  1
  V  V33  1  0.48280607  0.37825358  0.87425395  1
  V  V34  1  0.37779978  0.86838143  -0.00410039  1
  V  V35  1  0.87724443  0.51176019  0.87447277  1
  V  V36  1  0.63171303  0.00302806  0.13522463  1
  V  V37  1  0.26355773  0.27259516  0.00385811  1
  V  V38  1  0.50945121  0.00457544  -0.00496625  1
  V  V39  1  0.87386649  0.24208100  0.61168860  1
  V  V40  1  0.65500057  0.00454194  0.63424574  1
  V  V41  1  0.49799790  0.10552645  0.63072375  1
  V  V42  1  0.62108227  0.24112872  0.87849300  1
  V  V43  1  0.50777650  0.88542863  0.40804275  1
  V  V44  1  0.73946086  0.85783225  0.14033078  1
  V  V45  1  0.72715305  0.38635305  0.13363142  1
  V  V46  1  0.14201795  0.37769988  0.24261644  1
  V  V47  1  0.25624328  0.61121701  0.38051918  1
  V  V48  1  0.36813828  0.02062623  0.39844843  1
  V  V49  1  0.86964364  0.89690834  0.00347946  1
  V  V50  1  -0.01326199  0.26502775  0.76765082  1
  V  V51  1  0.51433608  0.86090025  0.87155645  1
  V  V52  1  0.37152568  0.61296636  0.25425272  1
  V  V53  1  -0.00706095  0.71667870  0.76084355  1
  V  V54  1  0.25470515  0.73341371  -0.01594639  1
  V  V55  1  0.82309471  0.54159223  0.35767875  1
  V  V56  1  0.12350766  0.62292635  -0.01023412  1
  V  V57  1  0.49992949  0.64741995  0.61905250  1
  V  V58  1  0.86954956  0.38146427  -0.00260469  1
  V  V59  1  0.48953145  0.23809439  0.75106114  1
  V  V60  1  -0.00382531  0.37322620  0.38503024  1
  V  V61  1  0.36054679  0.00396071  0.86583398  1
  V  V62  1  0.86527816  0.25442543  0.12153136  1
  V  V63  1  0.12767849  0.26249447  0.88616380  1
  V  V64  1  -0.01194113  0.60836421  0.61214771  1
  V  V65  1  0.37688906  0.25176988  0.13859511  1
  V  V66  1  0.75324060  0.73759540  0.47223614  1
  V  V67  1  0.10493359  0.70826915  0.32440402  1
  V  V68  1  0.49325323  0.12100186  0.13949603  1
  V  V69  1  0.36810997  0.24754043  0.61914516  1
  Zn  Zn70  1  0.00893646  0.13032103  0.63413275  1
  Zn  Zn71  1  0.46610585  0.51231369  0.49326104  1
  Zn  Zn72  1  0.74471182  -0.01031099  0.26105040  1
  Zn  Zn73  1  0.37384418  0.74519231  0.13210047  1
  Zn  Zn74  1  0.89955698  0.75574174  0.11846934  1
  Zn  Zn75  1  0.62821479  0.62857723  0.95345955  1
  Zn  Zn76  1  0.19253253  0.19478385  0.19047131  1
  Zn  Zn77  1  0.17100358  0.20132073  0.68181814  1
  Zn  Zn78  1  0.06508249  0.68511909  0.15983657  1
  Zn  Zn79  1  0.19271945  0.74282280  0.73612182  1
  Zn  Zn80  1  0.68179741  0.18306527  0.17998408  1
  Zn  Zn81  1  0.69207694  0.18853627  0.69955989  1
  Zn  Zn82  1  0.68860612  0.68780515  0.22856155  1
  Zn  Zn83  1  0.63892953  0.65376196  0.74950344  1
  Zn  Zn84  1  0.32632365  0.31458713  0.31196058  1
  Zn  Zn85  1  0.30876334  0.30198548  0.81192099  1
  Zn  Zn86  1  0.28827694  0.79308599  0.29567715  1
  Zn  Zn87  1  0.34304243  0.82116077  0.79014292  1
  Zn  Zn88  1  0.80756261  0.31633365  0.30933175  1
  Zn  Zn89  1  0.80063252  0.32584131  0.82013209  1
  Zn  Zn90  1  0.82113073  0.80590423  0.31329834  1
  Zn  Zn91  1  0.82971549  0.81800121  0.81083552  1
  Zn  Zn92  1  0.27056784  0.44868454  0.47672420  1
  Zn  Zn93  1  0.19443521  0.44622471  0.93636720  1
  Zn  Zn94  1  0.21113111  0.92434127  0.41287448  1
  Zn  Zn95  1  0.19391918  0.89076367  0.87827939  1
  Zn  Zn96  1  0.69716195  0.42698364  0.44146985  1
  Zn  Zn97  1  0.67862854  0.43494760  0.94035198  1
  Zn  Zn98  1  0.69498012  0.94230726  0.45062619  1
  Zn  Zn99  1  0.68485079  0.91866878  0.95299624  1
  Zn  Zn100  1  0.31859830  0.05652043  0.05583457  1
  Zn  Zn101  1  0.29265936  0.08358805  0.58588812  1
  Zn  Zn102  1  0.32901852  0.56577755  0.05850859  1
  Zn  Zn103  1  0.30229923  0.58591619  0.58389021  1
  Zn  Zn104  1  0.78818094  0.06325094  -0.06267909  1
  Zn  Zn105  1  0.83364634  0.05899536  0.55660592  1
  Zn  Zn106  1  0.79489395  0.56603861  0.06432990  1
  Zn  Zn107  1  0.79456657  0.54650778  0.54705185  1
  Zn  Zn108  1  0.43981174  0.43804266  0.19025205  1
  Zn  Zn109  1  0.39228959  0.45317773  0.64584114  1
  Zn  Zn110  1  0.44069293  0.93070117  0.17680483  1
  Zn  Zn111  1  0.44657912  0.92963651  0.69464010  1
  Zn  Zn112  1  0.91026322  0.44543094  0.19222793  1
  Zn  Zn113  1  0.94186539  0.43628342  0.68948865  1
  Zn  Zn114  1  0.93144782  0.94339522  0.17533670  1
  Zn  Zn115  1  0.98379544  0.92303350  0.66733529  1
  Zn  Zn116  1  0.08116278  0.08869239  0.28531156  1
  Zn  Zn117  1  0.04182192  0.09092878  0.82940398  1
  Zn  Zn118  1  0.06924067  0.53535823  0.32160872  1
  Zn  Zn119  1  0.05769241  0.55625846  0.81233312  1
  Zn  Zn120  1  0.55721801  0.05695400  0.32200997  1
  Zn  Zn121  1  0.62186192  0.03470342  0.83915905  1
  Zn  Zn122  1  0.55870299  0.55573805  0.30810175  1
  Zn  Zn123  1  0.49383677  0.57619305  0.81528041  1
  Zn  Zn124  1  0.45025140  0.18823909  0.44504099  1
  Zn  Zn125  1  0.43248660  0.18050017  0.93882462  1
  Zn  Zn126  1  0.42595692  0.70492062  0.44868445  1
  Zn  Zn127  1  0.44487078  0.67985033  0.95131524  1
  Zn  Zn128  1  0.91771515  0.22306145  0.41195066  1
  Zn  Zn129  1  0.92749046  0.20072634  0.93287124  1
  Zn  Zn130  1  0.93969048  0.69536864  0.44066669  1
  Zn  Zn131  1  0.93263960  0.68465414  0.94991676  1
  Zn  Zn132  1  0.06192625  0.32049606  0.06482055  1
  Zn  Zn133  1  0.06328742  0.30222435  0.57365844  1
  Zn  Zn134  1  0.06796407  0.82350381  0.02665257  1
  Zn  Zn135  1  0.04627200  0.79737872  0.57162672  1
  Zn  Zn136  1  0.54885671  0.31131431  0.06414880  1
  Zn  Zn137  1  0.56179175  0.31083030  0.56909931  1
  Zn  Zn138  1  0.56733306  0.80727724  0.06591856  1
  Zn  Zn139  1  0.58551375  0.81762486  0.56582404  1
  O  O140  1  0.11524482  0.12742100  0.11154084  1
  O  O141  1  0.09736411  0.19637963  0.59648796  1
  O  O142  1  0.12953978  0.60263056  0.11226937  1
  O  O143  1  0.11662850  0.60179359  0.60071134  1
  O  O144  1  0.61144077  0.11071994  0.12341722  1
  O  O145  1  0.62985004  0.11594022  0.63272378  1
  O  O146  1  0.61505735  0.62343307  0.15190199  1
  O  O147  1  0.61117683  0.60512672  0.63004003  1
  O  O148  1  0.41053255  0.36904416  0.36199416  1
  O  O149  1  0.38484525  0.36243352  0.87225272  1
  O  O150  1  0.37706870  0.90418095  0.38253703  1
  O  O151  1  0.39663911  0.88024956  0.87994704  1
  O  O152  1  0.89394325  0.34049441  0.38005656  1
  O  O153  1  0.86110241  0.38973418  0.89355509  1
  O  O154  1  0.88346137  0.88193287  0.36940206  1
  O  O155  1  0.88642770  0.87963210  0.89382087  1
  O  O156  1  0.26590672  0.00980155  0.34947520  1
  O  O157  1  0.26233610  -0.01515788  0.88228938  1
  O  O158  1  0.25573216  0.51139907  0.38045515  1
  O  O159  1  0.25459561  0.50473365  0.86082594  1
  O  O160  1  0.73645304  0.02243530  0.37059381  1
  O  O161  1  0.71973484  -0.00211079  0.88245442  1
  O  O162  1  0.71602219  0.56855879  0.35384065  1
  O  O163  1  0.74830141  0.49494600  0.86289778  1
  O  O164  1  0.25394987  0.49677331  0.11437545  1
  O  O165  1  0.22857700  0.51246904  0.64593129  1
  O  O166  1  0.24438678  0.98679564  0.11728369  1
  O  O167  1  0.20838321  1.01846558  0.62577588  1
  O  O168  1  0.74498544  0.48545905  0.12467463  1
  O  O169  1  0.74261848  0.48360349  0.63543774  1
  O  O170  1  0.73286358  0.99492062  0.13025850  1
  O  O171  1  0.75557255  1.01142122  0.63412136  1
  O  O172  1  -0.01904371  0.36475962  0.24309589  1
  O  O173  1  0.01455265  0.36902999  0.75533047  1
  O  O174  1  0.01082063  0.89024110  0.23626904  1
  O  O175  1  -0.00087706  0.91385837  0.78048827  1
  O  O176  1  0.52781056  0.39827754  0.26455295  1
  O  O177  1  0.50440106  0.35611723  0.76265766  1
  O  O178  1  0.49407798  0.86152529  0.24624738  1
  O  O179  1  0.52121655  0.87271638  0.76644514  1
  O  O180  1  0.49698824  0.11512967  0.23777580  1
  O  O181  1  0.51287159  0.13789186  0.73902821  1
  O  O182  1  0.49348385  0.63707729  0.25481192  1
  O  O183  1  0.48559542  0.60513949  0.70921458  1
  O  O184  1  0.98689992  0.14006522  0.23174952  1
  O  O185  1  1.00622752  0.15935329  0.74855712  1
  O  O186  1  1.05819841  0.63577514  0.26438856  1
  O  O187  1  0.99901199  0.61071421  0.72998815  1
  O  O188  1  0.36594809  0.24999670  0.00235142  1
  O  O189  1  0.38252988  0.24000900  0.52044215  1
  O  O190  1  0.36904938  0.74863780  0.00724673  1
  O  O191  1  0.36342847  0.77632578  0.51424289  1
  O  O192  1  0.85685899  0.26173890  0.00233728  1
  O  O193  1  0.87943398  0.24923633  0.51404874  1
  O  O194  1  0.85712268  0.74889606  0.00698685  1
  O  O195  1  0.86141385  0.76862589  0.48147310  1
  O  O196  1  0.15871791  0.15899175  0.47493502  1
  O  O197  1  0.13791971  0.25244800  1.00497701  1
  O  O198  1  0.12711701  0.73896114  0.51135922  1
  O  O199  1  0.14063010  0.72968528  0.99671218  1
  O  O200  1  0.63249344  0.23332678  0.51857288  1
  O  O201  1  0.62501722  0.25524421  0.99029099  1
  O  O202  1  0.65930300  0.76558007  0.50179248  1
  O  O203  1  0.64410821  0.75587315  0.99625462  1
  O  O204  1  0.49115231  0.22888222  0.11819692  1
  O  O205  1  0.48981528  0.24730073  0.64104653  1
  O  O206  1  0.50245070  0.74095891  0.14145079  1
  O  O207  1  0.51972302  0.74424622  0.62559465  1
  O  O208  1  0.98163958  0.24928185  0.12140307  1
  O  O209  1  0.97005803  0.27156930  0.64699063  1
  O  O210  1  1.00882807  0.75088011  0.09355155  1
  O  O211  1  0.98522471  0.71055863  0.62195074  1
  O  O212  1  0.00957170  0.24814043  0.34286483  1
  O  O213  1  0.00999874  0.25680367  0.87462424  1
  O  O214  1  0.03151760  0.74451566  0.38009527  1
  O  O215  1  -0.00084506  0.71018131  0.86214977  1
  O  O216  1  0.52055894  0.25724287  0.38340007  1
  O  O217  1  0.50412276  0.25242125  0.87201435  1
  O  O218  1  0.48450641  0.77832772  0.37644303  1
  O  O219  1  0.50538516  0.76518234  0.89096372  1
  O  O220  1  0.22914569  0.13991309  0.47358830  1
  O  O221  1  0.24456967  0.13441576  1.00524992  1
  O  O222  1  0.23937195  0.62495347  0.49076321  1
  O  O223  1  0.24618772  0.62909512  1.00648885  1
  O  O224  1  0.75429509  0.12443819  0.48605188  1
  O  O225  1  0.74622246  0.14827356  1.00163467  1
  O  O226  1  0.75923699  0.64235238  0.50094882  1
  O  O227  1  0.73925656  0.63694509  0.99563179  1
  O  O228  1  0.25689340  0.37082201  0.00092432  1
  O  O229  1  0.23976905  0.33158866  0.46504761  1
  O  O230  1  0.26086670  0.85477875  -0.00718223  1
  O  O231  1  0.30736523  0.85701927  0.39417693  1
  O  O232  1  0.74905433  0.37084920  0.01063818  1
  O  O233  1  0.73981499  0.35924193  0.52750193  1
  O  O234  1  0.75707228  0.85712450  0.01584493  1
  O  O235  1  0.77205885  0.88067625  0.51253783  1
  O  O236  1  0.13507672  0.48980019  0.23397029  1
  O  O237  1  0.13423559  0.48654436  0.75797517  1
  O  O238  1  0.13482761  0.99632257  0.22942992  1
  O  O239  1  0.14604741  1.04683539  0.77096270  1
  O  O240  1  0.58471698  0.45312519  0.25096705  1
  O  O241  1  0.63223237  0.48705661  0.73969037  1
  O  O242  1  0.62084064  1.00182508  0.23972752  1
  O  O243  1  0.62955678  0.98618184  0.73656554  1
  O  O244  1  0.36550508  -0.00961874  0.23504793  1
  O  O245  1  0.38061034  -0.01178781  0.76812617  1
  O  O246  1  0.39447879  0.51518755  0.25866929  1
  O  O247  1  0.35154437  0.51443130  0.73277442  1
  O  O248  1  0.87186212  0.01988236  0.24046686  1
  O  O249  1  0.83461520  0.12856335  0.78823504  1
  O  O250  1  0.85043683  0.49055128  0.27563544  1
  O  O251  1  0.86320241  0.49022251  0.76506901  1
  O  O252  1  0.10405241  0.37449294  0.33772244  1
  O  O253  1  0.12886325  0.37071337  0.87228145  1
  O  O254  1  0.12417492  0.88448053  0.34709087  1
  O  O255  1  0.08626096  0.87309654  0.91456727  1
  O  O256  1  0.62860437  0.35774716  0.38034905  1
  O  O257  1  0.61172319  0.36576570  0.86981775  1
  O  O258  1  0.60648559  0.89645151  0.38955842  1
  O  O259  1  0.62672372  0.86832230  0.86336728  1
  O  O260  1  0.38876831  0.12638104  0.11611955  1
  O  O261  1  0.39751893  0.11741783  0.62921960  1
  O  O262  1  0.38799235  0.62426948  0.14220184  1
  O  O263  1  0.37817498  0.66275006  0.62584757  1
  O  O264  1  0.87367371  0.13963545  0.13128814  1
  O  O265  1  0.88652164  0.13845748  0.62167163  1
  O  O266  1  0.86059692  0.63417654  0.14272496  1
  O  O267  1  0.89381210  0.57673935  0.59961299  1
  O  O268  1  0.26527406  0.24882443  0.11404988  1
  O  O269  1  0.27354679  0.19826240  0.63250548  1
  O  O270  1  0.24926630  0.76455574  0.11736581  1
  O  O271  1  0.24449395  0.75398849  0.62929721  1
  O  O272  1  0.74584948  0.25658291  0.11295017  1
  O  O273  1  0.76926816  0.25630045  0.64656570  1
  O  O274  1  0.73421923  0.75771804  0.14457298  1
  O  O275  1  0.77829454  0.77025880  0.62511871  1
  O  O276  1  0.26431997  0.28240721  0.41296673  1
  O  O277  1  0.24145346  0.25385593  0.89449281  1
  O  O278  1  0.21204661  0.72060038  0.35059364  1
  O  O279  1  0.26357442  0.73191427  0.88893726  1
  O  O280  1  0.73557006  0.23682239  0.36760682  1
  O  O281  1  0.73221877  0.26092220  0.88881148  1
  O  O282  1  0.74696975  0.73934534  0.36855969  1
  O  O283  1  0.75763426  0.75472626  0.87941594  1
  O  O284  1  -0.00814356  0.14014646  0.00836411  1
  O  O285  1  0.00917908  0.10784452  0.44202970  1
  O  O286  1  0.01456200  0.61371100  0.00125170  1
  O  O287  1  0.01398021  0.62240377  0.50081055  1
  O  O288  1  0.50112254  0.10536531  -0.00063751  1
  O  O289  1  0.51661770  0.12706186  0.52545737  1
  O  O290  1  0.52314065  0.63971926  0.02619179  1
  O  O291  1  0.48383259  0.62568186  0.51436877  1
  O  O292  1  0.50310698  0.37045598  0.49266415  1
  O  O293  1  0.49618081  0.38870470  0.99096583  1
  O  O294  1  0.50447647  0.87758763  0.50669602  1
  O  O295  1  0.49533552  0.87631549  0.99794116  1
  O  O296  1  1.02399771  0.34712868  0.47795227  1
  O  O297  1  0.98112013  0.38590063  1.00937102  1
  O  O298  1  0.98088769  0.86337651  0.50443903  1
  O  O299  1  0.97183792  0.89343680  1.01228994  1
  O  O300  1  0.52059581  0.48788717  0.39421285  1
  O  O301  1  0.49279389  0.47783911  0.86769840  1
  O  O302  1  0.48161761  0.99146593  0.38271229  1
  O  O303  1  0.51818191  0.98557956  0.89054022  1
  O  O304  1  0.99168762  0.47356809  0.37700264  1
  O  O305  1  0.98124006  0.50235111  0.88581851  1
  O  O306  1  1.02417544  1.05466280  0.39249637  1
  O  O307  1  0.99781567  1.01420314  0.89743191  1
  O  O308  1  0.00955753  0.01707173  0.12471293  1
  O  O309  1  0.03256609  0.02171939  0.61637981  1
  O  O310  1  -0.01947030  0.50329419  0.11816182  1
  O  O311  1  0.02209819  0.49436104  0.62597515  1
  O  O312  1  0.50300532  0.00615596  0.11578222  1
  O  O313  1  0.50991460  0.00523047  0.63451312  1
  O  O314  1  0.49777523  0.51093553  0.11300139  1
  O  O315  1  0.51011122  0.48072572  0.61228072  1
  O  O316  1  0.23948372  0.36038016  0.25340189  1
  O  O317  1  0.23834359  0.37007795  0.75391742  1
  O  O318  1  0.23674598  0.88252301  0.22978160  1
  O  O319  1  0.23261051  0.83646741  0.78851708  1
  O  O320  1  0.74454518  0.36581660  0.23178563  1
  O  O321  1  0.73561743  0.37993924  0.74599489  1
  O  O322  1  0.75914638  0.87740981  0.24087727  1
  O  O323  1  0.75166999  0.87540401  0.74386214  1
  O  O324  1  0.26141275  0.10223455  0.21550526  1
  O  O325  1  0.19811701  0.10057041  0.75965575  1
  O  O326  1  0.26878134  0.61181212  0.26305619  1
  O  O327  1  0.23097320  0.63038897  0.75685222  1
  O  O328  1  0.75821587  0.12616717  0.24902560  1
  O  O329  1  0.75586365  0.13190958  0.78808566  1
  O  O330  1  0.83435007  0.65607429  0.21894837  1
  O  O331  1  0.74349238  0.60270338  0.74221058  1
  O  O332  1  0.39142064  0.11651396  0.37882993  1
  O  O333  1  0.37499212  0.10269710  0.88034605  1
  O  O334  1  0.36167394  0.63574918  0.37574481  1
  O  O335  1  0.39516184  0.65255663  0.84503646  1
  O  O336  1  0.85994172  0.13806750  0.35711262  1
  O  O337  1  0.86681026  0.11870593  0.86746652  1
  O  O338  1  0.88520433  0.61734126  0.37562292  1
  O  O339  1  0.86510881  0.60836795  0.88190332  1
  O  O340  1  0.12327248  0.39632838  0.12755590  1
  O  O341  1  0.12664389  0.37760497  0.64297456  1
  O  O342  1  0.12892765  0.88834408  0.11120630  1
  O  O343  1  0.09695059  0.88172046  0.63095859  1
  O  O344  1  0.62784779  0.37127408  0.11786939  1
  O  O345  1  0.62945565  0.37522088  0.63844314  1
  O  O346  1  0.63501931  0.88187777  0.12815020  1
  O  O347  1  0.65273712  0.88912794  0.63212011  1
  O  O348  1  0.10268824  0.27571401  0.21060362  1
  O  O349  1  0.12280052  0.26477001  0.76714653  1
  O  O350  1  0.11596061  0.77241505  0.23678920  1
  O  O351  1  0.08040065  0.76178765  0.73560757  1
  O  O352  1  0.61864683  0.24333994  0.25638579  1
  O  O353  1  0.61953193  0.25706958  0.76313919  1
  O  O354  1  0.60266180  0.75163241  0.26954566  1
  O  O355  1  0.63696158  0.76744104  0.73636375  1
  O  O356  1  0.36459536  0.23761005  0.23660734  1
  O  O357  1  0.38649903  0.23755446  0.75360366  1
  O  O358  1  0.38058295  0.73858599  0.25067325  1
  O  O359  1  0.39694550  0.70917002  0.79158467  1
  O  O360  1  0.87745052  0.24511450  0.23614699  1
  O  O361  1  0.88631401  0.26634590  0.77746110  1
  O  O362  1  0.87555022  0.72955500  0.23555461  1
  O  O363  1  0.90798266  0.77070060  0.74664104  1
  O  O364  1  0.35837309  0.49227694  0.53656652  1
  O  O365  1  0.41289446  0.54269186  0.98123048  1
  O  O366  1  0.34229456  1.01986681  0.49469466  1
  O  O367  1  0.38886847  0.98560485  0.98914645  1
  O  O368  1  0.80247392  0.48409021  0.44360797  1
  O  O369  1  0.87367519  0.50035316  0.99592718  1
  O  O370  1  0.88271765  0.98857080  0.48776033  1
  O  O371  1  0.85064392  0.99328039  1.00605746  1
  O  O372  1  0.13026832  0.02426337  0.00590400  1
  O  O373  1  0.14203746  -0.03585324  0.49090151  1
  O  O374  1  0.11810784  0.50010059  0.01159105  1
  O  O375  1  0.15461341  0.46872204  0.51478702  1
  O  O376  1  0.61227001  -0.01301728  0.01826007  1
  O  O377  1  0.63888623  0.01494607  0.52550735  1
  O  O378  1  0.60309583  0.51298215  -0.01778006  1
  O  O379  1  0.63919179  0.49411604  0.51911411  1
  O  O380  1  0.39815812  0.35110149  0.13428910  1
  O  O381  1  0.35730933  0.34446553  0.63653055  1
  O  O382  1  0.36642178  0.87206899  0.10702084  1
  O  O383  1  0.38271134  0.83531344  0.67803682  1
  O  O384  1  0.85754556  0.36674309  0.11736239  1
  O  O385  1  0.85999644  0.37557691  0.63066770  1
  O  O386  1  0.85764083  0.87350398  0.11879386  1
  O  O387  1  0.87589582  0.89847938  0.63575567  1
  O  O388  1  0.16133729  0.16475495  0.29675703  1
  O  O389  1  0.11788093  0.14697432  0.89999674  1
  O  O390  1  0.13041072  0.61029618  0.39308074  1
  O  O391  1  0.12762669  0.60501943  0.89301787  1
  O  O392  1  0.62801637  0.13622863  0.38711107  1
  O  O393  1  0.61726798  0.14383336  0.87218835  1
  O  O394  1  0.67362445  0.58715161  0.28480852  1
  O  O395  1  0.58904865  0.62963294  0.84840831  1
