# generated using pymatgen
data_V35Zn35O128
_symmetry_space_group_name_H-M   'P 1'
_cell_length_a   16.88482578
_cell_length_b   16.90930912
_cell_length_c   16.90308472
_cell_angle_alpha   89.95228088
_cell_angle_beta   90.07392582
_cell_angle_gamma   89.67687364
_symmetry_Int_Tables_number   1
_chemical_formula_structural   V35Zn35O128
_chemical_formula_sum   'V70 Zn70 O256'
_cell_volume   4825.92973440
_cell_formula_units_Z   2
loop_
 _symmetry_equiv_pos_site_id
 _symmetry_equiv_pos_as_xyz
  1  'x, y, z'
loop_
 _atom_site_type_symbol
 _atom_site_label
 _atom_site_symmetry_multiplicity
 _atom_site_fract_x
 _atom_site_fract_y
 _atom_site_fract_z
 _atom_site_occupancy
  V  V0  1  0.50868461  0.00667518  0.49624257  1
  V  V1  1  0.25303321  0.00021589  0.74946360  1
  V  V2  1  0.74901411  0.62996160  0.37122647  1
  V  V3  1  0.86818380  0.86693369  0.00511303  1
  V  V4  1  0.51308971  0.12763193  0.62508910  1
  V  V5  1  0.11237720  0.25388411  0.87037186  1
  V  V6  1  0.12884787  0.39048909  0.25142407  1
  V  V7  1  0.50245818  0.49948910  0.47825572  1
  V  V8  1  0.63217573  0.63259319  0.00087962  1
  V  V9  1  0.74149394  0.23407335  0.50363289  1
  V  V10  1  0.38355787  0.75308479  0.14919551  1
  V  V11  1  0.63051890  -0.00928743  0.63749285  1
  V  V12  1  0.50314007  0.76429357  0.73727229  1
  V  V13  1  0.25397903  0.50914567  0.76361018  1
  V  V14  1  0.38271289  0.13596243  0.25637063  1
  V  V15  1  0.23757041  0.61667304  0.37136321  1
  V  V16  1  0.24559605  0.37860296  0.12798400  1
  V  V17  1  0.86991393  0.50058321  0.36803851  1
  V  V18  1  0.12268986  0.12384285  0.49817884  1
  V  V19  1  0.00182272  0.50539192  0.49586646  1
  V  V20  1  0.25818530  0.87814802  0.13247599  1
  V  V21  1  -0.00709705  -0.00917542  0.49017444  1
  V  V22  1  0.59921824  0.74495248  0.37227369  1
  V  V23  1  0.00468621  0.00178363  0.02864224  1
  V  V24  1  0.37851326  0.38532136  0.49234365  1
  V  V25  1  0.80462156  0.08202581  0.80487026  1
  V  V26  1  0.37628115  0.25502298  0.62792264  1
  V  V27  1  0.74636328  0.48787936  0.23679985  1
  V  V28  1  0.38648480  0.86641475  0.50067020  1
  V  V29  1  0.36696125  0.38728468  -0.00912561  1
  V  V30  1  0.64737691  -0.00755732  0.12676547  1
  V  V31  1  -0.02095383  0.63054491  0.62680760  1
  V  V32  1  0.37355780  0.24566285  0.11147243  1
  V  V33  1  0.85724477  0.00258623  0.36760127  1
  V  V34  1  -0.00223840  0.37648094  0.37207113  1
  V  V35  1  0.49619553  0.10952432  0.12221533  1
  V  V36  1  0.23860533  0.37701189  0.63101943  1
  V  V37  1  0.59842480  0.37423517  0.25516877  1
  V  V38  1  0.25469312  0.86860173  0.62285411  1
  V  V39  1  0.38376053  0.86469072  -0.01397102  1
  V  V40  1  0.51740497  0.25482346  0.75968849  1
  V  V41  1  0.86390537  0.86212305  0.50424767  1
  V  V42  1  0.12191293  -0.00057785  0.62512611  1
  V  V43  1  0.40150759  0.00368478  0.87773820  1
  V  V44  1  -0.01503952  0.24417067  0.24244159  1
  V  V45  1  0.50884644  0.38318352  0.88213903  1
  V  V46  1  0.38809702  0.62835742  0.74523589  1
  V  V47  1  0.12400584  0.24794845  0.37007462  1
  V  V48  1  0.62264669  0.62273324  0.51260212  1
  V  V49  1  0.23181538  0.74940276  0.49131573  1
  V  V50  1  -0.01364259  0.13478189  0.62605954  1
  V  V51  1  0.25437169  0.12278933  0.37593065  1
  V  V52  1  0.12868506  0.51507356  0.62689278  1
  V  V53  1  0.75155723  0.85758700  0.63997908  1
  V  V54  1  0.37627232  0.12797526  0.74945023  1
  V  V55  1  0.49639534  0.61765503  0.11468200  1
  V  V56  1  0.61334339  0.76448282  0.87721404  1
  V  V57  1  0.38053058  0.60664491  0.26424975  1
  V  V58  1  0.25119306  0.25209850  0.50175261  1
  V  V59  1  0.76110411  0.63137250  0.87037729  1
  V  V60  1  0.00450862  0.50026133  -0.00259627  1
  V  V61  1  0.37891402  0.00066645  0.37609786  1
  V  V62  1  -0.00560380  0.88864405  0.86958649  1
  V  V63  1  0.61784458  0.24138343  0.37243507  1
  V  V64  1  0.13844886  0.74259964  0.87529676  1
  V  V65  1  -0.01384275  0.74652515  0.75143173  1
  V  V66  1  0.23964267  0.12578930  0.89334300  1
  V  V67  1  0.86268219  0.36873727  0.50578809  1
  V  V68  1  0.61802385  0.87436537  0.26249682  1
  V  V69  1  0.63890685  0.13032077  0.00590169  1
  Zn  Zn70  1  0.61947859  0.47810938  0.10550203  1
  Zn  Zn71  1  0.12358959  0.87356032  0.75078911  1
  Zn  Zn72  1  0.87716650  0.70154210  0.17656418  1
  Zn  Zn73  1  0.05559277  0.82809032  0.34335856  1
  Zn  Zn74  1  0.75194570  0.84244694  0.13574716  1
  Zn  Zn75  1  0.20574809  0.01337327  0.22584335  1
  Zn  Zn76  1  0.18962636  0.18701406  0.18111961  1
  Zn  Zn77  1  0.18453091  0.18797843  0.68792556  1
  Zn  Zn78  1  0.20973011  0.69378862  0.18521021  1
  Zn  Zn79  1  0.18587293  0.69104878  0.69240220  1
  Zn  Zn80  1  0.66103486  0.21599982  0.16193750  1
  Zn  Zn81  1  0.72234214  0.20620737  0.70501194  1
  Zn  Zn82  1  0.68084810  0.68342769  0.19370403  1
  Zn  Zn83  1  0.68664370  0.68154681  0.70036111  1
  Zn  Zn84  1  0.31148878  0.31539813  0.31231685  1
  Zn  Zn85  1  0.29921560  0.31069431  0.81316295  1
  Zn  Zn86  1  0.31471036  0.81494455  0.32053261  1
  Zn  Zn87  1  0.32494812  0.81190695  0.81039473  1
  Zn  Zn88  1  0.80193703  0.30952774  0.31773785  1
  Zn  Zn89  1  0.92922776  0.21057118  0.78416846  1
  Zn  Zn90  1  0.81145867  0.81917558  0.31431861  1
  Zn  Zn91  1  0.80360619  0.81265521  0.82397063  1
  Zn  Zn92  1  0.18684157  0.43907648  0.44172625  1
  Zn  Zn93  1  0.18936170  0.42073188  0.93299014  1
  Zn  Zn94  1  0.19283236  0.93970252  0.44256593  1
  Zn  Zn95  1  0.19341836  0.93682895  0.93746663  1
  Zn  Zn96  1  0.68302197  0.43429343  0.43176714  1
  Zn  Zn97  1  0.67488164  0.46886254  0.89967353  1
  Zn  Zn98  1  0.68867441  0.93010820  0.44099775  1
  Zn  Zn99  1  0.68507359  0.94421133  0.93517820  1
  Zn  Zn100  1  0.31609546  0.05200279  0.06103202  1
  Zn  Zn101  1  0.31737370  0.06150102  0.56281947  1
  Zn  Zn102  1  0.31763304  0.55821695  0.07479304  1
  Zn  Zn103  1  0.31328382  0.57098398  0.56258272  1
  Zn  Zn104  1  0.81938669  0.05604589  -0.03070319  1
  Zn  Zn105  1  0.80730470  0.05781393  0.56107554  1
  Zn  Zn106  1  0.79912693  0.55505734  0.03767572  1
  Zn  Zn107  1  0.80705436  0.55895348  0.55657897  1
  Zn  Zn108  1  0.43237519  0.43594992  0.18247637  1
  Zn  Zn109  1  0.43223125  0.43387669  0.69763080  1
  Zn  Zn110  1  0.43576877  0.93389108  0.19389515  1
  Zn  Zn111  1  0.43989855  0.94075289  0.68376514  1
  Zn  Zn112  1  0.93350073  0.53877378  0.17484738  1
  Zn  Zn113  1  0.95042837  0.43006741  0.67109026  1
  Zn  Zn114  1  0.92623634  0.90023275  0.19779680  1
  Zn  Zn115  1  0.92568110  0.94378871  0.69217845  1
  Zn  Zn116  1  0.03434458  0.06855690  0.19273966  1
  Zn  Zn117  1  0.06317152  0.07127109  0.80634495  1
  Zn  Zn118  1  0.04171807  0.65407698  0.30056247  1
  Zn  Zn119  1  0.06671328  0.56623651  0.80867348  1
  Zn  Zn120  1  0.56771242  0.06299174  0.30642744  1
  Zn  Zn121  1  0.60462819  0.07113647  0.81454016  1
  Zn  Zn122  1  0.56457185  0.56352603  0.30423682  1
  Zn  Zn123  1  0.56082041  0.56549963  0.81241817  1
  Zn  Zn124  1  0.44226392  0.19203383  0.44092829  1
  Zn  Zn125  1  0.44269693  0.18310426  0.93718623  1
  Zn  Zn126  1  0.43253875  0.67783519  0.44779815  1
  Zn  Zn127  1  0.43370768  0.68019512  0.92335607  1
  Zn  Zn128  1  0.93103627  0.18427563  0.43138891  1
  Zn  Zn129  1  0.95000353  0.17952934  0.95229172  1
  Zn  Zn130  1  0.93283794  0.68895319  0.43970594  1
  Zn  Zn131  1  0.94461477  0.70089986  0.93983724  1
  Zn  Zn132  1  0.06217663  0.30476663  0.06284004  1
  Zn  Zn133  1  0.06071860  0.31433495  0.55867950  1
  Zn  Zn134  1  0.09293246  0.84632569  0.03061793  1
  Zn  Zn135  1  0.05857702  0.81226226  0.56872378  1
  Zn  Zn136  1  0.55008204  0.31027989  0.06342778  1
  Zn  Zn137  1  0.56365462  0.31512937  0.55955134  1
  Zn  Zn138  1  0.55634932  0.81708424  0.06468402  1
  Zn  Zn139  1  0.57044795  0.81008113  0.56138842  1
  O  O140  1  0.14101960  0.08925190  0.16633546  1
  O  O141  1  0.12465544  0.11777080  0.61169026  1
  O  O142  1  0.17292883  0.63667624  0.08205106  1
  O  O143  1  0.12151151  0.61605019  0.62073214  1
  O  O144  1  0.60969464  0.10500849  0.13485093  1
  O  O145  1  0.61335560  0.11227527  0.62921231  1
  O  O146  1  0.60457239  0.63480857  0.11783235  1
  O  O147  1  0.63462508  0.62502051  0.61010332  1
  O  O148  1  0.36403071  0.37487636  0.39452217  1
  O  O149  1  0.36526589  0.36729925  0.88971778  1
  O  O150  1  0.37239733  0.88649973  0.39285386  1
  O  O151  1  0.37812428  0.89392474  0.87767262  1
  O  O152  1  0.88124535  0.38374248  0.38254861  1
  O  O153  1  0.89733927  0.33203397  0.78317540  1
  O  O154  1  0.86601129  0.88222741  0.39887240  1
  O  O155  1  0.89024699  0.86727141  0.87840028  1
  O  O156  1  0.26570448  0.01440319  0.39111710  1
  O  O157  1  0.25399678  0.01034431  0.86271533  1
  O  O158  1  0.24805891  0.51791320  0.38899748  1
  O  O159  1  0.24014238  0.49528828  0.86073737  1
  O  O160  1  0.75608571  -0.00539402  0.37668726  1
  O  O161  1  0.75370731  0.01602411  0.87676903  1
  O  O162  1  0.75616137  0.50089289  0.36829354  1
  O  O163  1  0.76707028  0.53287375  0.92062582  1
  O  O164  1  0.25578752  0.47823205  0.13092182  1
  O  O165  1  0.23652306  0.49660322  0.61896243  1
  O  O166  1  0.28020363  0.98436673  0.14176421  1
  O  O167  1  0.24339579  0.99422076  0.62657826  1
  O  O168  1  0.74469804  0.50337014  0.13477184  1
  O  O169  1  0.75026523  0.49405056  0.63679821  1
  O  O170  1  0.74225932  1.00112720  0.13330043  1
  O  O171  1  0.73171055  1.00135673  0.62458800  1
  O  O172  1  0.01648564  0.36388845  0.26422121  1
  O  O173  1  -0.04406148  0.38136242  0.77350474  1
  O  O174  1  0.04111233  0.84695154  0.22317023  1
  O  O175  1  -0.00383703  0.86705251  0.75228726  1
  O  O176  1  0.49876808  0.38044641  0.25740228  1
  O  O177  1  0.49067067  0.36067445  0.76733156  1
  O  O178  1  0.51803874  0.86804503  0.23990889  1
  O  O179  1  0.49413477  0.86410506  0.74608176  1
  O  O180  1  0.49034643  0.12017953  0.23857134  1
  O  O181  1  0.49240989  0.14102072  0.74372423  1
  O  O182  1  0.48594228  0.62109206  0.24111091  1
  O  O183  1  0.49239052  0.62269361  0.74409220  1
  O  O184  1  0.99042091  0.14385222  0.26085992  1
  O  O185  1  0.99676003  0.12660655  0.73064848  1
  O  O186  1  0.96255689  0.63113517  0.22660113  1
  O  O187  1  0.99820250  0.63228167  0.73780732  1
  O  O188  1  0.37050562  0.24538696  0.01002067  1
  O  O189  1  0.37361058  0.26063340  0.51095290  1
  O  O190  1  0.37600435  0.76467063  -0.01917020  1
  O  O191  1  0.37602129  0.76498496  0.49959838  1
  O  O192  1  0.88665943  0.25705845  0.01804491  1
  O  O193  1  0.85828018  0.26171572  0.48625696  1
  O  O194  1  0.89427175  0.76788195  0.01363424  1
  O  O195  1  0.87687322  0.76315059  0.50572192  1
  O  O196  1  0.12991379  0.24384346  0.49152704  1
  O  O197  1  0.11097655  0.25101647  0.97769143  1
  O  O198  1  0.13252005  0.76189337  0.49385332  1
  O  O199  1  0.11902241  0.75226130  0.97632493  1
  O  O200  1  0.63085070  0.25663951  0.48939971  1
  O  O201  1  0.63095547  0.23002576  1.04761281  1
  O  O202  1  0.61549252  0.73166278  0.48782500  1
  O  O203  1  0.60334524  0.74284016  0.98860374  1
  O  O204  1  0.47714424  0.24155204  0.13019735  1
  O  O205  1  0.49447558  0.24875409  0.63362874  1
  O  O206  1  0.48485764  0.73850219  0.12036150  1
  O  O207  1  0.51200366  0.74947568  0.63756126  1
  O  O208  1  1.00295331  0.25362982  0.14338274  1
  O  O209  1  1.00309512  0.23443170  0.61350642  1
  O  O210  1  1.05963495  0.77956839  0.18367688  1
  O  O211  1  1.00005210  0.73664903  0.63260413  1
  O  O212  1  0.00813397  0.25826481  0.37826110  1
  O  O213  1  0.00396690  0.23355476  0.86742397  1
  O  O214  1  0.00488575  0.73721266  0.37116151  1
  O  O215  1  0.00869002  0.75495429  0.85901208  1
  O  O216  1  0.51625350  0.25310889  0.38473537  1
  O  O217  1  0.49864715  0.25065035  0.86317853  1
  O  O218  1  0.50097714  0.74362049  0.37723398  1
  O  O219  1  0.50810910  0.74631506  0.86156789  1
  O  O220  1  0.24588690  0.13175185  0.49780782  1
  O  O221  1  0.25192775  0.11672791  0.99155700  1
  O  O222  1  0.25355432  0.64233258  0.48931622  1
  O  O223  1  0.22564623  0.62219579  1.02900261  1
  O  O224  1  0.74798822  0.13521611  0.49926266  1
  O  O225  1  0.73948923  0.12460388  1.01126296  1
  O  O226  1  0.72982820  0.60923231  0.48470915  1
  O  O227  1  0.73053129  0.65015025  1.00951204  1
  O  O228  1  0.25632018  0.37164165  0.01472119  1
  O  O229  1  0.25897143  0.37277622  0.51128562  1
  O  O230  1  0.27760261  0.89463036  0.01199595  1
  O  O231  1  0.25835375  0.86550522  0.50381052  1
  O  O232  1  0.78764939  0.34540202  0.00209430  1
  O  O233  1  0.76231228  0.38490225  0.50102756  1
  O  O234  1  0.76888031  0.87492086  -0.01966994  1
  O  O235  1  0.75786644  0.87350047  0.51481097  1
  O  O236  1  0.11742215  0.48536909  0.24836047  1
  O  O237  1  0.13275719  0.50247217  0.73355629  1
  O  O238  1  0.12590339  0.97003834  0.29758939  1
  O  O239  1  0.13699018  1.00221318  0.73893648  1
  O  O240  1  0.63076922  0.48689883  0.24810402  1
  O  O241  1  0.64761053  0.49855289  0.79281630  1
  O  O242  1  0.61974967  0.98348024  0.24172710  1
  O  O243  1  0.61027378  0.98779089  0.73485139  1
  O  O244  1  0.38507752  0.00629826  0.27142759  1
  O  O245  1  0.37331467  0.00985966  0.75454805  1
  O  O246  1  0.37179720  0.50840385  0.25068783  1
  O  O247  1  0.36147973  0.50791380  0.74598754  1
  O  O248  1  0.88602100  -0.02205962  0.27354815  1
  O  O249  1  0.85725321  0.01840407  0.74651141  1
  O  O250  1  0.85984988  0.49694837  0.25961145  1
  O  O251  1  0.79982125  0.47931526  0.70162912  1
  O  O252  1  0.12314982  0.36945724  0.37017175  1
  O  O253  1  0.13240195  0.35392909  0.86274140  1
  O  O254  1  0.14228699  0.90139160  0.34549102  1
  O  O255  1  0.11172890  0.87145910  0.87030708  1
  O  O256  1  0.62107368  0.37191479  0.35967057  1
  O  O257  1  0.60761823  0.37407700  0.89960083  1
  O  O258  1  0.62151278  0.85847958  0.37261141  1
  O  O259  1  0.62097310  0.86406595  0.88425560  1
  O  O260  1  0.37679803  0.13139402  0.13354512  1
  O  O261  1  0.38338560  0.13461789  0.63092478  1
  O  O262  1  0.37842481  0.63334248  0.13847165  1
  O  O263  1  0.36662142  0.62682649  0.64227777  1
  O  O264  1  0.80769626  0.14449178  0.18989647  1
  O  O265  1  0.88927537  0.12257738  0.60942949  1
  O  O266  1  0.87508886  0.61153421  0.10323914  1
  O  O267  1  0.88050220  0.61973424  0.62625312  1
  O  O268  1  0.26541866  0.25791549  0.13627054  1
  O  O269  1  0.25548129  0.25742315  0.62237478  1
  O  O270  1  0.27829744  0.75928827  0.12077218  1
  O  O271  1  0.24177003  0.76203789  0.61256952  1
  O  O272  1  0.77944244  0.20672231  0.14704483  1
  O  O273  1  0.73654875  0.25462207  0.60397049  1
  O  O274  1  0.76910312  0.73089532  0.14532809  1
  O  O275  1  0.74455099  0.75818033  0.63452872  1
  O  O276  1  0.24417159  0.24246754  0.38188194  1
  O  O277  1  0.24426644  0.22859501  0.87258922  1
  O  O278  1  0.24944655  0.74883842  0.38739181  1
  O  O279  1  0.23672141  0.76483795  0.86166293  1
  O  O280  1  0.73268672  0.25912765  0.38997589  1
  O  O281  1  0.83708142  0.29986857  0.96852715  1
  O  O282  1  0.75030272  0.73074173  0.36999083  1
  O  O283  1  0.72605079  0.74186471  0.87048348  1
  O  O284  1  -0.00204298  0.10233934  0.02117658  1
  O  O285  1  0.00800996  0.11261790  0.50342538  1
  O  O286  1  -0.00282105  0.60548765  -0.01722790  1
  O  O287  1  -0.00928542  0.61553140  0.51447796  1
  O  O288  1  0.50394176  0.13043018  0.02060576  1
  O  O289  1  0.49546297  0.11433463  0.51163913  1
  O  O290  1  0.48792931  0.62467836  0.01261759  1
  O  O291  1  0.50596384  0.60710719  0.50405673  1
  O  O292  1  0.48739035  0.38578372  0.49947497  1
  O  O293  1  0.47853479  0.36555531  0.99045466  1
  O  O294  1  0.49064571  0.88540814  0.50947989  1
  O  O295  1  0.48145988  0.88189550  1.00587180  1
  O  O296  1  0.99440257  0.38227515  0.48858926  1
  O  O297  1  1.00669904  0.39653412  1.00418458  1
  O  O298  1  0.98750789  0.88620344  0.51525604  1
  O  O299  1  0.99314125  0.88056527  0.98344134  1
  O  O300  1  0.49617048  0.50267452  0.38055179  1
  O  O301  1  0.49449542  0.48062379  0.86961852  1
  O  O302  1  0.49795377  1.00910892  0.39068949  1
  O  O303  1  0.49774161  1.01575685  0.86173765  1
  O  O304  1  0.98833100  0.49408023  0.38142820  1
  O  O305  1  1.00383094  0.49976778  0.88840384  1
  O  O306  1  0.99665052  0.98711092  0.39288076  1
  O  O307  1  1.00090371  0.98783756  0.85797737  1
  O  O308  1  -0.00358603  -0.01920489  0.13186048  1
  O  O309  1  0.01049753  0.00908724  0.62300257  1
  O  O310  1  0.03192982  0.52950074  0.09359894  1
  O  O311  1  0.00809801  0.51198119  0.62249288  1
  O  O312  1  0.48503757  0.00992308  0.12187182  1
  O  O313  1  0.50635048  0.00754245  0.61631027  1
  O  O314  1  0.49836248  0.51336520  0.12543058  1
  O  O315  1  0.52880758  0.46552890  0.63021513  1
  O  O316  1  0.23828717  0.37298378  0.24586246  1
  O  O317  1  0.25757538  0.39013691  0.73646431  1
  O  O318  1  0.26271466  0.86873769  0.23574455  1
  O  O319  1  0.25843578  0.88829680  0.73869742  1
  O  O320  1  0.74617880  0.38665391  0.24849498  1
  O  O321  1  0.77733960  0.42363492  0.74639724  1
  O  O322  1  0.72493697  0.86377659  0.24973852  1
  O  O323  1  0.75606366  0.87515066  0.73888478  1
  O  O324  1  0.26401068  0.12108735  0.26800981  1
  O  O325  1  0.26268140  0.11407194  0.74323078  1
  O  O326  1  0.26624146  0.63133407  0.26287833  1
  O  O327  1  0.24984405  0.61157600  0.74643179  1
  O  O328  1  0.76473578  0.12372192  0.24830944  1
  O  O329  1  0.70476956  0.11094546  0.76894364  1
  O  O330  1  0.73543531  0.60549149  0.26702825  1
  O  O331  1  0.74719544  0.61514017  0.77107052  1
  O  O332  1  0.37329486  0.12329161  0.37586541  1
  O  O333  1  0.36854812  0.11841511  0.86558249  1
  O  O334  1  0.37028348  0.62404130  0.36746990  1
  O  O335  1  0.36994939  0.62528473  0.84920248  1
  O  O336  1  0.87653602  0.10208187  0.37947785  1
  O  O337  1  0.87050012  0.12114319  0.88396118  1
  O  O338  1  0.85766244  0.61326112  0.38623015  1
  O  O339  1  0.85827479  0.65371120  0.88122901  1
  O  O340  1  0.13685765  0.36420938  0.13814694  1
  O  O341  1  0.13218250  0.38271397  0.61972144  1
  O  O342  1  0.15932168  0.87117434  0.11618225  1
  O  O343  1  0.13425718  0.88595849  0.62537274  1
  O  O344  1  0.60962221  0.37143555  0.14257909  1
  O  O345  1  0.58526703  0.41063374  0.63199127  1
  O  O346  1  0.63404189  0.88066836  0.12469661  1
  O  O347  1  0.63917877  0.88252385  0.61885684  1
  O  O348  1  0.12171225  0.24906182  0.26502159  1
  O  O349  1  0.12352302  0.23369811  0.76655253  1
  O  O350  1  0.11125906  0.73264656  0.23335511  1
  O  O351  1  0.11334163  0.75651528  0.75207946  1
  O  O352  1  0.62483192  0.26543724  0.25826553  1
  O  O353  1  0.61488461  0.25357191  0.74553768  1
  O  O354  1  0.61766745  0.75094080  0.26721799  1
  O  O355  1  0.61129357  0.74500792  0.76255982  1
  O  O356  1  0.37390720  0.23865703  0.25355204  1
  O  O357  1  0.37150579  0.24402544  0.74085100  1
  O  O358  1  0.38294887  0.74779427  0.25007729  1
  O  O359  1  0.39176564  0.74259525  0.74854597  1
  O  O360  1  0.88822438  0.26607814  0.25974118  1
  O  O361  1  0.82560451  0.18192283  0.75375401  1
  O  O362  1  0.89261549  0.79383721  0.23970247  1
  O  O363  1  0.88799606  0.75323793  0.75383331  1
  O  O364  1  0.38625696  0.49217556  0.50948398  1
  O  O365  1  0.36754754  0.48683867  1.00026166  1
  O  O366  1  0.38791449  0.99548296  0.49590413  1
  O  O367  1  0.38703690  1.00929579  0.97836153  1
  O  O368  1  0.88268499  0.49026583  0.49356538  1
  O  O369  1  0.90030516  0.49520591  0.99275722  1
  O  O370  1  0.88304253  0.99436806  0.49613574  1
  O  O371  1  0.89946990  0.98329828  0.99793763  1
  O  O372  1  0.10402660  -0.02052227  0.00215586  1
  O  O373  1  0.11591564  0.00339469  0.50584156  1
  O  O374  1  0.10977846  0.49263139  -0.01904346  1
  O  O375  1  0.10965959  0.49516888  0.51068851  1
  O  O376  1  0.63021023  0.01052219  0.01995659  1
  O  O377  1  0.61049208  -0.00804106  0.50628611  1
  O  O378  1  0.62686840  0.52519956  0.00227718  1
  O  O379  1  0.60997664  0.50530173  0.49229880  1
  O  O380  1  0.36834729  0.36301643  0.11603382  1
  O  O381  1  0.36821123  0.36754390  0.61965543  1
  O  O382  1  0.38137360  0.85967871  0.12015949  1
  O  O383  1  0.36431083  0.88606949  0.60980187  1
  O  O384  1  0.92891239  0.43937665  0.12291809  1
  O  O385  1  0.88451054  0.37071775  0.60484684  1
  O  O386  1  0.85551721  0.88616952  0.10755672  1
  O  O387  1  0.85961100  0.88322244  0.61816315  1
  O  O388  1  0.13673566  0.13120560  0.38800516  1
  O  O389  1  0.13718769  0.11969007  0.87921048  1
  O  O390  1  0.13926577  0.62737186  0.35760778  1
  O  O391  1  0.12937683  0.64182522  0.86240108  1
  O  O392  1  0.62649402  0.14140731  0.36203431  1
  O  O393  1  0.61331855  0.13382256  0.90928767  1
  O  O394  1  0.62636366  0.63359885  0.37787855  1
  O  O395  1  0.62663224  0.63373504  0.89158513  1
