# generated using pymatgen
data_V35Zn35O128
_symmetry_space_group_name_H-M   'P 1'
_cell_length_a   16.94570520
_cell_length_b   16.96670291
_cell_length_c   16.92603331
_cell_angle_alpha   90.24766117
_cell_angle_beta   89.99674403
_cell_angle_gamma   89.52683905
_symmetry_Int_Tables_number   1
_chemical_formula_structural   V35Zn35O128
_chemical_formula_sum   'V70 Zn70 O256'
_cell_volume   4866.23888829
_cell_formula_units_Z   2
loop_
 _symmetry_equiv_pos_site_id
 _symmetry_equiv_pos_as_xyz
  1  'x, y, z'
loop_
 _atom_site_type_symbol
 _atom_site_label
 _atom_site_symmetry_multiplicity
 _atom_site_fract_x
 _atom_site_fract_y
 _atom_site_fract_z
 _atom_site_occupancy
  V  V0  1  0.62936109  0.87803334  0.26587192  1
  V  V1  1  0.27347340  0.50132436  0.74666801  1
  V  V2  1  0.02983623  -0.03217089  -0.00951384  1
  V  V3  1  0.87344412  0.10850459  0.75445771  1
  V  V4  1  0.88775990  0.14890441  0.26117898  1
  V  V5  1  0.74177902  0.74891557  0.00310648  1
  V  V6  1  0.00031033  0.71594426  0.24578677  1
  V  V7  1  0.25719927  0.48553781  0.25687623  1
  V  V8  1  0.25652696  0.62777109  0.86771890  1
  V  V9  1  0.25334755  0.21767403  0.50040543  1
  V  V10  1  0.12964630  0.62783713  0.00034104  1
  V  V11  1  0.61613975  0.75384952  0.86281263  1
  V  V12  1  0.74281954  0.86598989  0.63905338  1
  V  V13  1  0.13329789  0.25319658  0.87766429  1
  V  V14  1  0.12512548  0.21418624  0.38401787  1
  V  V15  1  0.88318179  0.73626325  0.12510435  1
  V  V16  1  0.63507199  -0.00761485  0.63177339  1
  V  V17  1  0.60796804  0.50020786  0.60706728  1
  V  V18  1  0.62055792  0.73305724  0.38240995  1
  V  V19  1  0.24045315  0.74533183  0.53584063  1
  V  V20  1  0.61905290  0.61971089  0.00756597  1
  V  V21  1  0.38056663  0.24591560  0.62952215  1
  V  V22  1  0.25067343  0.37723589  0.61804143  1
  V  V23  1  0.62106723  0.00983808  0.12876613  1
  V  V24  1  0.00028195  0.37849434  0.87590229  1
  V  V25  1  0.36422201  0.63490241  0.25881714  1
  V  V26  1  0.38299665  0.65293877  0.74209209  1
  V  V27  1  0.85790911  0.50322765  0.38985177  1
  V  V28  1  0.51412476  0.12206293  0.62197902  1
  V  V29  1  0.01274877  0.13145390  0.62166726  1
  V  V30  1  0.76775105  0.00794139  0.26605035  1
  V  V31  1  0.89581021  0.74793043  0.63036503  1
  V  V32  1  0.49242797  0.63837583  0.60039131  1
  V  V33  1  0.37367929  0.23857100  0.13370572  1
  V  V34  1  0.15524125  0.48625080  0.11490499  1
  V  V35  1  -0.00209418  0.50145605  0.00351157  1
  V  V36  1  0.86721340  0.26039955  0.62356682  1
  V  V37  1  0.74452183  0.75068939  0.49665139  1
  V  V38  1  0.73853304  0.38139565  0.12027188  1
  V  V39  1  0.12675967  0.37710903  0.74955541  1
  V  V40  1  0.61330034  0.11389137  -0.00948810  1
  V  V41  1  0.62355449  0.35459149  0.25029013  1
  V  V42  1  0.74792347  0.22715022  -0.00675351  1
  V  V43  1  -0.01269103  -0.00944723  0.48997101  1
  V  V44  1  0.12196815  0.13464288  0.01631185  1
  V  V45  1  0.38085794  -0.00006656  0.87888602  1
  V  V46  1  0.74981627  0.23746433  0.49000306  1
  V  V47  1  0.38072837  0.12701084  0.75154973  1
  V  V48  1  0.74488502  0.62175184  0.86615505  1
  V  V49  1  0.49743208  -0.00883247  0.49048387  1
  V  V50  1  0.50050731  0.87472691  0.85790280  1
  V  V51  1  0.86457658  0.88246458  -0.01543134  1
  V  V52  1  0.11304394  0.62650271  0.47112082  1
  V  V53  1  0.24199347  -0.00574987  0.26451165  1
  V  V54  1  0.38673827  0.38359704  0.48860631  1
  V  V55  1  0.73166370  0.48829963  0.74584981  1
  V  V56  1  0.50056668  0.76216209  0.24806736  1
  V  V57  1  0.10853368  0.51748097  0.63136830  1
  V  V58  1  0.12108224  -0.02124080  0.61097862  1
  V  V59  1  0.25389933  0.75484073  -0.00608245  1
  V  V60  1  0.23191488  -0.00697496  0.75097777  1
  V  V61  1  0.75029528  0.87448118  0.13077777  1
  V  V62  1  0.48943143  0.62990448  0.12913676  1
  V  V63  1  0.48327320  0.49653503  -0.00500266  1
  V  V64  1  0.10227577  0.86941167  0.26513083  1
  V  V65  1  0.87599917  0.35967712  0.00239065  1
  V  V66  1  0.38823375  0.87504063  0.01150181  1
  V  V67  1  0.24751095  0.12857786  0.87954701  1
  V  V68  1  0.21389453  0.88189857  0.11117367  1
  V  V69  1  0.88107337  0.61766139  0.74754666  1
  Zn  Zn70  1  0.58102706  0.29574725  0.81581827  1
  Zn  Zn71  1  0.02205178  0.29479646  0.27444126  1
  Zn  Zn72  1  -0.00305788  0.24981011  0.75089347  1
  Zn  Zn73  1  0.36414384  0.86290143  0.52829052  1
  Zn  Zn74  1  -0.02550007  0.18043590  0.12429295  1
  Zn  Zn75  1  0.44802464  0.54607565  0.42392643  1
  Zn  Zn76  1  0.18962669  0.18404573  0.20863666  1
  Zn  Zn77  1  0.19505355  0.18723279  0.69201777  1
  Zn  Zn78  1  0.18229773  0.69710336  0.17719881  1
  Zn  Zn79  1  0.10643962  0.72673083  0.66858943  1
  Zn  Zn80  1  0.71023369  0.18980050  0.17496700  1
  Zn  Zn81  1  0.69845910  0.18379859  0.70367136  1
  Zn  Zn82  1  0.68764282  0.68480777  0.19170853  1
  Zn  Zn83  1  0.67169185  0.68195021  0.67921428  1
  Zn  Zn84  1  0.30241267  0.30360790  0.32183525  1
  Zn  Zn85  1  0.31846161  0.32053482  0.82070983  1
  Zn  Zn86  1  0.32107769  0.83923075  0.26030014  1
  Zn  Zn87  1  0.31047694  0.81555648  0.81323697  1
  Zn  Zn88  1  0.80122783  0.31317191  0.30978480  1
  Zn  Zn89  1  0.81410801  0.30751368  0.81391487  1
  Zn  Zn90  1  0.81745044  0.80594194  0.31230368  1
  Zn  Zn91  1  0.81046018  0.80225866  0.80729675  1
  Zn  Zn92  1  0.19635269  0.46340503  0.44887559  1
  Zn  Zn93  1  0.21089810  0.43693117  0.93296044  1
  Zn  Zn94  1  0.18296956  0.91798009  0.43681797  1
  Zn  Zn95  1  0.19735853  0.94884595  0.93851837  1
  Zn  Zn96  1  0.67339828  0.40889783  0.44611058  1
  Zn  Zn97  1  0.68785322  0.44056995  0.93616064  1
  Zn  Zn98  1  0.69545720  0.94041464  0.45260295  1
  Zn  Zn99  1  0.68624487  0.93961588  0.93590747  1
  Zn  Zn100  1  0.30196944  0.05430870  0.06294662  1
  Zn  Zn101  1  0.32338531  0.03601629  0.57351613  1
  Zn  Zn102  1  0.31829613  0.57454155  0.06623480  1
  Zn  Zn103  1  0.30834729  0.56917331  0.55987747  1
  Zn  Zn104  1  0.82117736  0.06133442  0.07811470  1
  Zn  Zn105  1  0.81324204  0.07448556  0.56917600  1
  Zn  Zn106  1  0.80803592  0.55793128  0.06014053  1
  Zn  Zn107  1  0.79585693  0.57080377  0.57479137  1
  Zn  Zn108  1  0.47914283  0.47433644  0.23869199  1
  Zn  Zn109  1  0.45466617  0.43193610  0.66247399  1
  Zn  Zn110  1  0.43870036  0.94915130  0.19450531  1
  Zn  Zn111  1  0.43554599  0.94189660  0.68659447  1
  Zn  Zn112  1  0.97160034  0.39794061  0.16312849  1
  Zn  Zn113  1  0.93001985  0.44077475  0.69465335  1
  Zn  Zn114  1  0.94044237  0.93678623  0.16699949  1
  Zn  Zn115  1  0.91360367  0.95327337  0.64381378  1
  Zn  Zn116  1  0.05112088  0.05146184  0.30460023  1
  Zn  Zn117  1  0.04881466  0.06381482  0.82045449  1
  Zn  Zn118  1  0.05249852  0.51987891  0.29193491  1
  Zn  Zn119  1  0.06975530  0.56402479  0.81989696  1
  Zn  Zn120  1  0.57243678  0.06236850  0.31595359  1
  Zn  Zn121  1  0.56490359  0.05843351  0.81036899  1
  Zn  Zn122  1  0.61445775  0.55211774  0.30538217  1
  Zn  Zn123  1  0.55237456  0.56456070  0.81456059  1
  Zn  Zn124  1  0.44259602  0.18451843  0.45026802  1
  Zn  Zn125  1  0.43998134  0.18414722  0.93816684  1
  Zn  Zn126  1  0.41933798  0.72184863  0.43315721  1
  Zn  Zn127  1  0.43574154  0.69067647  0.93478976  1
  Zn  Zn128  1  0.93873620  0.18410789  0.44305346  1
  Zn  Zn129  1  0.94625213  0.18437468  0.93096580  1
  Zn  Zn130  1  0.93017195  0.70570672  0.43670297  1
  Zn  Zn131  1  0.92744456  0.68624380  0.93636357  1
  Zn  Zn132  1  0.07841574  0.31365551  0.06125210  1
  Zn  Zn133  1  0.07403160  0.30508913  0.56280488  1
  Zn  Zn134  1  0.05549715  0.79907288  -0.06836217  1
  Zn  Zn135  1  0.06314307  0.81003051  0.52985365  1
  Zn  Zn136  1  0.56553129  0.31600311  -0.02013790  1
  Zn  Zn137  1  0.60277876  0.29780743  0.61618594  1
  Zn  Zn138  1  0.56641327  0.81863883  0.06573111  1
  Zn  Zn139  1  0.56043301  0.81983605  0.56303509  1
  O  O140  1  0.13800531  0.14584599  0.11381553  1
  O  O141  1  0.11443351  0.13175709  0.62972734  1
  O  O142  1  0.14132166  0.61507882  0.10312172  1
  O  O143  1  0.10776912  0.61430494  0.65615165  1
  O  O144  1  0.63919605  0.11062383  0.12176985  1
  O  O145  1  0.61622524  0.11568011  0.63215544  1
  O  O146  1  0.61702160  0.63373049  0.10956110  1
  O  O147  1  0.60196184  0.61523602  0.62090841  1
  O  O148  1  0.37172845  0.35866181  0.39161028  1
  O  O149  1  0.43230397  0.37493548  0.82653338  1
  O  O150  1  0.37464464  0.83832409  0.40564650  1
  O  O151  1  0.38697238  0.88078830  0.87898512  1
  O  O152  1  0.85857296  0.39856487  0.38361335  1
  O  O153  1  0.89249754  0.37174862  0.88427077  1
  O  O154  1  0.88211197  0.80396789  0.40164296  1
  O  O155  1  0.85342227  0.86906493  0.88606395  1
  O  O156  1  0.23838941  -0.01586237  0.36456616  1
  O  O157  1  0.25880774  0.01014322  0.86684073  1
  O  O158  1  0.24484221  0.50158126  0.35579879  1
  O  O159  1  0.25690069  0.51101126  0.85205317  1
  O  O160  1  0.75227574  -0.00747354  0.36451840  1
  O  O161  1  0.73215539  -0.00959947  0.85026566  1
  O  O162  1  0.75299358  0.49933854  0.40059912  1
  O  O163  1  0.74004179  0.51749588  0.86719160  1
  O  O164  1  0.25762678  0.50419578  0.13095607  1
  O  O165  1  0.24359063  0.49603947  0.63509267  1
  O  O166  1  0.24595935  0.98073205  0.12752287  1
  O  O167  1  0.22137599  1.01043126  0.64156774  1
  O  O168  1  0.74838981  0.48234569  0.11097491  1
  O  O169  1  0.72219152  0.50565261  0.63654269  1
  O  O170  1  0.74575618  0.98824359  0.14113931  1
  O  O171  1  0.74149269  0.98418799  0.62104478  1
  O  O172  1  0.01002838  0.41179778  0.26685831  1
  O  O173  1  0.01003645  0.37926882  0.76041500  1
  O  O174  1  0.00357348  0.87775977  0.24177032  1
  O  O175  1  0.04189797  0.84791165  0.76988608  1
  O  O176  1  0.51872053  0.36791255  0.23415739  1
  O  O177  1  0.48189819  0.37156264  0.76827354  1
  O  O178  1  0.51250212  0.86735985  0.24549948  1
  O  O179  1  0.49477342  0.87476344  0.75898876  1
  O  O180  1  0.44889444  0.09617422  0.29358751  1
  O  O181  1  0.48816243  0.11919571  0.74276320  1
  O  O182  1  0.49429074  0.64052805  0.23689861  1
  O  O183  1  0.48308120  0.63039369  0.75017109  1
  O  O184  1  0.99080799  0.12647612  0.24163201  1
  O  O185  1  0.99938304  0.12988278  0.73809952  1
  O  O186  1  1.01144766  0.61752843  0.23522908  1
  O  O187  1  0.97760787  0.60216117  0.76300748  1
  O  O188  1  0.37433843  0.23123000  0.02874671  1
  O  O189  1  0.36401750  0.24874441  0.50784368  1
  O  O190  1  0.36738792  0.76734993  -0.00655726  1
  O  O191  1  0.34679043  0.74448105  0.52460683  1
  O  O192  1  0.87662922  0.25696121  -0.00325840  1
  O  O193  1  0.86622240  0.24222757  0.51335947  1
  O  O194  1  0.85617373  0.75246785  0.00444836  1
  O  O195  1  0.86106475  0.73745869  0.53117401  1
  O  O196  1  0.14504269  0.24046833  0.49574386  1
  O  O197  1  0.13672101  0.24752577  0.98642975  1
  O  O198  1  0.13566923  0.73681565  0.48553739  1
  O  O199  1  0.13449720  0.73146565  0.99512191  1
  O  O200  1  0.64800416  0.26981163  0.51639829  1
  O  O201  1  0.63756886  0.22243186  1.00231664  1
  O  O202  1  0.62816576  0.76245328  0.48648801  1
  O  O203  1  0.63003334  0.74600187  0.99478514  1
  O  O204  1  0.47459909  0.22524402  0.14637949  1
  O  O205  1  0.48776775  0.23365111  0.61986150  1
  O  O206  1  0.51507516  0.74770731  0.14050369  1
  O  O207  1  0.50561621  0.73664674  0.61816160  1
  O  O208  1  1.01765317  0.28369290  0.15233940  1
  O  O209  1  0.99762291  0.24191557  0.61975220  1
  O  O210  1  0.98190558  0.73825322  0.11903935  1
  O  O211  1  0.99800761  0.75435040  0.62383464  1
  O  O212  1  0.02356781  0.24453094  0.38793991  1
  O  O213  1  0.01741298  0.26251452  0.87231165  1
  O  O214  1  -0.00205490  0.72769876  0.34478203  1
  O  O215  1  0.00660368  0.72331232  0.87266621  1
  O  O216  1  0.53386245  0.22369740  0.37779463  1
  O  O217  1  0.50131215  0.26285726  0.89499512  1
  O  O218  1  0.51229893  0.75136130  0.36156041  1
  O  O219  1  0.50725564  0.76138549  0.87583696  1
  O  O220  1  0.26040201  0.12118385  0.51319249  1
  O  O221  1  0.24136512  0.12058622  0.98633858  1
  O  O222  1  0.23353198  0.63773788  0.50492012  1
  O  O223  1  0.25360821  0.63653521  0.98880120  1
  O  O224  1  0.74406190  0.13683320  0.50835013  1
  O  O225  1  0.75711898  0.12678453  1.00315896  1
  O  O226  1  0.73922848  0.65091139  0.51569674  1
  O  O227  1  0.73590443  0.62934141  0.98922777  1
  O  O228  1  0.29520501  0.36594450  -0.07791876  1
  O  O229  1  0.25331108  0.38201347  0.51238701  1
  O  O230  1  0.25984788  0.87431252  0.00351510  1
  O  O231  1  0.23620791  0.84925451  0.50873940  1
  O  O232  1  0.77175517  0.37957667  -0.00414159  1
  O  O233  1  0.74694472  0.35414832  0.51034256  1
  O  O234  1  0.74478993  0.86414234  0.00950961  1
  O  O235  1  0.75064533  0.86025166  0.51668317  1
  O  O236  1  0.14936037  0.50170078  0.22595800  1
  O  O237  1  0.13188952  0.48996191  0.74457326  1
  O  O238  1  0.12595429  0.97772149  0.25247564  1
  O  O239  1  0.13131487  1.00063031  0.76395842  1
  O  O240  1  0.61037893  0.46979265  0.22700613  1
  O  O241  1  0.62977293  0.50448734  0.75531435  1
  O  O242  1  0.64113330  0.99919752  0.24739702  1
  O  O243  1  0.62068037  1.00000852  0.73163163  1
  O  O244  1  0.34474057  -0.04619398  0.25405677  1
  O  O245  1  0.36880485  0.01035334  0.76421660  1
  O  O246  1  0.36504288  0.52567871  0.24530449  1
  O  O247  1  0.37084314  0.48957192  0.73599371  1
  O  O248  1  0.86544345  -0.01179685  0.24551622  1
  O  O249  1  0.89327676  0.00907073  0.74120296  1
  O  O250  1  0.84636170  0.51370205  0.28826835  1
  O  O251  1  0.84872678  0.51339252  0.73923743  1
  O  O252  1  0.09602337  0.39397126  0.41963308  1
  O  O253  1  0.12596481  0.37014513  0.86768589  1
  O  O254  1  0.11119855  0.86052173  0.36347143  1
  O  O255  1  0.09849844  0.90026602  0.93106209  1
  O  O256  1  0.63751837  0.36739583  0.34966750  1
  O  O257  1  0.62575146  0.36216835  0.89447086  1
  O  O258  1  0.63273864  0.87871498  0.36565789  1
  O  O259  1  0.60948814  0.86462714  0.88041060  1
  O  O260  1  0.36117590  0.13245737  0.12695122  1
  O  O261  1  0.38044887  0.12755911  0.63536665  1
  O  O262  1  0.38503330  0.64352087  0.13274384  1
  O  O263  1  0.38371987  0.62513718  0.63465869  1
  O  O264  1  0.87297795  0.13387749  0.14617300  1
  O  O265  1  0.89076705  0.13506674  0.63683639  1
  O  O266  1  0.86025192  0.63894031  0.11576016  1
  O  O267  1  0.87282796  0.63177630  0.63960834  1
  O  O268  1  0.26744085  0.24333932  0.13999336  1
  O  O269  1  0.25706538  0.25517342  0.61427031  1
  O  O270  1  0.24137555  0.76887261  0.10421460  1
  O  O271  1  0.21487425  0.74505510  0.63359618  1
  O  O272  1  0.75799766  0.26379712  0.09627491  1
  O  O273  1  0.76625587  0.24712718  0.62633367  1
  O  O274  1  0.74553136  0.75598719  0.12081946  1
  O  O275  1  0.73292322  0.75991605  0.62099230  1
  O  O276  1  0.24845729  0.23253981  0.39394835  1
  O  O277  1  0.24270223  0.23555282  0.85957304  1
  O  O278  1  0.30343811  0.82157714  0.37453670  1
  O  O279  1  0.24911503  0.74724337  0.88282783  1
  O  O280  1  0.75739382  0.24734563  0.38998519  1
  O  O281  1  0.75754760  0.25023669  0.89455461  1
  O  O282  1  0.73374415  0.75024239  0.38646190  1
  O  O283  1  0.73355871  0.74318014  0.88193276  1
  O  O284  1  0.01704159  0.15297641  0.01614831  1
  O  O285  1  -0.00235280  0.11127926  0.51770943  1
  O  O286  1  0.02117865  0.60748374  -0.00749391  1
  O  O287  1  0.01543846  0.64491877  0.49304374  1
  O  O288  1  0.51441862  0.11795260  -0.00111152  1
  O  O289  1  0.50628361  0.11668809  0.51694360  1
  O  O290  1  0.50573460  0.63336639  0.00855133  1
  O  O291  1  0.47781307  0.63533722  0.49803144  1
  O  O292  1  0.48211882  0.37101682  0.50109994  1
  O  O293  1  0.50011619  0.39997012  1.01626929  1
  O  O294  1  0.48522704  0.88763478  0.51099024  1
  O  O295  1  0.49027475  0.87165603  0.99424487  1
  O  O296  1  1.04477482  0.38586605  0.47554569  1
  O  O297  1  0.99568817  0.37893858  0.99435409  1
  O  O298  1  0.99398522  0.88987967  0.50152812  1
  O  O299  1  0.96968564  0.87023017  0.99312435  1
  O  O300  1  0.51449182  0.51333456  0.34242913  1
  O  O301  1  0.50020779  0.50958681  0.89551813  1
  O  O302  1  0.52475648  0.99811821  0.39364888  1
  O  O303  1  0.49274931  0.98597310  0.87143825  1
  O  O304  1  0.96157625  0.49592647  0.38566031  1
  O  O305  1  1.01874641  0.48628695  0.89271485  1
  O  O306  1  0.99013686  1.00552171  0.39206967  1
  O  O307  1  0.99277717  1.02088280  0.91349968  1
  O  O308  1  -0.00969584  -0.00512738  0.08255070  1
  O  O309  1  0.01829071  0.00978357  0.62895369  1
  O  O310  1  0.03030110  0.48683157  0.10286267  1
  O  O311  1  0.01307829  0.49061129  0.63119549  1
  O  O312  1  0.52143822  0.00508453  0.14504955  1
  O  O313  1  0.50756356  0.01082104  0.62124236  1
  O  O314  1  0.49432639  0.52806463  0.12026867  1
  O  O315  1  0.49862054  0.52435284  0.61303961  1
  O  O316  1  0.26592532  0.38714308  0.25298947  1
  O  O317  1  0.24792438  0.38477632  0.73950580  1
  O  O318  1  0.21424391  0.86549675  0.22356229  1
  O  O319  1  0.24973320  0.89506011  0.75935786  1
  O  O320  1  0.74476919  0.36749974  0.22641408  1
  O  O321  1  0.75038034  0.39180379  0.76129442  1
  O  O322  1  0.74718447  0.87413557  0.24720653  1
  O  O323  1  0.74523133  0.86660713  0.73875802  1
  O  O324  1  0.24400448  0.09273808  0.24997552  1
  O  O325  1  0.25834651  0.11396219  0.75824364  1
  O  O326  1  0.26580909  0.65081773  0.24406780  1
  O  O327  1  0.27169571  0.61328970  0.74896531  1
  O  O328  1  0.76783607  0.11380807  0.25184136  1
  O  O329  1  0.77248481  0.11421581  0.74194807  1
  O  O330  1  0.70371559  0.59743318  0.25621748  1
  O  O331  1  0.74232483  0.62325284  0.75919246  1
  O  O332  1  0.40357803  0.12374852  0.34786489  1
  O  O333  1  0.36967391  0.11993137  0.87332800  1
  O  O334  1  0.38005702  0.63679661  0.36044130  1
  O  O335  1  0.36681344  0.63934461  0.85751127  1
  O  O336  1  0.88443313  0.12502867  0.35944947  1
  O  O337  1  0.88972476  0.12998105  0.85338588  1
  O  O338  1  0.86279121  0.60756692  0.39690768  1
  O  O339  1  0.85081761  0.63162313  0.86485231  1
  O  O340  1  0.15634066  0.38764268  0.10190077  1
  O  O341  1  0.13465751  0.37953239  0.63154210  1
  O  O342  1  0.11897268  0.88569361  0.09544359  1
  O  O343  1  0.11475638  0.88136871  0.62195494  1
  O  O344  1  0.64116269  0.36812121  0.11084838  1
  O  O345  1  0.57758808  0.40576480  0.64050625  1
  O  O346  1  0.63477509  0.88476968  0.13679904  1
  O  O347  1  0.63137905  0.88202800  0.63037747  1
  O  O348  1  0.13903382  0.25192734  0.28503019  1
  O  O349  1  0.12790191  0.26525981  0.75370339  1
  O  O350  1  0.10130349  0.75919010  0.22946857  1
  O  O351  1  0.10050277  0.80219142  0.76534392  1
  O  O352  1  0.63698598  0.25478421  0.23226675  1
  O  O353  1  0.61824155  0.25568046  0.72137398  1
  O  O354  1  0.62202129  0.75784136  0.26476449  1
  O  O355  1  0.62366793  0.74623999  0.76532696  1
  O  O356  1  0.36695704  0.24296402  0.23821264  1
  O  O357  1  0.36333281  0.24011071  0.73989319  1
  O  O358  1  0.39459578  0.75245677  0.25061437  1
  O  O359  1  0.37232242  0.75163012  0.74017640  1
  O  O360  1  0.89081731  0.25261236  0.26539104  1
  O  O361  1  0.87926436  0.24588457  0.73952288  1
  O  O362  1  0.88636136  0.74613766  0.23335786  1
  O  O363  1  0.87280549  0.73175611  0.74111373  1
  O  O364  1  0.37161743  0.49179937  0.49279322  1
  O  O365  1  0.38323250  0.51179158  0.99959730  1
  O  O366  1  0.39825234  1.01721944  0.48443440  1
  O  O367  1  0.36760736  0.98783482  0.98821287  1
  O  O368  1  0.85981332  0.50470110  0.49672587  1
  O  O369  1  0.89695846  0.50279180  1.00297543  1
  O  O370  1  0.88980257  0.99698760  0.53170145  1
  O  O371  1  0.84935529  0.97995781  1.00120534  1
  O  O372  1  0.12465036  0.02865178  0.00280469  1
  O  O373  1  0.11465240  -0.00922091  0.50803407  1
  O  O374  1  0.14810601  0.50783073  0.00107390  1
  O  O375  1  0.13006007  0.52609149  0.52399107  1
  O  O376  1  0.63162976  0.00322020  0.01910827  1
  O  O377  1  0.61431259  -0.00826999  0.52033934  1
  O  O378  1  0.61880842  0.51940698  -0.00229428  1
  O  O379  1  0.62153079  0.48951036  0.50909763  1
  O  O380  1  0.37972868  0.33905345  0.12042945  1
  O  O381  1  0.36950631  0.36397155  0.61502266  1
  O  O382  1  0.38425625  0.88101299  0.11085978  1
  O  O383  1  0.35223292  0.93142551  0.61522215  1
  O  O384  1  0.87718869  0.37911504  0.10420130  1
  O  O385  1  0.88527355  0.35908975  0.62959061  1
  O  O386  1  0.86020736  0.86023333  0.11489014  1
  O  O387  1  0.86241169  0.85130949  0.63850245  1
  O  O388  1  0.12222942  0.11672074  0.37498804  1
  O  O389  1  0.12925268  0.13742051  0.87912790  1
  O  O390  1  0.10929574  0.58954328  0.37867339  1
  O  O391  1  0.14744469  0.61839348  0.88271391  1
  O  O392  1  0.58933057  0.17475018  0.35934105  1
  O  O393  1  0.62836875  0.10502855  0.89075147  1
  O  O394  1  0.61884544  0.63567407  0.38772430  1
  O  O395  1  0.62431376  0.63980376  0.88406139  1
