# generated using pymatgen
data_V35Zn35O128
_symmetry_space_group_name_H-M   'P 1'
_cell_length_a   16.84812146
_cell_length_b   16.87130753
_cell_length_c   16.83389145
_cell_angle_alpha   89.91045456
_cell_angle_beta   90.05310909
_cell_angle_gamma   90.23874999
_symmetry_Int_Tables_number   1
_chemical_formula_structural   V35Zn35O128
_chemical_formula_sum   'V70 Zn70 O256'
_cell_volume   4784.98151095
_cell_formula_units_Z   2
loop_
 _symmetry_equiv_pos_site_id
 _symmetry_equiv_pos_as_xyz
  1  'x, y, z'
loop_
 _atom_site_type_symbol
 _atom_site_label
 _atom_site_symmetry_multiplicity
 _atom_site_fract_x
 _atom_site_fract_y
 _atom_site_fract_z
 _atom_site_occupancy
  V  V0  1  0.49665506  0.76378886  0.26912440  1
  V  V1  1  0.76649847  0.37078593  0.62115743  1
  V  V2  1  0.25138570  0.11160730  0.86603389  1
  V  V3  1  0.40950840  0.13000850  0.74408886  1
  V  V4  1  -0.00086830  -0.00030799  0.50277288  1
  V  V5  1  0.49072015  0.25089703  0.23919156  1
  V  V6  1  0.87037894  0.00047659  0.36400012  1
  V  V7  1  0.24631119  0.61080825  0.38017124  1
  V  V8  1  0.87513777  0.51584917  0.88496972  1
  V  V9  1  0.26067259  0.39599326  0.12566325  1
  V  V10  1  0.25584276  0.12369937  0.37091826  1
  V  V11  1  0.13302730  0.37034738  0.74948848  1
  V  V12  1  0.48976074  0.49957767  0.50381956  1
  V  V13  1  0.39093601  0.36537069  0.00451670  1
  V  V14  1  0.25407986  0.24040953  0.00542972  1
  V  V15  1  -0.01226097  0.13220184  0.62313419  1
  V  V16  1  0.88523050  0.50356801  0.37693511  1
  V  V17  1  0.38930055  0.49707353  0.87583791  1
  V  V18  1  0.75598144  0.88086952  0.13877150  1
  V  V19  1  -0.00998361  0.74970626  0.24519521  1
  V  V20  1  0.12994832  0.24447456  0.87806235  1
  V  V21  1  0.60604687  0.12184837  0.01028907  1
  V  V22  1  -0.00401895  0.63997096  0.64162516  1
  V  V23  1  0.37173489  0.61745834  0.25262691  1
  V  V24  1  0.12205703  0.39026993  0.23585125  1
  V  V25  1  0.03383839  0.51051087  -0.00123125  1
  V  V26  1  0.12727518  0.13708403  0.50147095  1
  V  V27  1  0.87576103  0.14426292  0.24703364  1
  V  V28  1  0.11543927  0.25138800  0.35045708  1
  V  V29  1  0.49629308  0.86908278  0.88494313  1
  V  V30  1  0.61556255  0.11881973  0.51166987  1
  V  V31  1  0.75916235  0.51119452  0.75410532  1
  V  V32  1  0.11843023  0.49860040  0.62344262  1
  V  V33  1  0.13015694  -0.00083768  0.11283746  1
  V  V34  1  0.76864050  0.75283268  0.00661348  1
  V  V35  1  0.38259927  0.61685443  0.73948625  1
  V  V36  1  0.76334528  0.24954207  0.49789685  1
  V  V37  1  -0.00106078  0.37749503  0.88365881  1
  V  V38  1  0.48729376  0.37119841  0.37967284  1
  V  V39  1  0.61243381  -0.00165702  0.14467555  1
  V  V40  1  0.62879599  0.35895066  0.75298472  1
  V  V41  1  0.38015882  0.75625019  0.12398600  1
  V  V42  1  0.13613495  0.75733982  0.38317104  1
  V  V43  1  0.37634854  0.11749061  0.23211428  1
  V  V44  1  0.74545143  0.88696515  0.60762256  1
  V  V45  1  0.25805433  0.87399431  0.11356265  1
  V  V46  1  0.36499320  0.75255627  0.61401829  1
  V  V47  1  0.63799076  0.62269587  0.49197011  1
  V  V48  1  0.85716195  0.75080671  0.62654794  1
  V  V49  1  0.50811542  0.35385851  0.86844408  1
  V  V50  1  0.38597808  -0.00916103  0.87169039  1
  V  V51  1  0.62485888  0.50425045  0.62608342  1
  V  V52  1  0.00490643  0.63321375  0.11696492  1
  V  V53  1  0.25653266  0.49122963  0.74939161  1
  V  V54  1  0.62735843  0.25728872  0.37068139  1
  V  V55  1  -0.03058890  -0.00903823  0.00372171  1
  V  V56  1  0.63886570  0.75061579  0.37193578  1
  V  V57  1  0.61167466  0.50788814  0.09762816  1
  V  V58  1  -0.00386719  0.24980493  0.75128672  1
  V  V59  1  0.50348055  0.74259638  0.73929147  1
  V  V60  1  0.20653770  0.91379320  0.63420575  1
  V  V61  1  0.44024362  -0.05205134  0.46103943  1
  V  V62  1  0.13863180  0.88219247  0.25513411  1
  V  V63  1  0.62271189  0.73637264  0.89317161  1
  V  V64  1  0.75761350  0.38696947  0.12677850  1
  V  V65  1  -0.00039515  0.13373069  0.12356247  1
  V  V66  1  -0.00582684  0.87441218  0.37636958  1
  V  V67  1  0.86879695  0.11135334  0.75988227  1
  V  V68  1  -0.03440436  0.87735200  0.86485404  1
  V  V69  1  0.62546740  0.87952009  0.74316624  1
  Zn  Zn70  1  0.35534215  0.48363964  0.37527237  1
  Zn  Zn71  1  0.17358796  0.68151237  0.00338182  1
  Zn  Zn72  1  0.74267416  0.24906479  0.01755327  1
  Zn  Zn73  1  0.75310711  0.11426149  0.88899783  1
  Zn  Zn74  1  0.73432794  0.10969073  0.36095245  1
  Zn  Zn75  1  0.12995880  0.63793824  0.51440856  1
  Zn  Zn76  1  0.19002987  0.17931810  0.18601699  1
  Zn  Zn77  1  0.18449869  0.10631337  0.68724539  1
  Zn  Zn78  1  0.18709665  0.69055915  0.19155540  1
  Zn  Zn79  1  0.20247705  0.66893625  0.69232985  1
  Zn  Zn80  1  0.68464584  0.18978727  0.18472279  1
  Zn  Zn81  1  0.69781989  0.18137316  0.68444500  1
  Zn  Zn82  1  0.66592854  0.70019722  0.16792247  1
  Zn  Zn83  1  0.68434996  0.68763145  0.68635075  1
  Zn  Zn84  1  0.30483771  0.30196998  0.31111128  1
  Zn  Zn85  1  0.31780839  0.30139985  0.80598875  1
  Zn  Zn86  1  0.32474563  0.82079879  0.32559408  1
  Zn  Zn87  1  0.31029230  0.81634863  0.79079472  1
  Zn  Zn88  1  0.80987305  0.31500219  0.30121956  1
  Zn  Zn89  1  0.81779000  0.32055428  0.81375816  1
  Zn  Zn90  1  0.81000222  0.81167726  0.31241525  1
  Zn  Zn91  1  0.80205895  0.80185620  0.80863174  1
  Zn  Zn92  1  0.12881855  0.42445147  0.44030281  1
  Zn  Zn93  1  0.20269132  0.43040878  0.93511178  1
  Zn  Zn94  1  0.26943550  0.94109245  0.45211507  1
  Zn  Zn95  1  0.16460023  0.88357568  0.94707584  1
  Zn  Zn96  1  0.68645495  0.43893179  0.43303310  1
  Zn  Zn97  1  0.69064512  0.44071690  0.94234280  1
  Zn  Zn98  1  0.67934746  0.93675503  0.43175460  1
  Zn  Zn99  1  0.69007490  0.94292403  0.95297412  1
  Zn  Zn100  1  0.31686803  0.05305411  0.05353971  1
  Zn  Zn101  1  0.31469647  0.07649723  0.57307400  1
  Zn  Zn102  1  0.34080693  0.57409197  0.05206435  1
  Zn  Zn103  1  0.30539741  0.56135196  0.56165306  1
  Zn  Zn104  1  0.79948859  0.06596622  0.07788900  1
  Zn  Zn105  1  0.81378278  0.06476709  0.55543728  1
  Zn  Zn106  1  0.80818328  0.57280309  0.06420318  1
  Zn  Zn107  1  0.81699812  0.56355186  0.56977928  1
  Zn  Zn108  1  0.44586478  0.43829720  0.19106226  1
  Zn  Zn109  1  0.44427890  0.42420608  0.68521633  1
  Zn  Zn110  1  0.43884957  0.93909894  0.20116511  1
  Zn  Zn111  1  0.43643104  0.94363869  0.67714530  1
  Zn  Zn112  1  0.94380110  0.44430407  0.16850837  1
  Zn  Zn113  1  0.94392268  0.43979355  0.69576887  1
  Zn  Zn114  1  0.93980714  0.93776034  0.18763013  1
  Zn  Zn115  1  0.92793403  0.93581142  0.68087497  1
  Zn  Zn116  1  0.06231744  0.06255019  0.31050226  1
  Zn  Zn117  1  0.04947949  0.06179307  0.82830848  1
  Zn  Zn118  1  0.07491431  0.57302291  0.30101879  1
  Zn  Zn119  1  0.07185610  0.56839947  0.81492368  1
  Zn  Zn120  1  0.55198829  0.06618029  0.32216621  1
  Zn  Zn121  1  0.58642341  0.05347219  0.82157470  1
  Zn  Zn122  1  0.54848210  0.56994344  0.32033052  1
  Zn  Zn123  1  0.56677124  0.55481088  0.81491258  1
  Zn  Zn124  1  0.43873860  0.18640095  0.44867072  1
  Zn  Zn125  1  0.43770779  0.18036432  0.93322779  1
  Zn  Zn126  1  0.43825726  0.67907835  0.43979899  1
  Zn  Zn127  1  0.44145433  0.68244758  0.94128581  1
  Zn  Zn128  1  0.94069470  0.18968358  0.42808458  1
  Zn  Zn129  1  0.93748716  0.18132425  0.94096726  1
  Zn  Zn130  1  0.95326132  0.69508154  0.45676918  1
  Zn  Zn131  1  0.94752357  0.69501333  0.92907685  1
  Zn  Zn132  1  0.07263575  0.31830077  0.06268121  1
  Zn  Zn133  1  0.05279321  0.31181732  0.56218674  1
  Zn  Zn134  1  0.05242372  0.81543795  0.06167345  1
  Zn  Zn135  1  0.05943769  0.81827464  0.56957475  1
  Zn  Zn136  1  0.58263177  0.32074181  0.06894055  1
  Zn  Zn137  1  0.58707685  0.32831040  0.54662014  1
  Zn  Zn138  1  0.56086670  0.82209498  0.07240225  1
  Zn  Zn139  1  0.56591252  0.80474069  0.55902548  1
  O  O140  1  0.11668575  0.10581622  0.12957956  1
  O  O141  1  0.10816951  0.13273941  0.61037496  1
  O  O142  1  0.11724385  0.65204177  0.10816943  1
  O  O143  1  0.12077348  0.61530866  0.63676823  1
  O  O144  1  0.62550429  0.11295419  0.12420993  1
  O  O145  1  0.63776753  0.12526354  0.61107482  1
  O  O146  1  0.62570479  0.60004428  0.14614283  1
  O  O147  1  0.62697874  0.61025398  0.61531677  1
  O  O148  1  0.38112756  0.36887333  0.37845152  1
  O  O149  1  0.39475422  0.37019758  0.87310006  1
  O  O150  1  0.36663485  0.88875418  0.40532788  1
  O  O151  1  0.38246203  0.87970873  0.86000059  1
  O  O152  1  0.89353290  0.39942248  0.36910987  1
  O  O153  1  0.89577814  0.39184429  0.86940573  1
  O  O154  1  0.88454290  0.88524505  0.36842923  1
  O  O155  1  0.86524412  0.87508210  0.87066194  1
  O  O156  1  0.23821144  0.02373304  0.37835453  1
  O  O157  1  0.25944245  0.01163916  0.87050069  1
  O  O158  1  0.23797005  0.50968870  0.37932930  1
  O  O159  1  0.27558781  0.47961329  0.85901689  1
  O  O160  1  0.76678502  -0.00189625  0.37866774  1
  O  O161  1  0.69728806  0.01322632  0.86402907  1
  O  O162  1  0.78141980  0.49362587  0.37769608  1
  O  O163  1  0.76309588  0.49451895  0.86439010  1
  O  O164  1  0.27132509  0.49348370  0.11569545  1
  O  O165  1  0.24038745  0.50312237  0.64049783  1
  O  O166  1  0.23961544  0.99153701  0.12220334  1
  O  O167  1  0.23077736  1.01745435  0.63312054  1
  O  O168  1  0.73710174  0.49652816  0.11095878  1
  O  O169  1  0.74771469  0.48963079  0.63368156  1
  O  O170  1  0.73726461  0.98766093  0.13188913  1
  O  O171  1  0.75277586  0.98717911  0.61588634  1
  O  O172  1  0.02263540  0.37905190  0.21967956  1
  O  O173  1  0.01063831  0.36897597  0.76225975  1
  O  O174  1  0.00552335  0.86438601  0.25602269  1
  O  O175  1  -0.01325558  0.89380638  0.76652113  1
  O  O176  1  0.49344342  0.36319093  0.26801055  1
  O  O177  1  0.51792421  0.36686821  0.75507084  1
  O  O178  1  0.49327912  0.86345050  0.26973898  1
  O  O179  1  0.50271204  0.85265731  0.75052862  1
  O  O180  1  0.48530324  0.14090728  0.25811788  1
  O  O181  1  0.50879033  0.11992481  0.75997420  1
  O  O182  1  0.47735175  0.63357998  0.25982449  1
  O  O183  1  0.49317210  0.62856795  0.75300870  1
  O  O184  1  0.99377640  0.12062538  0.23367883  1
  O  O185  1  0.99578063  0.12803817  0.74501115  1
  O  O186  1  1.01429355  0.64000188  0.23198755  1
  O  O187  1  1.00430925  0.62223302  0.74228766  1
  O  O188  1  0.36658638  0.25864867  -0.01085817  1
  O  O189  1  0.37815564  0.25345811  0.53163047  1
  O  O190  1  0.38333485  0.75149978  0.02531564  1
  O  O191  1  0.38113091  0.73784367  0.51565289  1
  O  O192  1  0.85074753  0.25730893  -0.04126795  1
  O  O193  1  0.86190096  0.25517501  0.48249608  1
  O  O194  1  0.86800806  0.75115423  -0.00368151  1
  O  O195  1  0.88634447  0.75308585  0.52465016  1
  O  O196  1  0.11340174  0.23961590  0.48626414  1
  O  O197  1  0.14255677  0.25563524  0.98915160  1
  O  O198  1  0.11600589  0.75748453  0.48540811  1
  O  O199  1  0.12830388  0.78321026  0.98737640  1
  O  O200  1  0.63591675  0.24296936  0.49152288  1
  O  O201  1  0.62322875  0.23092033  1.01451709  1
  O  O202  1  0.62244151  0.72968860  0.48969484  1
  O  O203  1  0.60503739  0.74638051  0.99265536  1
  O  O204  1  0.50601284  0.26186891  0.14253876  1
  O  O205  1  0.42174695  0.28849491  0.58787749  1
  O  O206  1  0.48643106  0.76231896  0.14606019  1
  O  O207  1  0.49616894  0.74215454  0.63678053  1
  O  O208  1  1.01242338  0.23189056  0.10978804  1
  O  O209  1  1.00198458  0.24523071  0.63844865  1
  O  O210  1  0.99556263  0.75039513  0.13644068  1
  O  O211  1  1.00209525  0.74344529  0.63719785  1
  O  O212  1  0.01536162  0.24720273  0.36362684  1
  O  O213  1  0.01087661  0.25678770  0.87822517  1
  O  O214  1  0.00694173  0.75603104  0.36864273  1
  O  O215  1  -0.00034942  0.78113277  0.87918357  1
  O  O216  1  0.50561004  0.26068763  0.38107164  1
  O  O217  1  0.50844257  0.25586347  0.87507327  1
  O  O218  1  0.50606698  0.74260274  0.37224256  1
  O  O219  1  0.49833897  0.75198636  0.86791899  1
  O  O220  1  0.23120373  0.12995035  0.49752992  1
  O  O221  1  0.26191399  0.13490672  0.98361155  1
  O  O222  1  0.24460122  0.62667004  0.48667569  1
  O  O223  1  0.26465635  0.62266707  0.98582691  1
  O  O224  1  0.74994304  0.14201519  0.49117120  1
  O  O225  1  0.74621541  0.13267665  1.00547063  1
  O  O226  1  0.73764596  0.61195406  0.50189712  1
  O  O227  1  0.74594338  0.65242710  1.01071132  1
  O  O228  1  0.26391175  0.36283678  0.00981975  1
  O  O229  1  0.24445642  0.37430900  0.48906656  1
  O  O230  1  0.26157841  0.87740031  0.01453184  1
  O  O231  1  0.23423174  0.88102189  0.54091992  1
  O  O232  1  0.73335858  0.36651671  0.01464102  1
  O  O233  1  0.74404358  0.36952625  0.51321489  1
  O  O234  1  0.73985479  0.86265548  0.01317125  1
  O  O235  1  0.73967134  0.87218968  0.50935925  1
  O  O236  1  0.12995830  0.48960610  0.25012886  1
  O  O237  1  0.13799060  0.49045063  0.75375487  1
  O  O238  1  0.11535886  0.98461974  0.24012676  1
  O  O239  1  0.12951500  0.97090675  0.79726212  1
  O  O240  1  0.64931295  0.49721140  0.29482174  1
  O  O241  1  0.63752494  0.49159963  0.74410356  1
  O  O242  1  0.61986412  1.01266413  0.24704193  1
  O  O243  1  0.60031026  0.97495235  0.73501029  1
  O  O244  1  0.38243069  0.02038410  0.25749589  1
  O  O245  1  0.38646738  0.01055461  0.75859055  1
  O  O246  1  0.37616789  0.51269330  0.25413807  1
  O  O247  1  0.37913443  0.49835727  0.74837746  1
  O  O248  1  0.88017369  0.00605608  0.26085039  1
  O  O249  1  0.86694837  0.01430222  0.74118672  1
  O  O250  1  0.88577857  0.50926864  0.27140953  1
  O  O251  1  0.86385194  0.49857553  0.75526565  1
  O  O252  1  0.13491610  0.36317349  0.34609177  1
  O  O253  1  0.12194287  0.36802804  0.86938980  1
  O  O254  1  0.11500192  0.87016721  0.36548729  1
  O  O255  1  0.12492562  0.90473673  0.83670548  1
  O  O256  1  0.61372078  0.36334684  0.38161070  1
  O  O257  1  0.62061694  0.37691411  0.86224792  1
  O  O258  1  0.63011658  0.85016762  0.37959740  1
  O  O259  1  0.60607571  0.85958009  0.86262769  1
  O  O260  1  0.37061704  0.11743710  0.13214728  1
  O  O261  1  0.38739072  0.12270617  0.64370052  1
  O  O262  1  0.35941608  0.64609800  0.14894622  1
  O  O263  1  0.37799442  0.62275061  0.63601023  1
  O  O264  1  0.88629706  0.12526296  0.13694375  1
  O  O265  1  0.88208340  0.12867411  0.63455171  1
  O  O266  1  0.90371576  0.62101323  0.11498171  1
  O  O267  1  0.88800858  0.63185020  0.62564729  1
  O  O268  1  0.24986872  0.23990615  0.10646896  1
  O  O269  1  0.23792099  0.32750988  0.54560773  1
  O  O270  1  0.26042178  0.76778628  0.13559991  1
  O  O271  1  0.26396601  0.73673566  0.62920901  1
  O  O272  1  0.74265816  0.27356509  0.13349419  1
  O  O273  1  0.75512875  0.26125210  0.61135345  1
  O  O274  1  0.74467047  0.76257297  0.11842210  1
  O  O275  1  0.75318516  0.74825625  0.61815651  1
  O  O276  1  0.23039434  0.23832952  0.37169317  1
  O  O277  1  0.24476335  0.24602276  0.88143323  1
  O  O278  1  0.23709102  0.75850673  0.37840071  1
  O  O279  1  0.22791346  0.75542751  0.86136985  1
  O  O280  1  0.73845912  0.26401022  0.38115181  1
  O  O281  1  0.79011157  0.24419217  0.89618762  1
  O  O282  1  0.73808219  0.73779687  0.36254509  1
  O  O283  1  0.72901471  0.75681313  0.89214111  1
  O  O284  1  -0.00815803  0.10825890  0.01391638  1
  O  O285  1  -0.00258278  0.12896439  0.50863594  1
  O  O286  1  0.01137582  0.61949940  -0.00170527  1
  O  O287  1  0.01500139  0.62816583  0.52549909  1
  O  O288  1  0.50476115  0.12365361  0.00382549  1
  O  O289  1  0.51505109  0.13273027  0.50996876  1
  O  O290  1  0.44759384  0.60431563  0.01913907  1
  O  O291  1  0.51110927  0.60219504  0.49348267  1
  O  O292  1  0.50305661  0.38366591  0.49106484  1
  O  O293  1  0.49527446  0.36215838  0.98874358  1
  O  O294  1  0.50512698  0.86825037  0.49026296  1
  O  O295  1  0.49642466  0.86603255  0.98351145  1
  O  O296  1  1.03021747  0.38578528  0.48381540  1
  O  O297  1  1.01616216  0.39635243  0.99479477  1
  O  O298  1  1.00479200  0.89206168  0.49121657  1
  O  O299  1  0.98451539  0.88753287  1.00218643  1
  O  O300  1  0.49610766  0.48421603  0.38365224  1
  O  O301  1  0.49378974  0.48000517  0.86564594  1
  O  O302  1  0.48988175  1.00309611  0.39359766  1
  O  O303  1  0.49565871  0.97967393  0.87024232  1
  O  O304  1  0.98984695  0.51625287  0.37342196  1
  O  O305  1  0.99983268  0.50059158  0.88567800  1
  O  O306  1  0.99274259  0.99190815  0.37669928  1
  O  O307  1  0.99394193  0.99004506  0.89677908  1
  O  O308  1  0.00866447  -0.00050972  0.11484116  1
  O  O309  1  -0.01210762  0.01033307  0.60800768  1
  O  O310  1  0.01632659  0.51562893  0.10691076  1
  O  O311  1  0.01436979  0.50788306  0.63498461  1
  O  O312  1  0.51135340  -0.00986897  0.13037784  1
  O  O313  1  0.47891774  -0.03469781  0.57064339  1
  O  O314  1  0.51031485  0.49540830  0.12099170  1
  O  O315  1  0.51018078  0.48644185  0.61196306  1
  O  O316  1  0.25867993  0.37323779  0.22839552  1
  O  O317  1  0.24233717  0.37215585  0.75018903  1
  O  O318  1  0.23978011  0.87891668  0.25756409  1
  O  O319  1  0.24536108  0.87414719  0.72057957  1
  O  O320  1  0.75341938  0.38255175  0.23466271  1
  O  O321  1  0.74550966  0.37824674  0.74124284  1
  O  O322  1  0.74391943  0.86641211  0.23963462  1
  O  O323  1  0.72792962  0.87269706  0.75014425  1
  O  O324  1  0.26628518  0.13090970  0.25876544  1
  O  O325  1  0.25724685  0.13545908  0.76452317  1
  O  O326  1  0.25707136  0.63521904  0.26905356  1
  O  O327  1  0.27431464  0.60734858  0.75832109  1
  O  O328  1  0.76845178  0.13545926  0.25098409  1
  O  O329  1  0.76814535  0.14076003  0.76171845  1
  O  O330  1  0.70277736  0.53238484  0.25767362  1
  O  O331  1  0.74657743  0.60914261  0.74607119  1
  O  O332  1  0.35590863  0.14080515  0.38613243  1
  O  O333  1  0.37233000  0.11270279  0.86363173  1
  O  O334  1  0.35915669  0.61926416  0.37288616  1
  O  O335  1  0.38862436  0.60028243  0.86448536  1
  O  O336  1  0.88222080  0.11573287  0.35857847  1
  O  O337  1  0.88261695  0.11307332  0.86319179  1
  O  O338  1  0.87620053  0.60858702  0.38277728  1
  O  O339  1  0.88599758  0.61410745  0.87067877  1
  O  O340  1  0.15061837  0.37818748  0.12539246  1
  O  O341  1  0.11578890  0.38702763  0.64014115  1
  O  O342  1  0.13840326  0.88003282  0.13727614  1
  O  O343  1  0.10595873  0.89528847  0.63878239  1
  O  O344  1  0.63029219  0.40286947  0.13043244  1
  O  O345  1  0.63480035  0.38220591  0.63654847  1
  O  O346  1  0.62944288  0.88874174  0.13128883  1
  O  O347  1  0.63625094  0.85835282  0.63376127  1
  O  O348  1  0.12630089  0.25395255  0.24615000  1
  O  O349  1  0.11564703  0.25657436  0.76278195  1
  O  O350  1  0.11892236  0.76443053  0.26108778  1
  O  O351  1  0.16903597  0.71454548  0.82292897  1
  O  O352  1  0.61064421  0.24399746  0.26713198  1
  O  O353  1  0.63792454  0.26118023  0.74629404  1
  O  O354  1  0.60676545  0.73743115  0.26216243  1
  O  O355  1  0.61190053  0.74564352  0.75699902  1
  O  O356  1  0.38458793  0.24306620  0.24811481  1
  O  O357  1  0.39085220  0.23067703  0.76052831  1
  O  O358  1  0.38344946  0.74744573  0.25868595  1
  O  O359  1  0.38387131  0.73097784  0.74712859  1
  O  O360  1  0.88596394  0.24308498  0.25756707  1
  O  O361  1  0.89345243  0.24677790  0.76008344  1
  O  O362  1  0.89211316  0.74547146  0.26158773  1
  O  O363  1  0.86518291  0.74682418  0.73178928  1
  O  O364  1  0.38571028  0.50093205  0.50093963  1
  O  O365  1  0.37504318  0.47322694  0.98062047  1
  O  O366  1  0.35994240  1.00870243  0.49739260  1
  O  O367  1  0.37496274  0.99924244  0.97245382  1
  O  O368  1  0.88723003  0.49936532  0.48173739  1
  O  O369  1  0.87332795  0.50770859  0.98543726  1
  O  O370  1  0.89024405  1.01500914  0.48002255  1
  O  O371  1  0.87117351  1.00033522  1.00834747  1
  O  O372  1  0.12396634  -0.01693475  0.01274873  1
  O  O373  1  0.09933327  0.02709021  0.48704644  1
  O  O374  1  0.13234966  0.51035777  -0.01634488  1
  O  O375  1  0.13572401  0.50387464  0.52261527  1
  O  O376  1  0.62380120  0.01324467  0.01925998  1
  O  O377  1  0.63234375  0.02175157  0.48691902  1
  O  O378  1  0.61779744  0.51081461  -0.00437211  1
  O  O379  1  0.62054027  0.50222034  0.50591350  1
  O  O380  1  0.37677508  0.37442620  0.11015714  1
  O  O381  1  0.37866906  0.34424769  0.62758971  1
  O  O382  1  0.36382549  0.87183891  0.13986915  1
  O  O383  1  0.37814254  0.85014569  0.63379530  1
  O  O384  1  0.86015281  0.39496143  0.11557531  1
  O  O385  1  0.86541197  0.38192010  0.62859517  1
  O  O386  1  0.85809450  0.88183944  0.13145913  1
  O  O387  1  0.85297871  0.86536931  0.62923278  1
  O  O388  1  0.12804389  0.13576007  0.37432493  1
  O  O389  1  0.13697759  0.13135976  0.86970405  1
  O  O390  1  0.13443793  0.64145697  0.37295449  1
  O  O391  1  0.13778199  0.65393232  0.87143511  1
  O  O392  1  0.62426731  0.14165440  0.38429191  1
  O  O393  1  0.62827139  0.12710447  0.89938155  1
  O  O394  1  0.62607029  0.62436490  0.38598289  1
  O  O395  1  0.61576416  0.63767689  0.87529564  1
