# generated using pymatgen
data_V35Zn35O128
_symmetry_space_group_name_H-M   'P 1'
_cell_length_a   16.81940215
_cell_length_b   16.81753534
_cell_length_c   16.81641690
_cell_angle_alpha   89.96588590
_cell_angle_beta   90.09268783
_cell_angle_gamma   90.03513788
_symmetry_Int_Tables_number   1
_chemical_formula_structural   V35Zn35O128
_chemical_formula_sum   'V70 Zn70 O256'
_cell_volume   4756.69869241
_cell_formula_units_Z   2
loop_
 _symmetry_equiv_pos_site_id
 _symmetry_equiv_pos_as_xyz
  1  'x, y, z'
loop_
 _atom_site_type_symbol
 _atom_site_label
 _atom_site_symmetry_multiplicity
 _atom_site_fract_x
 _atom_site_fract_y
 _atom_site_fract_z
 _atom_site_occupancy
  V  V0  1  0.38269605  0.49806790  0.38701340  1
  V  V1  1  0.62671487  -0.00072004  0.62794106  1
  V  V2  1  0.25004463  0.37743777  0.11229080  1
  V  V3  1  0.74840958  0.38461594  0.12838690  1
  V  V4  1  0.24726939  0.12082940  0.37561263  1
  V  V5  1  0.11668977  0.61981739  -0.00865453  1
  V  V6  1  0.74972005  0.11005568  0.38180759  1
  V  V7  1  -0.00225734  0.61175466  0.12317233  1
  V  V8  1  0.86877992  0.74824426  0.13006315  1
  V  V9  1  0.24264292  0.88722860  0.12098682  1
  V  V10  1  0.74267531  0.23856812  -0.01502899  1
  V  V11  1  0.24597042  0.63004889  0.87586493  1
  V  V12  1  0.25292925  0.73444719  0.49034443  1
  V  V13  1  0.27297053  0.87460168  0.62245901  1
  V  V14  1  0.74496697  0.64002044  0.88302708  1
  V  V15  1  0.02496931  0.00047071  0.00341690  1
  V  V16  1  -0.00112475  0.63351428  0.61920735  1
  V  V17  1  0.13060648  0.24992794  0.89326465  1
  V  V18  1  0.12463029  0.88341602  0.75240530  1
  V  V19  1  0.01742283  0.11763778  0.12604181  1
  V  V20  1  0.74595960  0.37728261  0.63074964  1
  V  V21  1  0.86989017  0.24484195  0.12335297  1
  V  V22  1  0.62094863  0.38478069  0.24685914  1
  V  V23  1  0.00038167  0.25015311  0.25233676  1
  V  V24  1  0.25328515  0.01108679  0.74888096  1
  V  V25  1  -0.01468008  0.89030002  0.38230399  1
  V  V26  1  0.11975566  0.36508708  0.74218473  1
  V  V27  1  0.87615888  0.37688415  0.49024859  1
  V  V28  1  0.25676085  0.13386187  0.88357242  1
  V  V29  1  -0.00644266  0.49752576  0.49180007  1
  V  V30  1  0.74196702  0.50287889  0.74771204  1
  V  V31  1  0.37708480  -0.01390195  0.37656673  1
  V  V32  1  0.35155604  0.73596663  0.11180165  1
  V  V33  1  0.38433700  0.64204067  0.74634414  1
  V  V34  1  0.76444541  0.86927893  0.61164770  1
  V  V35  1  0.55417208  0.61713692  0.57688312  1
  V  V36  1  0.23699118  0.61384475  0.35943781  1
  V  V37  1  0.38122513  0.14461481  0.74056831  1
  V  V38  1  -0.00242382  0.12859783  0.65479164  1
  V  V39  1  0.11665749  0.00844773  0.61300828  1
  V  V40  1  0.88389618  0.50258956  0.87760987  1
  V  V41  1  0.50101634  0.13458778  0.61905704  1
  V  V42  1  0.61013819  0.88157397  0.24918303  1
  V  V43  1  0.62272740  0.85437360  0.75451891  1
  V  V44  1  0.49350125  -0.02172566  0.50904803  1
  V  V45  1  0.88176967  0.63075770  0.74879534  1
  V  V46  1  0.27466025  0.25201782  0.50147207  1
  V  V47  1  0.11697787  0.25194827  0.38821710  1
  V  V48  1  0.12697062  0.50828075  0.62124097  1
  V  V49  1  0.75744533  0.62755277  0.35396670  1
  V  V50  1  0.86113552  0.87954668  -0.00504472  1
  V  V51  1  0.51737918  0.37785146  0.84350638  1
  V  V52  1  0.52440263  0.61923252  0.11912630  1
  V  V53  1  0.60302122  0.74578180  0.37248428  1
  V  V54  1  0.38005082  0.25522029  0.11216186  1
  V  V55  1  0.48729559  0.48795446  -0.00288666  1
  V  V56  1  0.88060168  0.25085203  0.64238144  1
  V  V57  1  0.74535920  0.88873037  0.13732221  1
  V  V58  1  0.62651485  0.24510313  0.37014644  1
  V  V59  1  0.39169133  0.14048358  0.25799355  1
  V  V60  1  0.26604871  0.37654127  0.61916535  1
  V  V61  1  0.00390000  0.87943167  0.88101772  1
  V  V62  1  0.13036039  0.38062940  0.24955644  1
  V  V63  1  0.76221195  0.00812434  0.76616695  1
  V  V64  1  0.00779321  0.75163799  0.25397936  1
  V  V65  1  0.00795351  0.75236015  0.75824735  1
  V  V66  1  0.00310672  0.37203513  0.87561837  1
  V  V67  1  0.86218542  0.10884014  0.24805990  1
  V  V68  1  0.88066034  0.37807340  0.00215224  1
  V  V69  1  0.59131692  0.10057156  0.00146670  1
  Zn  Zn70  1  0.48655646  0.36770434  0.36409019  1
  Zn  Zn71  1  0.43742098  -0.06559992  -0.07804411  1
  Zn  Zn72  1  0.38145289  0.61770895  0.24356639  1
  Zn  Zn73  1  0.75100493  0.24330041  0.50406241  1
  Zn  Zn74  1  0.26068379  0.49628000  0.76135202  1
  Zn  Zn75  1  0.13311025  0.88127088  0.25471746  1
  Zn  Zn76  1  0.19582564  0.19493069  0.19455983  1
  Zn  Zn77  1  0.18847750  0.19071980  0.67797144  1
  Zn  Zn78  1  0.17808084  0.67795951  0.18373407  1
  Zn  Zn79  1  0.19956213  0.69873050  0.69189111  1
  Zn  Zn80  1  0.67457653  0.17954477  0.18282285  1
  Zn  Zn81  1  0.68164224  0.18712632  0.70448525  1
  Zn  Zn82  1  0.68667490  0.69235498  0.19339825  1
  Zn  Zn83  1  0.68915360  0.68461235  0.67139857  1
  Zn  Zn84  1  0.30910440  0.31780628  0.31543176  1
  Zn  Zn85  1  0.31793390  0.31913282  0.81177647  1
  Zn  Zn86  1  0.31234924  0.79433941  0.30010495  1
  Zn  Zn87  1  0.32587769  0.79431404  0.85994818  1
  Zn  Zn88  1  0.80764556  0.30353610  0.30888362  1
  Zn  Zn89  1  0.81059177  0.31585696  0.81394789  1
  Zn  Zn90  1  0.80873863  0.81169320  0.31465881  1
  Zn  Zn91  1  0.81139283  0.81996001  0.80238198  1
  Zn  Zn92  1  0.18670076  0.43797024  0.43785265  1
  Zn  Zn93  1  0.18067047  0.44770221  0.94508837  1
  Zn  Zn94  1  0.18468604  0.93169064  0.44060666  1
  Zn  Zn95  1  0.22345600  0.92665768  0.92673070  1
  Zn  Zn96  1  0.69261802  0.43687763  0.42623290  1
  Zn  Zn97  1  0.68726995  0.43264784  0.93339353  1
  Zn  Zn98  1  0.67597756  0.92570293  0.43826478  1
  Zn  Zn99  1  0.67400558  0.94135281  0.93629648  1
  Zn  Zn100  1  0.31555011  0.07350039  0.07486784  1
  Zn  Zn101  1  0.31372433  0.06160789  0.56021736  1
  Zn  Zn102  1  0.30333147  0.54988507  0.05674590  1
  Zn  Zn103  1  0.32620659  0.57122855  0.56704057  1
  Zn  Zn104  1  0.81740346  0.05859610  0.05496133  1
  Zn  Zn105  1  0.81529670  0.06453572  0.57326117  1
  Zn  Zn106  1  0.81070649  0.56637752  0.06242728  1
  Zn  Zn107  1  0.75498985  0.55391401  0.53880262  1
  Zn  Zn108  1  0.43309693  0.44327412  0.18658531  1
  Zn  Zn109  1  0.44515523  0.46761504  0.68314019  1
  Zn  Zn110  1  0.40367158  0.92580486  0.19985439  1
  Zn  Zn111  1  0.44916872  0.94009426  0.72312608  1
  Zn  Zn112  1  0.92569609  0.43670165  0.20692854  1
  Zn  Zn113  1  0.93656688  0.44163813  0.68488734  1
  Zn  Zn114  1  0.94153581  0.93138473  0.18532170  1
  Zn  Zn115  1  0.93660179  0.93921407  0.68863576  1
  Zn  Zn116  1  0.06091987  0.06202931  0.31758732  1
  Zn  Zn117  1  0.06839468  0.06339540  0.82140093  1
  Zn  Zn118  1  0.05520618  0.56772514  0.30620022  1
  Zn  Zn119  1  0.07032113  0.55550005  0.80846836  1
  Zn  Zn120  1  0.56159351  0.05562356  0.32206638  1
  Zn  Zn121  1  0.56144212  0.06006679  0.82077148  1
  Zn  Zn122  1  0.56157387  0.56306975  0.31223970  1
  Zn  Zn123  1  0.55858720  0.56820029  0.82246431  1
  Zn  Zn124  1  0.44611988  0.18219519  0.43834200  1
  Zn  Zn125  1  0.44062289  0.19995067  0.93135313  1
  Zn  Zn126  1  0.42642998  0.69012971  0.43695373  1
  Zn  Zn127  1  0.41815218  0.65357467  0.96328355  1
  Zn  Zn128  1  0.92374570  0.18968094  0.43477889  1
  Zn  Zn129  1  0.94107425  0.18567603  0.93821771  1
  Zn  Zn130  1  0.94535029  0.67539044  0.42373385  1
  Zn  Zn131  1  0.93783345  0.69543307  0.94301832  1
  Zn  Zn132  1  0.06113541  0.31426198  0.06863609  1
  Zn  Zn133  1  0.05592271  0.31418427  0.56403250  1
  Zn  Zn134  1  0.07235596  0.80838338  0.06897978  1
  Zn  Zn135  1  0.07041237  0.81652804  0.55530490  1
  Zn  Zn136  1  0.56475583  0.30621276  0.06374593  1
  Zn  Zn137  1  0.57232872  0.30711553  0.56125306  1
  Zn  Zn138  1  0.53222009  0.82721267  0.10469354  1
  Zn  Zn139  1  0.56738697  0.80467293  0.56969644  1
  O  O140  1  0.11558490  0.13011964  0.13579908  1
  O  O141  1  0.10722833  0.12303435  0.62871224  1
  O  O142  1  0.10331192  0.61461811  0.12194166  1
  O  O143  1  0.11895810  0.61298492  0.62984191  1
  O  O144  1  0.62660036  0.12703020  0.09760075  1
  O  O145  1  0.61225827  0.11096973  0.63226940  1
  O  O146  1  0.62451535  0.62660235  0.12030322  1
  O  O147  1  0.66441317  0.61297620  0.58363772  1
  O  O148  1  0.37239616  0.38828154  0.37802796  1
  O  O149  1  0.40342186  0.35936493  0.87328096  1
  O  O150  1  0.36128834  0.88849446  0.36607614  1
  O  O151  1  0.33271812  0.89802642  0.89423634  1
  O  O152  1  0.86537674  0.36701502  0.39096976  1
  O  O153  1  0.88503208  0.38061400  0.88093809  1
  O  O154  1  0.88482317  0.87191252  0.37168450  1
  O  O155  1  0.88796666  0.87090491  0.88844113  1
  O  O156  1  0.26205618  0.01665651  0.39401092  1
  O  O157  1  0.23397165  0.02465485  0.85653857  1
  O  O158  1  0.25777703  0.50887070  0.38385110  1
  O  O159  1  0.22993857  0.51425059  0.86965127  1
  O  O160  1  0.73706441  0.01127868  0.38052143  1
  O  O161  1  0.74690597  -0.00235729  0.86544067  1
  O  O162  1  0.73372043  0.54181371  0.42728590  1
  O  O163  1  0.76333768  0.50324035  0.86198979  1
  O  O164  1  0.25197456  0.47813871  0.13014248  1
  O  O165  1  0.23618490  0.48852686  0.61350995  1
  O  O166  1  0.26380992  0.98681084  0.12452736  1
  O  O167  1  0.23325107  1.00998683  0.63253716  1
  O  O168  1  0.75653454  0.48362924  0.11964299  1
  O  O169  1  0.76403159  0.48975549  0.63652203  1
  O  O170  1  0.75163460  0.98747441  0.11931897  1
  O  O171  1  0.73745440  0.99803897  0.62336852  1
  O  O172  1  0.00591273  0.35519738  0.24162422  1
  O  O173  1  0.01312127  0.37771806  0.75663847  1
  O  O174  1  0.00235378  0.86616989  0.25748358  1
  O  O175  1  0.00415048  0.87363340  0.76035140  1
  O  O176  1  0.51717049  0.37718505  0.24617689  1
  O  O177  1  0.50642320  0.39402788  0.74472277  1
  O  O178  1  0.50946224  0.87424571  0.21487866  1
  O  O179  1  0.52293633  0.85320452  0.72999893  1
  O  O180  1  0.49095722  0.12630054  0.26272459  1
  O  O181  1  0.48631042  0.12541487  0.74052952  1
  O  O182  1  0.50218212  0.60868776  0.22309936  1
  O  O183  1  0.48347056  0.63469106  0.77062016  1
  O  O184  1  0.99144206  0.12830614  0.24054492  1
  O  O185  1  1.00027834  0.13202634  0.75357133  1
  O  O186  1  0.99631156  0.63865939  0.23810747  1
  O  O187  1  1.00239370  0.63332319  0.74437132  1
  O  O188  1  0.36985022  0.24501383  0.01333531  1
  O  O189  1  0.37303547  0.25892618  0.49441555  1
  O  O190  1  0.36990536  0.74596966  0.00700072  1
  O  O191  1  0.35416029  0.75858235  0.49570669  1
  O  O192  1  0.87441827  0.25749110  0.00698026  1
  O  O193  1  0.87389767  0.26244767  0.50996966  1
  O  O194  1  0.88661238  0.77186604  0.01465523  1
  O  O195  1  0.86586880  0.74009774  0.50490325  1
  O  O196  1  0.11731739  0.25149794  0.48968506  1
  O  O197  1  0.12754786  0.25276622  0.99221508  1
  O  O198  1  0.15657133  0.77449249  0.49511228  1
  O  O199  1  0.11323688  0.72321530  1.00828391  1
  O  O200  1  0.63872567  0.25999591  0.48127767  1
  O  O201  1  0.64216191  0.24972116  0.99980516  1
  O  O202  1  0.61925526  0.76393016  0.47272962  1
  O  O203  1  0.59205380  0.75546748  0.97240772  1
  O  O204  1  0.48132327  0.26000816  0.12623246  1
  O  O205  1  0.50632510  0.23513849  0.61672354  1
  O  O206  1  0.49175686  0.72049107  0.10827640  1
  O  O207  1  0.53976944  0.70727380  0.62417142  1
  O  O208  1  0.99267757  0.23576368  0.12933018  1
  O  O209  1  0.99215789  0.23793525  0.62358283  1
  O  O210  1  0.99016682  0.74762204  0.13474915  1
  O  O211  1  1.01077802  0.73674469  0.62658127  1
  O  O212  1  0.00914415  0.23518702  0.36860879  1
  O  O213  1  0.01620050  0.26150009  0.87966292  1
  O  O214  1  -0.00399674  0.75143303  0.35875542  1
  O  O215  1  0.00397968  0.76397954  0.86852311  1
  O  O216  1  0.51928828  0.25586711  0.38561890  1
  O  O217  1  0.49077999  0.27248647  0.86169704  1
  O  O218  1  0.50237608  0.74238495  0.36391844  1
  O  O219  1  0.53424359  0.79041580  0.94123787  1
  O  O220  1  0.25879465  0.14399888  0.49506799  1
  O  O221  1  0.26446483  0.11652655  0.98137186  1
  O  O222  1  0.24636396  0.63250427  0.50404848  1
  O  O223  1  0.23010228  0.61270782  0.98933551  1
  O  O224  1  0.76484663  0.12427051  0.48635291  1
  O  O225  1  0.76253704  0.13842840  0.99632676  1
  O  O226  1  0.80381539  0.70121973  0.51567837  1
  O  O227  1  0.75674327  0.62452581  0.98239833  1
  O  O228  1  0.23899669  0.37386156  0.01167231  1
  O  O229  1  0.24624682  0.36437623  0.50993954  1
  O  O230  1  0.22561529  0.86624546  0.02119932  1
  O  O231  1  0.25819186  0.89847444  0.52387250  1
  O  O232  1  0.76161720  0.36386168  0.00812398  1
  O  O233  1  0.76351073  0.38431639  0.51563594  1
  O  O234  1  0.75908492  0.87992834  0.00099099  1
  O  O235  1  0.74785615  0.87787984  0.51098354  1
  O  O236  1  0.10711016  0.47726361  0.25776901  1
  O  O237  1  0.12808464  0.48796830  0.73313430  1
  O  O238  1  0.13962278  0.99484123  0.27469769  1
  O  O239  1  0.12895053  1.00158615  0.74217861  1
  O  O240  1  0.63404875  0.48295827  0.25804737  1
  O  O241  1  0.64457183  0.51136639  0.74979521  1
  O  O242  1  0.61800339  0.98340953  0.25455221  1
  O  O243  1  0.62926421  0.99210872  0.73682551  1
  O  O244  1  0.38022885  0.01341045  0.27120787  1
  O  O245  1  0.35459782  0.01465757  0.74449443  1
  O  O246  1  0.37507280  0.50252470  0.26517455  1
  O  O247  1  0.36865187  0.52515840  0.74417132  1
  O  O248  1  0.87602673  0.01113244  0.24075567  1
  O  O249  1  0.86281454  -0.00264380  0.75305850  1
  O  O250  1  0.85690834  0.46881973  0.28785334  1
  O  O251  1  0.87870836  0.51059738  0.75990074  1
  O  O252  1  0.12630098  0.35854830  0.36892771  1
  O  O253  1  0.12355513  0.36730397  0.86492863  1
  O  O254  1  0.11206732  0.88766354  0.36776264  1
  O  O255  1  0.12252859  0.88687908  0.85987267  1
  O  O256  1  0.63908828  0.36349689  0.35812231  1
  O  O257  1  0.61952422  0.37448489  0.86166081  1
  O  O258  1  0.61705179  0.86716035  0.35779837  1
  O  O259  1  0.62897267  0.87487388  0.85468563  1
  O  O260  1  0.36812643  0.14264353  0.14912165  1
  O  O261  1  0.38569869  0.12213388  0.63198242  1
  O  O262  1  0.36723187  0.62600164  0.11603492  1
  O  O263  1  0.36986184  0.64270985  0.64279813  1
  O  O264  1  0.87885039  0.12943761  0.13325150  1
  O  O265  1  0.88521674  0.13865874  0.63238727  1
  O  O266  1  0.87835349  0.64249239  0.11718784  1
  O  O267  1  0.89458562  0.62033746  0.63897634  1
  O  O268  1  0.26337950  0.26243772  0.13567386  1
  O  O269  1  0.25203862  0.26201923  0.61133890  1
  O  O270  1  0.24914436  0.73855200  0.11758991  1
  O  O271  1  0.25079521  0.77100844  0.61896209  1
  O  O272  1  0.76211426  0.25240551  0.11788238  1
  O  O273  1  0.76420591  0.25981716  0.62891690  1
  O  O274  1  0.76376777  0.75981043  0.12919015  1
  O  O275  1  0.75786551  0.76900512  0.63078152  1
  O  O276  1  0.24128091  0.24704311  0.39061983  1
  O  O277  1  0.24116731  0.24636114  0.87213998  1
  O  O278  1  0.25562124  0.72646201  0.37837610  1
  O  O279  1  0.23078490  0.73117074  0.87888589  1
  O  O280  1  0.74463395  0.23560351  0.37649933  1
  O  O281  1  0.75474047  0.25336819  0.88541848  1
  O  O282  1  0.74546234  0.73327194  0.36853579  1
  O  O283  1  0.76599699  0.73833005  0.86931955  1
  O  O284  1  0.00026147  0.11377844  0.01512771  1
  O  O285  1  -0.03494338  0.09482422  0.50140069  1
  O  O286  1  -0.00470183  0.62225044  0.01337191  1
  O  O287  1  -0.00655788  0.61567279  0.51290841  1
  O  O288  1  0.49056337  0.12323253  -0.00096135  1
  O  O289  1  0.49556492  0.11229774  0.51623602  1
  O  O290  1  0.51001114  0.60110198  0.00056023  1
  O  O291  1  0.50917092  0.62345812  0.48608283  1
  O  O292  1  0.53063792  0.40410282  0.49977475  1
  O  O293  1  0.51307469  0.38403023  0.99636838  1
  O  O294  1  0.49121587  0.87940128  0.51728556  1
  O  O295  1  0.50420455  0.85872128  0.99063923  1
  O  O296  1  0.98844137  0.38476537  0.50136982  1
  O  O297  1  0.99052894  0.37106017  0.99396598  1
  O  O298  1  1.00204321  0.86784964  0.48168444  1
  O  O299  1  1.01128441  0.88558526  0.99571232  1
  O  O300  1  0.48949239  0.49422025  0.37187094  1
  O  O301  1  0.50494890  0.48512155  0.88181192  1
  O  O302  1  0.48938162  0.99614812  0.39474599  1
  O  O303  1  0.48199131  0.98065266  0.83088206  1
  O  O304  1  0.99982290  0.51082732  0.39363868  1
  O  O305  1  0.99400158  0.48673205  0.86954305  1
  O  O306  1  0.98958270  0.99218155  0.37143309  1
  O  O307  1  1.00669485  0.99374821  0.89123300  1
  O  O308  1  0.00541571  0.00877922  0.11927477  1
  O  O309  1  0.00564896  0.01855179  0.63584811  1
  O  O310  1  -0.02556768  0.51450485  0.13762902  1
  O  O311  1  0.00989975  0.50942389  0.62108833  1
  O  O312  1  0.45719778  -0.01958705  0.09352479  1
  O  O313  1  0.50676622  0.00136456  0.62274597  1
  O  O314  1  0.49612393  0.50475967  0.10919067  1
  O  O315  1  0.51468296  0.53809605  0.62781472  1
  O  O316  1  0.23324768  0.37495072  0.25248014  1
  O  O317  1  0.24216238  0.37650631  0.73515380  1
  O  O318  1  0.24854385  0.86223936  0.23377564  1
  O  O319  1  0.23883728  0.89699577  0.73523267  1
  O  O320  1  0.75134296  0.37063661  0.23332160  1
  O  O321  1  0.76025740  0.39075168  0.74153921  1
  O  O322  1  0.74547496  0.88139714  0.24080881  1
  O  O323  1  0.74586085  0.88972124  0.73729319  1
  O  O324  1  0.26045931  0.13218435  0.27231935  1
  O  O325  1  0.25615390  0.12549170  0.74601633  1
  O  O326  1  0.24364665  0.61707332  0.25735812  1
  O  O327  1  0.24610985  0.62335144  0.76131563  1
  O  O328  1  0.75796968  0.12262091  0.25117323  1
  O  O329  1  0.74735809  0.10797809  0.74436425  1
  O  O330  1  0.74984935  0.61357952  0.25382659  1
  O  O331  1  0.76562087  0.61600238  0.75007993  1
  O  O332  1  0.36897129  0.12276833  0.37302134  1
  O  O333  1  0.36153797  0.13822928  0.85688100  1
  O  O334  1  0.36545921  0.61253448  0.36939184  1
  O  O335  1  0.35230920  0.62452638  0.87435065  1
  O  O336  1  0.86231768  0.12599435  0.35774996  1
  O  O337  1  0.88888191  0.12322341  0.86308753  1
  O  O338  1  0.85827568  0.62481236  0.37386315  1
  O  O339  1  0.87831780  0.61916639  0.86807054  1
  O  O340  1  0.13507723  0.36324566  0.13996586  1
  O  O341  1  0.12445574  0.37892774  0.63325650  1
  O  O342  1  0.13258577  0.87818797  0.13700332  1
  O  O343  1  0.11484561  0.89715058  0.63407026  1
  O  O344  1  0.64040478  0.36609131  0.13505276  1
  O  O345  1  0.64721945  0.37059129  0.62540578  1
  O  O346  1  0.64069156  0.86696732  0.13120087  1
  O  O347  1  0.63706488  0.88315949  0.63022093  1
  O  O348  1  0.11701184  0.25306099  0.26291785  1
  O  O349  1  0.12868182  0.26357954  0.74894249  1
  O  O350  1  0.11059530  0.75166244  0.24481928  1
  O  O351  1  0.11548992  0.76822425  0.73950437  1
  O  O352  1  0.63134347  0.25475794  0.26121403  1
  O  O353  1  0.61478047  0.26465695  0.74324174  1
  O  O354  1  0.62648063  0.76659954  0.25643391  1
  O  O355  1  0.64638971  0.75567334  0.74882831  1
  O  O356  1  0.38171665  0.24292125  0.26650015  1
  O  O357  1  0.36969587  0.24296426  0.73651631  1
  O  O358  1  0.37440956  0.73363033  0.22499650  1
  O  O359  1  0.36427430  0.74230959  0.76861807  1
  O  O360  1  0.88228672  0.24138876  0.24091183  1
  O  O361  1  0.88068149  0.25986228  0.74134969  1
  O  O362  1  0.88366368  0.75943689  0.23473485  1
  O  O363  1  0.89470154  0.74295723  0.75259866  1
  O  O364  1  0.37774701  0.50662031  0.48978186  1
  O  O365  1  0.38567827  0.49395553  0.99391447  1
  O  O366  1  0.38505759  1.00004431  0.49378570  1
  O  O367  1  0.41160675  0.99657859  1.03294781  1
  O  O368  1  0.88568458  0.48832134  0.50807546  1
  O  O369  1  0.86869753  0.48891052  0.98821282  1
  O  O370  1  0.91512404  1.03550398  0.50484652  1
  O  O371  1  0.89006826  0.98088328  1.00719654  1
  O  O372  1  0.12188048  0.00425280  0.00060377  1
  O  O373  1  0.12169905  0.00578920  0.51456070  1
  O  O374  1  0.10736881  0.51373692  0.00230227  1
  O  O375  1  0.10885632  0.48785505  0.51381513  1
  O  O376  1  0.60059054  -0.00307908  0.00165549  1
  O  O377  1  0.60718646  -0.00957434  0.51376751  1
  O  O378  1  0.61201870  0.48042043  0.00320643  1
  O  O379  1  0.58394281  0.46013037  0.49515952  1
  O  O380  1  0.36294642  0.36589578  0.13005586  1
  O  O381  1  0.36302668  0.38981527  0.62644483  1
  O  O382  1  0.35512033  0.85258295  0.12465197  1
  O  O383  1  0.36878629  0.88987061  0.64328824  1
  O  O384  1  0.87025853  0.36589345  0.12015418  1
  O  O385  1  0.87704960  0.36410299  0.62073636  1
  O  O386  1  0.86377650  0.87137498  0.11793212  1
  O  O387  1  0.86549718  0.88871271  0.61829305  1
  O  O388  1  0.13925911  0.13679102  0.37594384  1
  O  O389  1  0.13540383  0.14463038  0.87169368  1
  O  O390  1  0.13657183  0.61424870  0.37465767  1
  O  O391  1  0.11678892  0.62576939  0.88401143  1
  O  O392  1  0.63727554  0.13360278  0.36880471  1
  O  O393  1  0.61667937  0.12016803  0.89923810  1
  O  O394  1  0.63034920  0.64074282  0.36039783  1
  O  O395  1  0.64645563  0.62692904  0.86678780  1
