# generated using pymatgen
data_V35Zn35O128
_symmetry_space_group_name_H-M   'P 1'
_cell_length_a   16.88461407
_cell_length_b   16.85391155
_cell_length_c   16.87298557
_cell_angle_alpha   89.98983180
_cell_angle_beta   89.92679473
_cell_angle_gamma   89.96855806
_symmetry_Int_Tables_number   1
_chemical_formula_structural   V35Zn35O128
_chemical_formula_sum   'V70 Zn70 O256'
_cell_volume   4801.57102434
_cell_formula_units_Z   2
loop_
 _symmetry_equiv_pos_site_id
 _symmetry_equiv_pos_as_xyz
  1  'x, y, z'
loop_
 _atom_site_type_symbol
 _atom_site_label
 _atom_site_symmetry_multiplicity
 _atom_site_fract_x
 _atom_site_fract_y
 _atom_site_fract_z
 _atom_site_occupancy
  V  V0  1  0.25072418  0.74374656  -0.00486738  1
  V  V1  1  0.13391196  0.11976123  0.00300083  1
  V  V2  1  0.74975858  0.22008554  -0.00730497  1
  V  V3  1  -0.00311326  0.12084621  0.12980031  1
  V  V4  1  0.74075130  0.01782548  0.25700991  1
  V  V5  1  0.62886150  0.36614570  0.76359668  1
  V  V6  1  0.62013837  0.00734842  0.12144329  1
  V  V7  1  0.25243146  0.36062129  0.63708063  1
  V  V8  1  0.75400130  0.50033922  0.75188229  1
  V  V9  1  0.62325655  0.11604326  0.49215428  1
  V  V10  1  0.00635798  0.12769324  0.63372964  1
  V  V11  1  0.37489172  0.36561664  0.49657416  1
  V  V12  1  0.00100732  0.50564143  0.49781621  1
  V  V13  1  0.26100084  0.78622219  0.50097718  1
  V  V14  1  0.86044283  0.25743009  0.13801045  1
  V  V15  1  0.37506206  0.01818352  0.87556077  1
  V  V16  1  0.87519624  0.37228298  0.49087461  1
  V  V17  1  0.38355217  0.86844944  -0.01415898  1
  V  V18  1  0.24270492  0.12361060  0.35015006  1
  V  V19  1  0.00301738  0.63039429  0.62960651  1
  V  V20  1  0.37521641  0.50598995  0.83672549  1
  V  V21  1  0.63110056  0.21699279  0.87589806  1
  V  V22  1  0.01943168  0.25941171  0.25084280  1
  V  V23  1  0.61222459  0.50527138  0.63262637  1
  V  V24  1  0.13137626  0.50055464  0.63333820  1
  V  V25  1  0.37930686  0.75727227  0.65118055  1
  V  V26  1  0.10259873  0.36427210  0.75587260  1
  V  V27  1  0.87695592  0.23952129  0.63867008  1
  V  V28  1  0.11774245  0.24477511  0.88571421  1
  V  V29  1  0.87282111  0.75831930  0.61420786  1
  V  V30  1  0.73211072  -0.00115623  0.75031489  1
  V  V31  1  0.48194978  0.36327672  0.88572354  1
  V  V32  1  0.49338122  0.49455269  0.49234921  1
  V  V33  1  0.74887375  0.75846000  -0.00087993  1
  V  V34  1  0.88105245  0.87720365  0.00323583  1
  V  V35  1  0.01828194  0.37425564  0.37268316  1
  V  V36  1  0.74170827  0.24610734  0.48455301  1
  V  V37  1  0.24692965  0.87952803  0.13127394  1
  V  V38  1  0.12705854  0.62598193  -0.00359517  1
  V  V39  1  0.13249766  0.86467954  0.75405879  1
  V  V40  1  0.35071014  0.38489822  0.00284610  1
  V  V41  1  0.24748807  0.62382154  0.84882748  1
  V  V42  1  0.00580283  0.86106331  0.87073797  1
  V  V43  1  0.61670820  0.86678738  0.24880163  1
  V  V44  1  0.24271402  0.01975006  0.76872640  1
  V  V45  1  0.85499757  0.37531882  -0.00370379  1
  V  V46  1  0.50323823  0.01265005  -0.00921327  1
  V  V47  1  0.36875960  0.00134817  0.34892982  1
  V  V48  1  0.39089973  0.74593341  0.13106674  1
  V  V49  1  0.73784108  0.87684056  0.61630588  1
  V  V50  1  0.00914082  0.49067955  -0.00181356  1
  V  V51  1  0.23597956  0.23760920  0.49812388  1
  V  V52  1  0.88038012  0.63732244  0.75157604  1
  V  V53  1  0.49144851  0.12863615  0.62906504  1
  V  V54  1  0.48645026  0.23687053  0.75529883  1
  V  V55  1  0.50240422  0.25334298  0.27066116  1
  V  V56  1  0.61896709  0.61766879  -0.00468954  1
  V  V57  1  0.24008275  0.50609764  0.26541703  1
  V  V58  1  0.75158126  0.36691540  0.63026827  1
  V  V59  1  0.74874244  0.63248373  0.87317489  1
  V  V60  1  0.87712380  0.00949499  0.86046965  1
  V  V61  1  0.88177346  0.49500762  0.87188701  1
  V  V62  1  0.13223023  0.75573903  0.35603276  1
  V  V63  1  0.88168255  0.74783409  0.13146922  1
  V  V64  1  0.13574975  0.00259667  0.62268036  1
  V  V65  1  -0.01227253  -0.00832380  0.50349570  1
  V  V66  1  0.50177850  0.59419246  0.12390343  1
  V  V67  1  0.00400064  0.62513406  0.13353435  1
  V  V68  1  0.47987013  0.00001518  0.50314290  1
  V  V69  1  0.22603645  0.37967421  0.13311688  1
  Zn  Zn70  1  0.37880503  0.61050652  0.24688303  1
  Zn  Zn71  1  0.36566486  0.24856301  0.14381314  1
  Zn  Zn72  1  0.00187353  0.00004163  0.00054018  1
  Zn  Zn73  1  0.49797353  0.88016501  0.37733852  1
  Zn  Zn74  1  0.87729794  0.00223795  0.37227892  1
  Zn  Zn75  1  0.48999673  0.13533040  0.13093431  1
  Zn  Zn76  1  0.18588843  0.19106044  0.17642135  1
  Zn  Zn77  1  0.18301636  0.19058345  0.69572225  1
  Zn  Zn78  1  0.19357055  0.68472410  0.18102436  1
  Zn  Zn79  1  0.19039247  0.69935845  0.65029404  1
  Zn  Zn80  1  0.67063828  0.19428168  0.18286261  1
  Zn  Zn81  1  0.68060955  0.17584383  0.68292027  1
  Zn  Zn82  1  0.68120488  0.68906239  0.16891725  1
  Zn  Zn83  1  0.68655511  0.69190101  0.68274914  1
  Zn  Zn84  1  0.29809505  0.31484479  0.32024526  1
  Zn  Zn85  1  0.30300578  0.30414849  0.82214268  1
  Zn  Zn86  1  0.31567308  0.80938659  0.31650340  1
  Zn  Zn87  1  0.30742247  0.81387816  0.81008231  1
  Zn  Zn88  1  0.79158914  0.34154879  0.31110458  1
  Zn  Zn89  1  0.81437913  0.30501348  0.81964304  1
  Zn  Zn90  1  0.81399075  0.84062437  0.29001511  1
  Zn  Zn91  1  0.81068639  0.82269749  0.81195704  1
  Zn  Zn92  1  0.19167368  0.43763926  0.45156946  1
  Zn  Zn93  1  0.19073341  0.44196032  0.92092952  1
  Zn  Zn94  1  0.17898780  0.94284309  0.42120436  1
  Zn  Zn95  1  0.18832189  0.93477895  0.94517787  1
  Zn  Zn96  1  0.68576038  0.44143032  0.45501304  1
  Zn  Zn97  1  0.63714424  0.39955723  0.99447645  1
  Zn  Zn98  1  0.68772629  0.93303232  0.43126241  1
  Zn  Zn99  1  0.69005487  0.94456663  0.93419280  1
  Zn  Zn100  1  0.31630482  0.06062184  0.06893473  1
  Zn  Zn101  1  0.31034810  0.06682438  0.57226482  1
  Zn  Zn102  1  0.31265126  0.55580473  0.06173374  1
  Zn  Zn103  1  0.34023086  0.54212195  0.61821427  1
  Zn  Zn104  1  0.82187090  0.05654844  0.08617972  1
  Zn  Zn105  1  0.80812631  0.05810862  0.56486396  1
  Zn  Zn106  1  0.81774402  0.56669520  0.05792582  1
  Zn  Zn107  1  0.82097105  0.55815709  0.57098802  1
  Zn  Zn108  1  0.40189023  0.40288289  0.21766268  1
  Zn  Zn109  1  0.44100888  0.41545483  0.69168047  1
  Zn  Zn110  1  0.44255030  0.93110391  0.17893388  1
  Zn  Zn111  1  0.42613891  0.95277131  0.69449245  1
  Zn  Zn112  1  1.05791769  0.44873401  0.18719996  1
  Zn  Zn113  1  0.93562104  0.43790688  0.68026254  1
  Zn  Zn114  1  0.92304779  0.93931258  0.20263910  1
  Zn  Zn115  1  0.94676858  0.93586196  0.68806604  1
  Zn  Zn116  1  0.03151396  0.09473050  0.34495320  1
  Zn  Zn117  1  0.05511387  0.06234957  0.81702812  1
  Zn  Zn118  1  0.07116105  0.57696549  0.32352796  1
  Zn  Zn119  1  0.06560908  0.56268214  0.81051684  1
  Zn  Zn120  1  0.55609572  0.07116724  0.31267328  1
  Zn  Zn121  1  0.57453927  -0.11738232  0.80711819  1
  Zn  Zn122  1  0.54116138  0.48337452  0.28507836  1
  Zn  Zn123  1  0.58909309  0.52099433  0.85605646  1
  Zn  Zn124  1  0.42607340  0.18418374  0.43567616  1
  Zn  Zn125  1  0.41207179  0.18845581  0.97316236  1
  Zn  Zn126  1  0.43767861  0.68286583  0.52306186  1
  Zn  Zn127  1  0.43704707  0.68578014  0.91907906  1
  Zn  Zn128  1  0.92712463  0.17639766  0.45099019  1
  Zn  Zn129  1  0.94274944  0.18949596  0.93624684  1
  Zn  Zn130  1  0.95589376  0.70919297  0.44740018  1
  Zn  Zn131  1  0.93746348  0.68491380  0.94066729  1
  Zn  Zn132  1  0.05246998  0.30546328  0.05771221  1
  Zn  Zn133  1  0.06171873  0.31304472  0.56373330  1
  Zn  Zn134  1  0.06507105  0.80889153  0.06121551  1
  Zn  Zn135  1  0.07866007  0.81792692  0.55925084  1
  Zn  Zn136  1  0.56087714  0.33957580  0.14240291  1
  Zn  Zn137  1  0.56205868  0.31013872  0.56908090  1
  Zn  Zn138  1  0.56909759  0.81903839  0.05377207  1
  Zn  Zn139  1  0.52645920  0.84761438  0.61310596  1
  O  O140  1  0.10895132  0.13317085  0.11446197  1
  O  O141  1  0.11554228  0.11720359  0.63238230  1
  O  O142  1  0.11370309  0.62978097  0.11038288  1
  O  O143  1  0.11964801  0.60800097  0.63417161  1
  O  O144  1  0.60655106  0.11292698  0.12491984  1
  O  O145  1  0.60590706  0.13871337  0.60497084  1
  O  O146  1  0.61248108  0.61835284  0.10726633  1
  O  O147  1  0.63311350  0.60357594  0.63067847  1
  O  O148  1  0.35895313  0.38187415  0.39945248  1
  O  O149  1  0.36876872  0.39607814  0.85526968  1
  O  O150  1  0.37939614  0.89422097  0.36574044  1
  O  O151  1  0.37185623  0.87672254  0.88453598  1
  O  O152  1  0.87308521  0.38048194  0.38818136  1
  O  O153  1  0.87231854  0.38554522  0.88128782  1
  O  O154  1  0.90261401  0.90780457  0.31085550  1
  O  O155  1  0.88798754  0.88077578  0.88268811  1
  O  O156  1  0.25743561  0.00816957  0.36324808  1
  O  O157  1  0.25773459  0.00115947  0.87550517  1
  O  O158  1  0.23521350  0.49808505  0.36630266  1
  O  O159  1  0.26081337  0.51257277  0.85950401  1
  O  O160  1  0.75657542  0.00214727  0.36008455  1
  O  O161  1  0.76729203  -0.00949649  0.86254336  1
  O  O162  1  0.74501186  0.54566660  0.42666497  1
  O  O163  1  0.76217464  0.51095851  0.86071086  1
  O  O164  1  0.24591915  0.48358130  0.12453860  1
  O  O165  1  0.23478319  0.48578069  0.62207847  1
  O  O166  1  0.26084895  0.97970171  0.12113236  1
  O  O167  1  0.24075298  1.01092511  0.64764681  1
  O  O168  1  0.75316749  0.52523795  0.14656710  1
  O  O169  1  0.74867737  0.48638544  0.63470750  1
  O  O170  1  0.71969774  1.00477718  0.11109901  1
  O  O171  1  0.75146593  0.98659277  0.63546605  1
  O  O172  1  0.00296066  0.37679722  0.26302098  1
  O  O173  1  0.00346640  0.37400464  0.74533481  1
  O  O174  1  0.06323812  0.91152735  0.24210348  1
  O  O175  1  0.01312074  0.87702036  0.76444956  1
  O  O176  1  0.51066768  0.38360043  0.23992448  1
  O  O177  1  0.50826566  0.35524619  0.76324795  1
  O  O178  1  0.50791979  0.87592599  0.25557026  1
  O  O179  1  0.50762123  0.88198563  0.72312365  1
  O  O180  1  0.49119933  0.14740805  0.25401187  1
  O  O181  1  0.50351225  0.13206806  0.73856430  1
  O  O182  1  0.50097857  0.58401798  0.22890904  1
  O  O183  1  0.54967716  0.70584065  0.78757961  1
  O  O184  1  1.00889428  0.14861423  0.23772448  1
  O  O185  1  0.99745126  0.12076732  0.73422208  1
  O  O186  1  1.00361961  0.61156772  0.23148935  1
  O  O187  1  0.99164914  0.61931739  0.74185632  1
  O  O188  1  0.39438021  0.29865553  -0.04729309  1
  O  O189  1  0.36027130  0.25913093  0.50178196  1
  O  O190  1  0.37532734  0.75540159  -0.00441655  1
  O  O191  1  0.36023888  0.75768411  0.48386330  1
  O  O192  1  0.85963688  0.26005450  -0.01242239  1
  O  O193  1  0.86141522  0.25380033  0.50770822  1
  O  O194  1  0.87076976  0.75828825  0.00380324  1
  O  O195  1  0.87654137  0.74793428  0.51404017  1
  O  O196  1  0.13648357  0.25388222  0.50075249  1
  O  O197  1  0.11986083  0.23915056  0.99518219  1
  O  O198  1  0.15906305  0.74672945  0.52763281  1
  O  O199  1  0.13807389  0.73821873  0.99645362  1
  O  O200  1  0.64011125  0.25796011  0.50162565  1
  O  O201  1  0.64330179  0.23936173  0.98455977  1
  O  O202  1  0.60970367  0.73167823  0.44434266  1
  O  O203  1  0.64485321  0.74138000  1.00945847  1
  O  O204  1  0.48746844  0.25492484  0.14040488  1
  O  O205  1  0.50134924  0.24839006  0.64783145  1
  O  O206  1  0.49141163  0.74552557  0.11624527  1
  O  O207  1  0.48214568  0.74242263  0.61378008  1
  O  O208  1  0.98472693  0.25923226  0.14212764  1
  O  O209  1  0.98765066  0.23960418  0.61820190  1
  O  O210  1  0.99497200  0.73769908  0.12224976  1
  O  O211  1  0.99643792  0.73506229  0.61563312  1
  O  O212  1  -0.00515804  0.26542289  0.35897572  1
  O  O213  1  0.01338057  0.25844510  0.88181318  1
  O  O214  1  0.02485205  0.72148794  0.36572559  1
  O  O215  1  -0.00311371  0.76141583  0.87691419  1
  O  O216  1  0.49226287  0.25525822  0.37133315  1
  O  O217  1  0.52004390  0.24796861  0.86614793  1
  O  O218  1  0.54018013  0.74006881  0.42218108  1
  O  O219  1  0.51086252  0.74802774  0.84282081  1
  O  O220  1  0.24698500  0.13680527  0.50698116  1
  O  O221  1  0.23221338  0.12254769  1.01049770  1
  O  O222  1  0.31976361  0.61221206  0.41569628  1
  O  O223  1  0.24185915  0.62532242  0.99838366  1
  O  O224  1  0.73742850  0.13666772  0.50462505  1
  O  O225  1  0.76173074  0.12314250  0.99945598  1
  O  O226  1  0.75333086  0.59992818  0.48161549  1
  O  O227  1  0.74520761  0.63052441  0.99001538  1
  O  O228  1  0.24705319  0.37763759  0.00232961  1
  O  O229  1  0.25443798  0.36452334  0.51555041  1
  O  O230  1  0.26246689  0.86234305  0.00282883  1
  O  O231  1  0.25437834  0.88528002  0.49485668  1
  O  O232  1  0.75667166  0.37742237  -0.01040613  1
  O  O233  1  0.75569778  0.36629022  0.51160307  1
  O  O234  1  0.76225837  0.86279040  -0.00122550  1
  O  O235  1  0.75173263  0.88661778  0.51489743  1
  O  O236  1  0.13117736  0.50939844  0.24899371  1
  O  O237  1  0.11827726  0.48523577  0.73941028  1
  O  O238  1  0.10678896  0.96901115  0.25397460  1
  O  O239  1  0.13432420  1.00030837  0.75522696  1
  O  O240  1  0.65948793  0.47475779  0.30513678  1
  O  O241  1  0.63686758  0.48979730  0.74789733  1
  O  O242  1  0.62153254  1.00158404  0.23915494  1
  O  O243  1  0.63565046  0.98621128  0.76319912  1
  O  O244  1  0.38347986  0.00683192  0.25074149  1
  O  O245  1  0.35715966  0.00550617  0.76691248  1
  O  O246  1  0.35045534  0.49584134  0.25206916  1
  O  O247  1  0.37280221  0.50686186  0.73453860  1
  O  O248  1  0.83219871  0.01537811  0.20560034  1
  O  O249  1  0.87986693  -0.00013615  0.75915998  1
  O  O250  1  0.79649960  0.48247993  0.20171562  1
  O  O251  1  0.87067903  0.50678895  0.75231599  1
  O  O252  1  0.11552609  0.37293339  0.38252476  1
  O  O253  1  0.12097230  0.37360172  0.86023729  1
  O  O254  1  0.11758122  0.85301817  0.38698469  1
  O  O255  1  0.11473000  0.87603946  0.87103531  1
  O  O256  1  0.68095636  0.40730327  0.34496866  1
  O  O257  1  0.62093866  0.38396335  0.86685303  1
  O  O258  1  0.61644964  0.87972958  0.35951944  1
  O  O259  1  0.62410046  0.86216803  0.90014101  1
  O  O260  1  0.38127852  0.15133574  0.08230197  1
  O  O261  1  0.39112659  0.13593010  0.62003685  1
  O  O262  1  0.39222152  0.62902672  0.11238039  1
  O  O263  1  0.36321296  0.64954371  0.61283361  1
  O  O264  1  0.88792703  0.14986031  0.12146330  1
  O  O265  1  0.87776284  0.13583256  0.62382742  1
  O  O266  1  0.89374606  0.63568628  0.11228802  1
  O  O267  1  0.88151502  0.63398809  0.63340652  1
  O  O268  1  0.25037832  0.27386494  0.12965626  1
  O  O269  1  0.24147770  0.25567625  0.61896423  1
  O  O270  1  0.26859709  0.74523328  0.10806399  1
  O  O271  1  0.27297645  0.76856149  0.61445315  1
  O  O272  1  0.75656698  0.24027889  0.10745108  1
  O  O273  1  0.75812186  0.25498179  0.62439379  1
  O  O274  1  0.76885662  0.73550717  0.10722663  1
  O  O275  1  0.76431140  0.75869382  0.62792268  1
  O  O276  1  0.25037416  0.23360280  0.38662712  1
  O  O277  1  0.22112173  0.25281449  0.87510450  1
  O  O278  1  0.24062400  0.75670446  0.38944311  1
  O  O279  1  0.26083178  0.73088913  0.88405270  1
  O  O280  1  0.75215469  0.25874395  0.38661953  1
  O  O281  1  0.74358942  0.23838418  0.88058285  1
  O  O282  1  0.78543592  0.74532725  0.37367338  1
  O  O283  1  0.76344603  0.74249724  0.88736057  1
  O  O284  1  0.00100588  0.12415655  0.01747428  1
  O  O285  1  -0.00299065  0.11024015  0.52117255  1
  O  O286  1  0.01127389  0.61680118  -0.00149531  1
  O  O287  1  -0.00811208  0.60919679  0.50809720  1
  O  O288  1  0.50359056  0.11254606  -0.01359086  1
  O  O289  1  0.50261652  0.12103577  0.50567557  1
  O  O290  1  0.51771689  0.63678262  -0.01181269  1
  O  O291  1  0.50191234  0.59423214  0.50321726  1
  O  O292  1  0.48159639  0.37102733  0.51485809  1
  O  O293  1  0.51673218  0.38393956  0.97663028  1
  O  O294  1  0.50677419  0.89974696  0.50349760  1
  O  O295  1  0.48539764  0.87813490  0.99842334  1
  O  O296  1  0.99390297  0.37506182  0.48864182  1
  O  O297  1  0.99412614  0.38912164  1.00031691  1
  O  O298  1  1.00270389  0.89200406  0.52327351  1
  O  O299  1  0.99822930  0.87583478  0.99067969  1
  O  O300  1  0.50109583  0.48346871  0.39378679  1
  O  O301  1  0.47996542  0.48872578  0.85562327  1
  O  O302  1  0.48174306  1.01040615  0.38715392  1
  O  O303  1  0.47996346  0.99577491  0.88345246  1
  O  O304  1  1.00774139  0.49271246  0.39070074  1
  O  O305  1  0.98927148  0.50843287  0.88507889  1
  O  O306  1  1.02675254  0.99634717  0.40932952  1
  O  O307  1  0.98831224  0.98899773  0.87924919  1
  O  O308  1  -0.01389153  0.01988344  0.13838314  1
  O  O309  1  0.01113480  0.00983487  0.62363469  1
  O  O310  1  -0.00116263  0.51199487  0.10645691  1
  O  O311  1  0.00729487  0.50762969  0.61972123  1
  O  O312  1  0.49195323  0.00780391  0.10436965  1
  O  O313  1  0.49321449  0.01786538  0.61488704  1
  O  O314  1  0.49463801  0.50333122  0.09488467  1
  O  O315  1  0.51220613  0.49511078  0.64451217  1
  O  O316  1  0.23988605  0.38665160  0.24068678  1
  O  O317  1  0.23754966  0.36408118  0.73868530  1
  O  O318  1  0.26108628  0.86238032  0.22953549  1
  O  O319  1  0.23472229  0.88955046  0.76415537  1
  O  O320  1  0.76549586  0.41214158  0.21444861  1
  O  O321  1  0.74908345  0.37937826  0.74898481  1
  O  O322  1  0.72519592  0.89691105  0.24510618  1
  O  O323  1  0.75608536  0.88403814  0.73580301  1
  O  O324  1  0.25414869  0.13800694  0.25127265  1
  O  O325  1  0.24226694  0.11941904  0.76350812  1
  O  O326  1  0.25557415  0.61004198  0.24248411  1
  O  O327  1  0.24004220  0.63614060  0.75222423  1
  O  O328  1  0.72434669  0.11745115  0.25019435  1
  O  O329  1  0.74345332  0.10093867  0.73867257  1
  O  O330  1  0.70616895  0.62010749  0.27347402  1
  O  O331  1  0.75946859  0.62048284  0.75306815  1
  O  O332  1  0.35713977  0.11057973  0.37827807  1
  O  O333  1  0.37101958  0.11615261  0.88921259  1
  O  O334  1  0.38198417  0.62183310  0.37702817  1
  O  O335  1  0.36588609  0.61153866  0.86588688  1
  O  O336  1  0.91825969  0.10929152  0.36269189  1
  O  O337  1  0.88379339  0.10756861  0.88058176  1
  O  O338  1  0.83324646  0.68795537  0.37034992  1
  O  O339  1  0.87025118  0.61740471  0.86883522  1
  O  O340  1  0.12256864  0.37551184  0.12071940  1
  O  O341  1  0.12643627  0.37815011  0.63715276  1
  O  O342  1  0.14707892  0.86513056  0.11388306  1
  O  O343  1  0.11929815  0.89567723  0.64685201  1
  O  O344  1  0.64630144  0.39096651  0.10433957  1
  O  O345  1  0.63516466  0.37444905  0.64448560  1
  O  O346  1  0.60392113  0.89444373  0.13479963  1
  O  O347  1  0.64076772  0.85970704  0.62153909  1
  O  O348  1  0.11699011  0.26083101  0.24698798  1
  O  O349  1  0.11397877  0.25831303  0.75831400  1
  O  O350  1  0.13993559  0.75227849  0.25588031  1
  O  O351  1  0.13621301  0.76708144  0.73661418  1
  O  O352  1  0.60600667  0.26185398  0.24786515  1
  O  O353  1  0.63337482  0.25147629  0.76392761  1
  O  O354  1  0.63035369  0.76787090  0.23315030  1
  O  O355  1  0.60837179  0.75069907  0.75259317  1
  O  O356  1  0.38652392  0.28594249  0.25319633  1
  O  O357  1  0.38860096  0.24501272  0.76921737  1
  O  O358  1  0.37732154  0.73563435  0.23373070  1
  O  O359  1  0.37524535  0.74545794  0.75128275  1
  O  O360  1  0.85194689  0.26969222  0.23636880  1
  O  O361  1  0.87313967  0.25157903  0.73725458  1
  O  O362  1  0.86461941  0.75164546  0.22890290  1
  O  O363  1  0.87385213  0.73973282  0.74651657  1
  O  O364  1  0.38736537  0.48392037  0.52352301  1
  O  O365  1  0.36878618  0.48454395  0.98473413  1
  O  O366  1  0.37918181  1.00196041  0.50423628  1
  O  O367  1  0.37831173  0.98830063  0.99097677  1
  O  O368  1  0.89282468  0.48486630  0.51500607  1
  O  O369  1  0.87896052  0.49043319  0.99238964  1
  O  O370  1  0.88281280  0.99944106  0.49530322  1
  O  O371  1  0.87568757  0.98571859  1.00434319  1
  O  O372  1  0.11922338  0.01364133  -0.00328982  1
  O  O373  1  0.13752675  -0.00302560  0.52338534  1
  O  O374  1  0.11346167  0.50355126  -0.01100404  1
  O  O375  1  0.10929319  0.48781146  0.51938822  1
  O  O376  1  0.60768932  -0.00694380  0.00510330  1
  O  O377  1  0.62079739  0.01393956  0.49382786  1
  O  O378  1  0.62534060  0.51741151  -0.02266659  1
  O  O379  1  0.60544952  0.47605903  0.52573997  1
  O  O380  1  0.36424390  0.37342351  0.10448904  1
  O  O381  1  0.35597127  0.37093492  0.62888491  1
  O  O382  1  0.37247005  0.85726058  0.11332124  1
  O  O383  1  0.38359800  0.86237649  0.63500260  1
  O  O384  1  0.87198290  0.35936356  0.10058808  1
  O  O385  1  0.86870613  0.36221566  0.61825383  1
  O  O386  1  0.89300929  0.85920816  0.11588602  1
  O  O387  1  0.88265945  0.85818888  0.63174924  1
  O  O388  1  0.14255410  0.11482420  0.36286675  1
  O  O389  1  0.11307199  0.13327871  0.89024816  1
  O  O390  1  0.12545649  0.64773483  0.39247712  1
  O  O391  1  0.14135804  0.61711448  0.87894451  1
  O  O392  1  0.61364335  0.13375886  0.39356168  1
  O  O393  1  0.62729493  0.12235194  0.87086237  1
  O  O394  1  0.66052298  0.63687269  0.32955767  1
  O  O395  1  0.64070166  0.62667414  0.87685853  1
