# generated using pymatgen
data_V35Zn35O128
_symmetry_space_group_name_H-M   'P 1'
_cell_length_a   16.96959408
_cell_length_b   16.94017302
_cell_length_c   16.97625932
_cell_angle_alpha   90.04939494
_cell_angle_beta   90.63056534
_cell_angle_gamma   90.65123667
_symmetry_Int_Tables_number   1
_chemical_formula_structural   V35Zn35O128
_chemical_formula_sum   'V70 Zn70 O256'
_cell_volume   4879.51580690
_cell_formula_units_Z   2
loop_
 _symmetry_equiv_pos_site_id
 _symmetry_equiv_pos_as_xyz
  1  'x, y, z'
loop_
 _atom_site_type_symbol
 _atom_site_label
 _atom_site_symmetry_multiplicity
 _atom_site_fract_x
 _atom_site_fract_y
 _atom_site_fract_z
 _atom_site_occupancy
  V  V0  1  0.48879914  0.62278595  0.63187943  1
  V  V1  1  0.00616257  0.13167717  0.12385020  1
  V  V2  1  0.49549663  0.62485236  0.12454909  1
  V  V3  1  0.87444596  0.87876215  0.49991878  1
  V  V4  1  0.76132023  0.24714951  0.00548317  1
  V  V5  1  0.86951762  0.88494717  -0.02136380  1
  V  V6  1  0.10846757  0.15819908  0.51121160  1
  V  V7  1  0.24603526  0.13873534  0.91641643  1
  V  V8  1  0.36820942  0.74105860  0.08850937  1
  V  V9  1  0.37072540  0.74843759  0.66081581  1
  V  V10  1  0.74630452  0.73600886  0.49479256  1
  V  V11  1  0.11428442  0.74024670  0.39412287  1
  V  V12  1  0.14152886  0.50442311  0.12602568  1
  V  V13  1  0.12247576  0.87365129  0.76112108  1
  V  V14  1  0.00480276  0.38170777  0.36839845  1
  V  V15  1  0.51099936  0.13738679  0.10107836  1
  V  V16  1  0.00280943  0.61899362  0.11835021  1
  V  V17  1  0.38541591  0.50173680  0.38475745  1
  V  V18  1  0.76913135  0.11662539  0.87164323  1
  V  V19  1  0.64561770  0.25006005  0.37370536  1
  V  V20  1  0.86612005  0.63582645  0.24439275  1
  V  V21  1  0.75042683  0.62551602  0.87438003  1
  V  V22  1  0.25089866  0.87445122  0.12065802  1
  V  V23  1  0.01890625  -0.00334493  0.50533109  1
  V  V24  1  0.88271468  0.74710255  0.62930372  1
  V  V25  1  0.00638593  0.87601166  0.37141329  1
  V  V26  1  0.75520193  0.75179987  0.00622700  1
  V  V27  1  0.62380491  0.62001659  -0.00035535  1
  V  V28  1  0.26799788  0.29207137  0.01634601  1
  V  V29  1  0.88244421  0.38644553  0.00952812  1
  V  V30  1  0.63113548  0.73106112  0.36763430  1
  V  V31  1  0.74483015  0.49793573  0.24967573  1
  V  V32  1  0.37356110  0.49326850  0.84348076  1
  V  V33  1  0.24643215  0.89232233  0.62249604  1
  V  V34  1  -0.00905349  0.51353453  0.51503592  1
  V  V35  1  0.73936213  0.88129395  0.62534895  1
  V  V36  1  0.63596917  0.36990076  0.74915637  1
  V  V37  1  0.63655563  0.23978980  0.87725258  1
  V  V38  1  0.24273502  0.12657099  0.37141844  1
  V  V39  1  0.86680846  0.36946977  0.49792814  1
  V  V40  1  0.90717379  0.12160475  0.75025274  1
  V  V41  1  0.86209817  0.12727977  0.24207887  1
  V  V42  1  0.88612827  0.50427414  0.88127599  1
  V  V43  1  0.75511666  0.49836202  0.74906246  1
  V  V44  1  0.48605887  0.74836873  0.25688246  1
  V  V45  1  0.38831730  0.25939063  0.61761500  1
  V  V46  1  0.01909208  0.36660907  0.88680364  1
  V  V47  1  0.40123337  0.11120419  0.24327882  1
  V  V48  1  0.25031038  0.01721430  0.77477242  1
  V  V49  1  0.74500566  0.37783708  0.12585455  1
  V  V50  1  0.50469642  0.36734835  0.36935478  1
  V  V51  1  0.21356552  0.63444800  0.87483627  1
  V  V52  1  0.87400460  0.50732867  0.36962906  1
  V  V53  1  0.61502945  0.75334360  0.86714807  1
  V  V54  1  0.75733891  0.88107543  0.12908616  1
  V  V55  1  0.11294115  -0.01384286  0.14916506  1
  V  V56  1  0.48982828  0.49390975  -0.00333975  1
  V  V57  1  0.13605050  0.52811416  0.62668656  1
  V  V58  1  0.75554288  0.11725006  0.40637845  1
  V  V59  1  0.62170350  0.88177752  0.25279784  1
  V  V60  1  0.00669024  0.25206509  0.25815204  1
  V  V61  1  0.00187495  -0.00030411  -0.00621661  1
  V  V62  1  0.61675764  -0.00575767  0.09695515  1
  V  V63  1  0.88760326  0.62840912  0.74900507  1
  V  V64  1  0.50638640  0.36563972  0.87423614  1
  V  V65  1  0.24940633  0.62514779  0.36757076  1
  V  V66  1  0.41699019  0.92877535  0.94362506  1
  V  V67  1  0.63262002  0.51228305  0.60930999  1
  V  V68  1  0.26710951  0.74503195  0.50431649  1
  V  V69  1  0.00301929  0.75166285  0.24354248  1
  Zn  Zn70  1  0.87191916  -0.00243163  0.37216946  1
  Zn  Zn71  1  0.88912922  0.25439129  0.63426985  1
  Zn  Zn72  1  0.14549278  0.38452566  0.25182469  1
  Zn  Zn73  1  0.60572516  0.87470171  0.73123049  1
  Zn  Zn74  1  0.61133537  0.49285597  0.13433776  1
  Zn  Zn75  1  0.74177567  0.36224062  0.60365079  1
  Zn  Zn76  1  0.18391724  0.18063379  0.19871055  1
  Zn  Zn77  1  0.15310497  0.14024029  0.67124511  1
  Zn  Zn78  1  0.18877674  0.69654855  0.18141959  1
  Zn  Zn79  1  0.19176992  0.68881798  0.70073781  1
  Zn  Zn80  1  0.67493047  0.19321650  0.17843883  1
  Zn  Zn81  1  0.74252436  0.20396099  0.70989684  1
  Zn  Zn82  1  0.68206097  0.68904959  0.18433435  1
  Zn  Zn83  1  0.69409646  0.69442217  0.68962924  1
  Zn  Zn84  1  0.34657639  0.29162477  0.31161424  1
  Zn  Zn85  1  0.33521086  0.26665226  0.83121301  1
  Zn  Zn86  1  0.28572241  0.81389145  0.30167376  1
  Zn  Zn87  1  0.26358070  0.82527618  0.84802984  1
  Zn  Zn88  1  0.82001836  0.30979170  0.30771122  1
  Zn  Zn89  1  0.83218849  0.31410461  0.81903812  1
  Zn  Zn90  1  0.80929259  0.81482503  0.31208150  1
  Zn  Zn91  1  0.80410242  0.81162266  0.80756195  1
  Zn  Zn92  1  0.17302121  0.45628167  0.44311243  1
  Zn  Zn93  1  0.19500800  0.46416539  0.94226510  1
  Zn  Zn94  1  0.21421866  0.94002261  0.43303081  1
  Zn  Zn95  1  0.18700972  0.94688814  0.95211216  1
  Zn  Zn96  1  0.68282835  0.43306362  0.42442169  1
  Zn  Zn97  1  0.69222721  0.43731391  0.94060434  1
  Zn  Zn98  1  0.69240984  0.92605412  0.43245663  1
  Zn  Zn99  1  0.66830937  0.95731968  0.89704646  1
  Zn  Zn100  1  0.32081225  0.04920235  0.08998528  1
  Zn  Zn101  1  0.30101547  0.08134854  0.54781923  1
  Zn  Zn102  1  0.30824116  0.56096613  0.04849175  1
  Zn  Zn103  1  0.30788608  0.56936264  0.55787520  1
  Zn  Zn104  1  0.81476689  0.05863207  0.06621611  1
  Zn  Zn105  1  0.82987398  0.06018613  0.57996819  1
  Zn  Zn106  1  0.81383652  0.56461977  0.06796185  1
  Zn  Zn107  1  0.81507689  0.55794518  0.56535109  1
  Zn  Zn108  1  0.42330904  0.45836107  0.20852588  1
  Zn  Zn109  1  0.46604179  0.43863218  0.68360443  1
  Zn  Zn110  1  0.43807312  0.93154961  0.17578778  1
  Zn  Zn111  1  0.39148614  0.90235823  0.74867150  1
  Zn  Zn112  1  0.93655588  0.44189116  0.19030318  1
  Zn  Zn113  1  0.99964602  0.41013290  0.68964040  1
  Zn  Zn114  1  0.93474222  0.94582873  0.19410628  1
  Zn  Zn115  1  0.94427970  0.93860907  0.69126396  1
  Zn  Zn116  1  0.06322213  0.07059555  0.32483694  1
  Zn  Zn117  1  0.07934981  0.06689056  0.82121524  1
  Zn  Zn118  1  0.06194350  0.56548033  0.30449275  1
  Zn  Zn119  1  0.06996049  0.54732586  0.80090086  1
  Zn  Zn120  1  0.59479919  0.09245278  0.28905421  1
  Zn  Zn121  1  0.52944683  -0.00579480  0.81089502  1
  Zn  Zn122  1  0.54999924  0.55156557  0.31102549  1
  Zn  Zn123  1  0.56363707  0.55807448  0.80850962  1
  Zn  Zn124  1  0.42057378  0.18529491  0.41593110  1
  Zn  Zn125  1  0.43618848  0.12505691  0.92599236  1
  Zn  Zn126  1  0.45125221  0.66509691  0.43989988  1
  Zn  Zn127  1  0.43273223  0.67497848  0.91601909  1
  Zn  Zn128  1  0.93595617  0.18537085  0.43250883  1
  Zn  Zn129  1  0.94396407  0.19296339  0.94172646  1
  Zn  Zn130  1  0.92850342  0.68874644  0.43589731  1
  Zn  Zn131  1  0.93468862  0.69139010  0.94002788  1
  Zn  Zn132  1  0.06955284  0.32346451  0.07107545  1
  Zn  Zn133  1  0.03901000  0.31344502  0.54980662  1
  Zn  Zn134  1  0.04877877  0.81766913  0.05998419  1
  Zn  Zn135  1  0.06485435  0.81987445  0.57143497  1
  Zn  Zn136  1  0.56964997  0.31099797  0.05353482  1
  Zn  Zn137  1  0.56411114  0.31328235  0.54797631  1
  Zn  Zn138  1  0.55897764  0.81230787  0.05582640  1
  Zn  Zn139  1  0.55819949  0.77889221  0.56592080  1
  O  O140  1  0.10910897  0.10951335  0.13633293  1
  O  O141  1  0.06692459  0.15827589  0.60590121  1
  O  O142  1  0.10886901  0.62485478  0.13490744  1
  O  O143  1  0.11973944  0.62565560  0.63472230  1
  O  O144  1  0.62388764  0.09997919  0.12290077  1
  O  O145  1  0.60490980  0.08135715  0.60977470  1
  O  O146  1  0.61223596  0.62328701  0.11531233  1
  O  O147  1  0.64073317  0.61246493  0.62518833  1
  O  O148  1  0.39439466  0.38876343  0.37339145  1
  O  O149  1  0.40532603  0.36078222  0.85860009  1
  O  O150  1  0.28210678  0.91069439  0.35195224  1
  O  O151  1  0.36645148  0.87632751  0.86629196  1
  O  O152  1  0.88289972  0.38699382  0.37431124  1
  O  O153  1  0.87448416  0.38861709  0.89517694  1
  O  O154  1  0.87949870  0.87318565  0.38506957  1
  O  O155  1  0.86120323  0.88213481  0.88018344  1
  O  O156  1  0.27737071  0.05176174  0.43578206  1
  O  O157  1  0.25268854  0.02209784  0.88084285  1
  O  O158  1  0.22628762  0.52524014  0.37439930  1
  O  O159  1  0.28080391  0.45854302  0.85466178  1
  O  O160  1  0.75527124  0.01172007  0.39005367  1
  O  O161  1  0.76139019  0.02311144  0.90486181  1
  O  O162  1  0.75865034  0.49436324  0.35689283  1
  O  O163  1  0.75613512  0.51250860  0.87163221  1
  O  O164  1  0.24084103  0.52434295  0.13039125  1
  O  O165  1  0.23419466  0.51356497  0.62468971  1
  O  O166  1  0.22614175  0.97801158  0.13127278  1
  O  O167  1  0.26147683  0.98889409  0.60540173  1
  O  O168  1  0.74842475  0.49549147  0.13482615  1
  O  O169  1  0.74565959  0.49399528  0.63416494  1
  O  O170  1  0.73793211  0.98529075  0.11797546  1
  O  O171  1  0.75104702  0.98013327  0.60852451  1
  O  O172  1  -0.01020440  0.36280890  0.25358447  1
  O  O173  1  -0.01769309  0.36543270  0.79288853  1
  O  O174  1  -0.01757417  0.86131600  0.26438097  1
  O  O175  1  0.02194664  0.88431920  0.75421915  1
  O  O176  1  0.51176309  0.43585371  0.28534031  1
  O  O177  1  0.52867368  0.37763121  0.76063654  1
  O  O178  1  0.51156549  0.85735407  0.23753574  1
  O  O179  1  0.49988415  0.91537732  0.73400351  1
  O  O180  1  0.50369574  0.10760232  0.22289345  1
  O  O181  1  0.54686105  0.05031759  0.64019302  1
  O  O182  1  0.50256268  0.63747422  0.23511658  1
  O  O183  1  0.51855569  0.62731604  0.72938479  1
  O  O184  1  0.99958554  0.13949448  0.25012979  1
  O  O185  1  1.00518831  0.13627881  0.76723766  1
  O  O186  1  0.98595444  0.63850330  0.24553639  1
  O  O187  1  0.98477809  0.62124400  0.75463898  1
  O  O188  1  0.36236708  0.27491417  0.03099601  1
  O  O189  1  0.39916396  0.24553591  0.51262272  1
  O  O190  1  0.38213440  0.74496556  -0.00858208  1
  O  O191  1  0.36470246  0.74756717  0.49303515  1
  O  O192  1  0.86693968  0.27131893  -0.00202489  1
  O  O193  1  0.89412612  0.26908128  0.49753135  1
  O  O194  1  0.86445542  0.76741521  -0.00747625  1
  O  O195  1  0.86523636  0.75626068  0.50615081  1
  O  O196  1  0.10154809  0.25406552  0.48184732  1
  O  O197  1  0.15951583  0.24841273  1.04840035  1
  O  O198  1  0.11241804  0.74978331  0.49393790  1
  O  O199  1  0.08181179  0.76572174  0.95614997  1
  O  O200  1  0.61102433  0.24360092  0.47028419  1
  O  O201  1  0.65003164  0.26093573  0.98392311  1
  O  O202  1  0.63802117  0.75226547  0.48029663  1
  O  O203  1  0.63083424  0.73381202  0.99465526  1
  O  O204  1  0.53646849  0.23369515  0.12587480  1
  O  O205  1  0.49585092  0.24790611  0.62304938  1
  O  O206  1  0.48496399  0.74343516  0.12811804  1
  O  O207  1  0.47440306  0.75340315  0.64666547  1
  O  O208  1  1.00616340  0.23659265  0.13201678  1
  O  O209  1  0.99359752  0.30624194  0.64608985  1
  O  O210  1  1.00269221  0.74552673  0.13966137  1
  O  O211  1  0.98040746  0.75697856  0.61942701  1
  O  O212  1  -0.00420595  0.26204230  0.36263593  1
  O  O213  1  0.02394539  0.26820042  0.91395257  1
  O  O214  1  0.00010775  0.75628256  0.37380706  1
  O  O215  1  0.02765977  0.76011475  0.90239975  1
  O  O216  1  0.48234851  0.26706121  0.35820421  1
  O  O217  1  0.52883063  0.26004528  0.87609470  1
  O  O218  1  0.51346215  0.73833564  0.36212715  1
  O  O219  1  0.51687672  0.73549004  0.87172352  1
  O  O220  1  0.20436011  0.14423363  0.55002878  1
  O  O221  1  0.25922713  0.11646650  1.01302379  1
  O  O222  1  0.24131979  0.64286223  0.49136825  1
  O  O223  1  0.24429751  0.57348880  0.95562519  1
  O  O224  1  0.76950455  0.12609379  0.50333545  1
  O  O225  1  0.76989516  0.14482405  1.00082839  1
  O  O226  1  0.75781569  0.63814467  0.49946675  1
  O  O227  1  0.74661738  0.63114001  0.99546130  1
  O  O228  1  0.25531848  0.39084229  0.00934982  1
  O  O229  1  0.22362880  0.37040887  0.51881875  1
  O  O230  1  0.21443853  0.85522345  0.02881926  1
  O  O231  1  0.24198409  0.85539803  0.51865052  1
  O  O232  1  0.76093583  0.37338937  0.00912042  1
  O  O233  1  0.76330602  0.37434679  0.48325901  1
  O  O234  1  0.76240460  0.86973578  0.01070923  1
  O  O235  1  0.75892675  0.86389728  0.50317145  1
  O  O236  1  0.12086929  0.50037165  0.23883929  1
  O  O237  1  0.09676419  0.47910187  0.71276329  1
  O  O238  1  0.10880908  0.99716339  0.24808734  1
  O  O239  1  0.13897587  0.99515877  0.75472089  1
  O  O240  1  0.64385249  0.51211880  0.24915156  1
  O  O241  1  0.64009680  0.49150426  0.74371718  1
  O  O242  1  0.61965267  0.98216497  0.24879913  1
  O  O243  1  0.63546106  0.97432391  0.79016067  1
  O  O244  1  0.36519861  0.01629892  0.20095877  1
  O  O245  1  0.34729961  0.01043679  0.74912972  1
  O  O246  1  0.35999689  0.51300922  0.28505288  1
  O  O247  1  0.38846018  0.48716786  0.74421895  1
  O  O248  1  0.88185131  0.02141023  0.25905299  1
  O  O249  1  0.89311266  0.02024139  0.74978679  1
  O  O250  1  0.86632064  0.51278254  0.25336880  1
  O  O251  1  0.86409996  0.51132187  0.76322379  1
  O  O252  1  0.10916997  0.39023378  0.36897565  1
  O  O253  1  0.11268326  0.40244942  0.88452412  1
  O  O254  1  0.10676997  0.86162115  0.37726326  1
  O  O255  1  0.15783522  0.88053231  0.86305464  1
  O  O256  1  0.62719349  0.35433370  0.35762168  1
  O  O257  1  0.63052894  0.37354985  0.86424947  1
  O  O258  1  0.63141873  0.86350473  0.35501012  1
  O  O259  1  0.62858783  0.84872900  0.89460636  1
  O  O260  1  0.40924859  0.12654520  0.10580228  1
  O  O261  1  0.36097924  0.15973444  0.61971401  1
  O  O262  1  0.38934824  0.62931601  0.10569025  1
  O  O263  1  0.38368155  0.62884039  0.62854117  1
  O  O264  1  0.89024384  0.11806616  0.13828733  1
  O  O265  1  0.89217256  0.13141093  0.64316073  1
  O  O266  1  0.88358433  0.62631963  0.13862298  1
  O  O267  1  0.86658782  0.63906137  0.63353867  1
  O  O268  1  0.21690154  0.25517683  0.11311399  1
  O  O269  1  0.29756315  0.29979952  0.59775087  1
  O  O270  1  0.27131850  0.71644384  0.09847354  1
  O  O271  1  0.26412427  0.73422017  0.61596694  1
  O  O272  1  0.74320587  0.26037675  0.11205705  1
  O  O273  1  0.76976864  0.25502432  0.61820427  1
  O  O274  1  0.74086600  0.76115177  0.11211284  1
  O  O275  1  0.75527047  0.75631212  0.60841161  1
  O  O276  1  0.29525639  0.21526218  0.38881515  1
  O  O277  1  0.24982106  0.25220068  0.91398644  1
  O  O278  1  0.22886513  0.74926018  0.39024538  1
  O  O279  1  0.24098189  0.72923954  0.89810640  1
  O  O280  1  0.75030805  0.24086190  0.37460183  1
  O  O281  1  0.75375673  0.24513385  0.88650993  1
  O  O282  1  0.74256112  0.74935921  0.38188282  1
  O  O283  1  0.74476187  0.73873386  0.88378820  1
  O  O284  1  -0.01017350  0.11509570  0.01852741  1
  O  O285  1  0.00965909  0.10349956  0.47536425  1
  O  O286  1  -0.01162361  0.63458295  0.02089287  1
  O  O287  1  -0.01285149  0.61142678  0.49563713  1
  O  O288  1  0.51881973  0.13679690  -0.00053041  1
  O  O289  1  0.47618384  0.10172413  0.49397215  1
  O  O290  1  0.50785367  0.61250343  0.00144528  1
  O  O291  1  0.51619342  0.66408451  0.53746404  1
  O  O292  1  0.52499729  0.38943997  0.46623902  1
  O  O293  1  0.51615686  0.38262643  0.98274346  1
  O  O294  1  0.49278855  0.85757339  0.48750380  1
  O  O295  1  0.48637853  0.87224652  0.99005653  1
  O  O296  1  0.98716048  0.39665902  0.48367263  1
  O  O297  1  0.98656285  0.38163681  1.00603890  1
  O  O298  1  0.99404367  0.87792703  0.48946492  1
  O  O299  1  0.97830869  0.88632011  1.00077639  1
  O  O300  1  0.47913818  0.54802213  0.40156356  1
  O  O301  1  0.49824153  0.48571505  0.87605299  1
  O  O302  1  0.54319722  0.99925866  0.40948028  1
  O  O303  1  0.46236224  1.01319782  0.89609163  1
  O  O304  1  0.98804670  0.49898977  0.37127769  1
  O  O305  1  0.98610205  0.49872272  0.87658795  1
  O  O306  1  0.99839031  0.98275235  0.37812545  1
  O  O307  1  1.00776280  1.01176210  0.89674696  1
  O  O308  1  0.00271235  0.00856556  0.12526657  1
  O  O309  1  0.00662250  -0.01206965  0.60365092  1
  O  O310  1  -0.00281835  0.51769185  0.13159261  1
  O  O311  1  -0.02414820  0.50334890  0.61270229  1
  O  O312  1  0.51510786  -0.00868487  0.11108354  1
  O  O313  1  0.43915672  -0.09772262  0.50877455  1
  O  O314  1  0.49356524  0.50442778  0.11969541  1
  O  O315  1  0.51930392  0.51594550  0.61733959  1
  O  O316  1  0.28007425  0.36368005  0.24312367  1
  O  O317  1  0.22567834  0.31906766  0.75897735  1
  O  O318  1  0.22275855  0.81631830  0.20121047  1
  O  O319  1  0.24451738  0.89928062  0.73944203  1
  O  O320  1  0.76100591  0.38822831  0.23862934  1
  O  O321  1  0.74911094  0.38671409  0.75743967  1
  O  O322  1  0.73632060  0.86561270  0.23535036  1
  O  O323  1  0.75215268  0.87048100  0.72569356  1
  O  O324  1  0.24021102  0.11054615  0.27084306  1
  O  O325  1  0.23216868  0.11512850  0.74194464  1
  O  O326  1  0.24229812  0.65107630  0.27116387  1
  O  O327  1  0.23564598  0.61493815  0.77662935  1
  O  O328  1  0.76329679  0.13122702  0.23380636  1
  O  O329  1  0.75526444  0.11003445  0.77078728  1
  O  O330  1  0.76058223  0.61821953  0.23763932  1
  O  O331  1  0.75606718  0.62014946  0.76044876  1
  O  O332  1  0.40672634  0.09759786  0.34411096  1
  O  O333  1  0.34763067  0.15428456  0.86727636  1
  O  O334  1  0.35206636  0.62691282  0.38519940  1
  O  O335  1  0.37780908  0.59377928  0.86336892  1
  O  O336  1  0.86025091  0.12744179  0.36550484  1
  O  O337  1  0.87516013  0.13376468  0.86957969  1
  O  O338  1  0.87520458  0.61729371  0.35901959  1
  O  O339  1  0.86881687  0.62471015  0.87064085  1
  O  O340  1  0.12818185  0.39474751  0.13702820  1
  O  O341  1  0.18633977  0.35509642  0.57983106  1
  O  O342  1  0.10006090  0.88567193  0.13626279  1
  O  O343  1  0.14099822  0.87525049  0.63730089  1
  O  O344  1  0.63994299  0.38108934  0.11843858  1
  O  O345  1  0.62663267  0.38036751  0.63390578  1
  O  O346  1  0.62984637  0.88030138  0.12681112  1
  O  O347  1  0.63462099  0.85864193  0.61596004  1
  O  O348  1  0.11111286  0.25975373  0.25041493  1
  O  O349  1  0.17467922  0.27990772  0.72188470  1
  O  O350  1  0.10114526  0.74737675  0.26634465  1
  O  O351  1  0.13846587  0.77371254  0.75086453  1
  O  O352  1  0.61847551  0.21532463  0.27555420  1
  O  O353  1  0.64857647  0.26353614  0.76264852  1
  O  O354  1  0.61996098  0.75320442  0.25651367  1
  O  O355  1  0.63468781  0.75958619  0.76334972  1
  O  O356  1  0.36579376  0.20710060  0.23401986  1
  O  O357  1  0.37642340  0.26347909  0.71979366  1
  O  O358  1  0.38817270  0.75941879  0.26395811  1
  O  O359  1  0.35449536  0.74428815  0.75587887  1
  O  O360  1  0.88785039  0.23595751  0.24965735  1
  O  O361  1  0.86142890  0.23150108  0.75084524  1
  O  O362  1  0.87771204  0.73936987  0.25671547  1
  O  O363  1  0.86860511  0.74481807  0.73673177  1
  O  O364  1  0.34268032  0.49819446  0.47838611  1
  O  O365  1  0.39040194  0.49382602  0.99100816  1
  O  O366  1  0.42975609  1.05515489  0.52924677  1
  O  O367  1  0.35305390  0.96792114  1.00936505  1
  O  O368  1  0.87579106  0.49752919  0.48551225  1
  O  O369  1  0.86805693  0.49547294  0.99426569  1
  O  O370  1  0.88908312  0.98782623  0.50009157  1
  O  O371  1  0.88264576  0.98981712  1.00480234  1
  O  O372  1  0.10420178  -0.00795426  0.01855161  1
  O  O373  1  0.11769069  -0.01422260  0.48867968  1
  O  O374  1  0.11848027  0.50198001  0.02800713  1
  O  O375  1  0.10259965  0.49689025  0.52514681  1
  O  O376  1  0.62523052  -0.00991257  -0.00044453  1
  O  O377  1  0.58775525  -0.01737732  0.46680482  1
  O  O378  1  0.62181082  0.51061836  0.00028421  1
  O  O379  1  0.64438647  0.49766851  0.51195413  1
  O  O380  1  0.32496463  0.38425713  0.18144966  1
  O  O381  1  0.42107431  0.36323018  0.61035865  1
  O  O382  1  0.35816419  0.85057757  0.12316782  1
  O  O383  1  0.35130599  0.85573035  0.64288722  1
  O  O384  1  0.86569923  0.38629774  0.11424219  1
  O  O385  1  0.86699392  0.38912503  0.59656146  1
  O  O386  1  0.85801755  0.88141887  0.13363623  1
  O  O387  1  0.86777040  0.86454548  0.61771200  1
  O  O388  1  0.13951703  0.12889174  0.39371338  1
  O  O389  1  0.14866543  0.13247131  0.88898688  1
  O  O390  1  0.11861958  0.63876729  0.37774754  1
  O  O391  1  0.11171118  0.61967769  0.87513076  1
  O  O392  1  0.65244624  0.12318609  0.38506738  1
  O  O393  1  0.64542579  0.14097754  0.87493741  1
  O  O394  1  0.62872256  0.63315975  0.36356120  1
  O  O395  1  0.63459035  0.62757429  0.87990464  1
