# generated using pymatgen
data_V35Zn35O128
_symmetry_space_group_name_H-M   'P 1'
_cell_length_a   16.89347101
_cell_length_b   16.87567838
_cell_length_c   16.87649581
_cell_angle_alpha   90.06677288
_cell_angle_beta   89.73279254
_cell_angle_gamma   90.12443749
_symmetry_Int_Tables_number   1
_chemical_formula_structural   V35Zn35O128
_chemical_formula_sum   'V70 Zn70 O256'
_cell_volume   4811.23277979
_cell_formula_units_Z   2
loop_
 _symmetry_equiv_pos_site_id
 _symmetry_equiv_pos_as_xyz
  1  'x, y, z'
loop_
 _atom_site_type_symbol
 _atom_site_label
 _atom_site_symmetry_multiplicity
 _atom_site_fract_x
 _atom_site_fract_y
 _atom_site_fract_z
 _atom_site_occupancy
  V  V0  1  0.88302227  0.25139212  0.63649510  1
  V  V1  1  -0.00980878  0.50203865  0.49951950  1
  V  V2  1  0.86560334  0.26802236  0.11417527  1
  V  V3  1  -0.00390719  0.50535612  0.00264170  1
  V  V4  1  0.74249646  0.87672373  0.11724168  1
  V  V5  1  0.26127929  0.49270073  0.75235165  1
  V  V6  1  0.36652470  0.37821630  0.00564178  1
  V  V7  1  0.88735867  0.11577634  0.75380006  1
  V  V8  1  0.74163105  0.76335409  0.49371091  1
  V  V9  1  0.62132507  0.61276472  0.51324417  1
  V  V10  1  0.38267517  0.00348445  0.88881848  1
  V  V11  1  0.62351328  0.13101125  0.49817870  1
  V  V12  1  0.47907490  0.39108324  0.38980140  1
  V  V13  1  0.74764866  0.49962744  0.24417478  1
  V  V14  1  0.26200666  0.75557785  -0.00038205  1
  V  V15  1  0.49790913  0.61778197  0.13141428  1
  V  V16  1  0.24215195  -0.00074419  0.75689158  1
  V  V17  1  0.13346658  0.49472084  0.61257198  1
  V  V18  1  0.12950636  0.36927352  0.23988871  1
  V  V19  1  0.88793124  0.63066104  0.73850756  1
  V  V20  1  -0.00144394  0.37851638  0.36796371  1
  V  V21  1  0.23649809  0.01533677  0.25541010  1
  V  V22  1  0.36401262  0.25448631  0.62186081  1
  V  V23  1  0.13894085  0.50170571  0.12168647  1
  V  V24  1  0.25962091  0.50722359  0.26140537  1
  V  V25  1  0.50260674  0.36960669  0.87577276  1
  V  V26  1  0.62518741  0.25604540  0.37794781  1
  V  V27  1  0.62222279  0.86816445  0.75090979  1
  V  V28  1  0.36630070  0.24919312  0.12617376  1
  V  V29  1  0.62818908  0.00678038  0.63585374  1
  V  V30  1  0.12636483  0.62770729  -0.00321193  1
  V  V31  1  0.74339969  0.62154044  0.37430476  1
  V  V32  1  0.14877283  0.25052971  0.88681933  1
  V  V33  1  0.87974913  0.62591866  0.24265090  1
  V  V34  1  -0.00119879  0.24368701  0.24223700  1
  V  V35  1  0.50530588  0.13610990  0.64442948  1
  V  V36  1  0.64502223  0.25493655  0.89439324  1
  V  V37  1  0.63376782  0.36937432  0.73982667  1
  V  V38  1  0.49203342  0.24207518  0.25120463  1
  V  V39  1  0.49031323  0.00213166  0.49305236  1
  V  V40  1  0.49999476  0.75323832  0.25465337  1
  V  V41  1  0.88232933  0.74868731  0.12218836  1
  V  V42  1  0.75335715  0.11594207  0.88268024  1
  V  V43  1  0.86782324  0.36049857  0.49593899  1
  V  V44  1  0.37057054  0.13179120  0.76088296  1
  V  V45  1  0.74380519  0.50269589  0.73316603  1
  V  V46  1  0.19629177  0.23081364  0.46431268  1
  V  V47  1  0.62086081  0.87166325  0.26628035  1
  V  V48  1  0.26881412  0.61750987  0.87080033  1
  V  V49  1  0.38796287  0.76462261  0.11602928  1
  V  V50  1  0.75262714  0.88736847  0.62598277  1
  V  V51  1  0.01276429  0.86309769  0.87496863  1
  V  V52  1  0.50161205  0.87507185  0.88817632  1
  V  V53  1  0.87912324  0.50555872  0.86838453  1
  V  V54  1  0.50381535  0.50124907  -0.00644326  1
  V  V55  1  0.87933589  -0.01337233  0.88863779  1
  V  V56  1  0.75841113  0.13051205  0.37565766  1
  V  V57  1  0.74674228  -0.00046224  0.24833443  1
  V  V58  1  0.74810679  0.74809300  -0.00326226  1
  V  V59  1  0.48544467  0.74295466  0.73839958  1
  V  V60  1  0.13467245  -0.02664551  0.10979044  1
  V  V61  1  0.10898047  0.00726778  0.60980166  1
  V  V62  1  0.62417595  0.62849789  0.00047112  1
  V  V63  1  0.86712702  0.12562160  0.23257381  1
  V  V64  1  0.12229007  0.36948923  0.74590371  1
  V  V65  1  0.37303890  0.86085882  0.50522218  1
  V  V66  1  0.88334128  0.76130183  0.61813759  1
  V  V67  1  0.61869037  0.38550509  0.24768995  1
  V  V68  1  -0.00608224  0.36955116  0.87163659  1
  V  V69  1  0.74285846  0.63147375  0.86847032  1
  Zn  Zn70  1  0.01902199  0.64305224  0.61514334  1
  Zn  Zn71  1  0.25496808  0.88956678  0.62834392  1
  Zn  Zn72  1  0.12892919  0.74289589  0.84749661  1
  Zn  Zn73  1  0.73703953  0.37453859  0.09499424  1
  Zn  Zn74  1  0.11363422  0.12076232  0.00813603  1
  Zn  Zn75  1  0.51029321  0.11429233  0.10956878  1
  Zn  Zn76  1  0.18660915  0.17625283  0.15480504  1
  Zn  Zn77  1  0.18205404  0.18098109  0.69405100  1
  Zn  Zn78  1  0.22320696  0.71022025  0.21014630  1
  Zn  Zn79  1  0.19863985  0.66768118  0.68277292  1
  Zn  Zn80  1  0.68365229  0.20018239  0.18770370  1
  Zn  Zn81  1  0.70360197  0.19039964  0.69345475  1
  Zn  Zn82  1  0.68277616  0.68999333  0.18373930  1
  Zn  Zn83  1  0.69044765  0.69443266  0.68249214  1
  Zn  Zn84  1  0.30656313  0.18515376  0.31378851  1
  Zn  Zn85  1  0.31711438  0.31529324  0.81002708  1
  Zn  Zn86  1  0.34547062  0.85193016  0.30427373  1
  Zn  Zn87  1  0.31775390  0.81682016  0.81526841  1
  Zn  Zn88  1  0.81386510  0.31527891  0.31135886  1
  Zn  Zn89  1  0.81246730  0.31585598  0.81107449  1
  Zn  Zn90  1  0.81373230  0.80951505  0.30599667  1
  Zn  Zn91  1  0.81301500  0.81318614  0.80415013  1
  Zn  Zn92  1  0.19644823  0.41302669  0.42591840  1
  Zn  Zn93  1  0.18412506  0.43552285  0.93239031  1
  Zn  Zn94  1  0.20020143  0.94682991  0.44501585  1
  Zn  Zn95  1  0.19358017  0.93650426  0.92629658  1
  Zn  Zn96  1  0.68707398  0.43775326  0.43748231  1
  Zn  Zn97  1  0.68917396  0.44606503  0.93030889  1
  Zn  Zn98  1  0.68737669  0.94984256  0.43990381  1
  Zn  Zn99  1  0.69139045  0.93377651  0.93171593  1
  Zn  Zn100  1  0.30130432  0.07365671  0.06200700  1
  Zn  Zn101  1  0.30609992  0.07698305  0.56584629  1
  Zn  Zn102  1  0.31932909  0.56464519  0.06083455  1
  Zn  Zn103  1  0.33396134  0.45033192  0.57265354  1
  Zn  Zn104  1  0.69493721  0.07123511  0.06353756  1
  Zn  Zn105  1  0.80639178  0.09516886  0.57474718  1
  Zn  Zn106  1  0.79929396  0.54372749  0.05246418  1
  Zn  Zn107  1  0.81191013  0.56678027  0.55648685  1
  Zn  Zn108  1  0.43746781  0.43643942  0.18932120  1
  Zn  Zn109  1  0.44944608  0.42837516  0.69357721  1
  Zn  Zn110  1  0.40146470  0.95962846  0.16779756  1
  Zn  Zn111  1  0.43839871  0.94599157  0.68663256  1
  Zn  Zn112  1  0.93408297  0.44328846  0.18560802  1
  Zn  Zn113  1  0.93791153  0.43524978  0.68118256  1
  Zn  Zn114  1  0.93734785  0.93421418  0.06393860  1
  Zn  Zn115  1  0.94176540  0.94208781  0.69672099  1
  Zn  Zn116  1  0.02394102  0.02447882  0.23384664  1
  Zn  Zn117  1  0.05549519  0.07362917  0.84740777  1
  Zn  Zn118  1  0.06179261  0.55747002  0.30851722  1
  Zn  Zn119  1  0.07052321  0.56109347  0.80828716  1
  Zn  Zn120  1  0.56358860  0.05993794  0.30803905  1
  Zn  Zn121  1  0.56506686  0.06956584  0.93010394  1
  Zn  Zn122  1  0.56005193  0.56797274  0.32430347  1
  Zn  Zn123  1  0.56087617  0.56130360  0.80847876  1
  Zn  Zn124  1  0.43849814  0.19258277  0.44054422  1
  Zn  Zn125  1  0.43760501  0.19779713  0.94142642  1
  Zn  Zn126  1  0.44327393  0.68750711  0.45033785  1
  Zn  Zn127  1  0.44801499  0.69139200  0.92825549  1
  Zn  Zn128  1  0.98089107  0.20047702  0.45070292  1
  Zn  Zn129  1  0.93407906  0.17881209  0.94879531  1
  Zn  Zn130  1  0.92347761  0.67880475  0.43864548  1
  Zn  Zn131  1  0.93515023  0.68951830  0.93525237  1
  Zn  Zn132  1  0.05105922  0.32004594  0.05942482  1
  Zn  Zn133  1  0.05949773  0.31084764  0.56260678  1
  Zn  Zn134  1  0.06461985  0.80845375  0.05478688  1
  Zn  Zn135  1  0.07606385  0.82667764  0.69096412  1
  Zn  Zn136  1  0.55849157  0.30992510  0.06566998  1
  Zn  Zn137  1  0.55767812  0.31482537  0.56108480  1
  Zn  Zn138  1  0.55946261  0.93576668  0.07301005  1
  Zn  Zn139  1  0.56011818  0.81620750  0.56408792  1
  O  O140  1  0.10544250  0.10136927  0.12505666  1
  O  O141  1  0.11860759  0.10472424  0.64468543  1
  O  O142  1  0.12855407  0.60930986  0.10466356  1
  O  O143  1  0.12639064  0.60037385  0.62045875  1
  O  O144  1  0.62522776  0.12377845  0.13363241  1
  O  O145  1  0.62283406  0.12795115  0.62357134  1
  O  O146  1  0.61182200  0.63272732  0.11040408  1
  O  O147  1  0.63321668  0.62688355  0.61303253  1
  O  O148  1  0.38278008  0.37683104  0.38874961  1
  O  O149  1  0.39646001  0.36536087  0.88537577  1
  O  O150  1  0.38091191  0.88210882  0.40502271  1
  O  O151  1  0.39126652  0.89068041  0.87542388  1
  O  O152  1  0.88705465  0.37434343  0.38182383  1
  O  O153  1  0.88514504  0.39453858  0.86039922  1
  O  O154  1  0.89440106  0.87387003  0.36401795  1
  O  O155  1  0.86843319  0.88401855  0.87218871  1
  O  O156  1  0.23096127  0.01023384  0.35608431  1
  O  O157  1  0.27379803  -0.00296329  0.86826058  1
  O  O158  1  0.23416219  0.49627881  0.35978282  1
  O  O159  1  0.24681445  0.50782536  0.86468209  1
  O  O160  1  0.74490857  0.01746381  0.36148882  1
  O  O161  1  0.75871753  0.00933208  0.87352315  1
  O  O162  1  0.74975550  0.51724452  0.36946834  1
  O  O163  1  0.76306409  0.51513703  0.85957908  1
  O  O164  1  0.24060111  0.49899936  0.12417218  1
  O  O165  1  0.24166677  0.48958208  0.63621403  1
  O  O166  1  0.24024741  0.99795782  0.12866870  1
  O  O167  1  0.24713391  1.01390867  0.64754206  1
  O  O168  1  0.73522088  0.51060366  0.14577378  1
  O  O169  1  0.75590626  0.50392270  0.63462782  1
  O  O170  1  0.75277441  0.98333476  0.13109568  1
  O  O171  1  0.74488237  0.99567132  0.61382234  1
  O  O172  1  0.00071406  0.37597934  0.25153495  1
  O  O173  1  0.01144683  0.38373038  0.75962856  1
  O  O174  1  -0.04756220  0.89486083  0.31135128  1
  O  O175  1  -0.00311264  0.86768948  0.76513305  1
  O  O176  1  0.50995776  0.37624927  0.26056771  1
  O  O177  1  0.52130673  0.38421422  0.76619841  1
  O  O178  1  0.51344649  0.86347508  0.25431032  1
  O  O179  1  0.51210627  0.87221308  0.74713513  1
  O  O180  1  0.50535442  0.14251325  0.25345703  1
  O  O181  1  0.49902720  0.12724709  0.74272642  1
  O  O182  1  0.51277504  0.63279043  0.23582964  1
  O  O183  1  0.50308083  0.64446026  0.76163788  1
  O  O184  1  0.98263285  0.13594886  0.24912500  1
  O  O185  1  0.98411044  0.13271023  0.77568439  1
  O  O186  1  0.97716009  0.61040719  0.24814860  1
  O  O187  1  0.99029431  0.62031160  0.73826473  1
  O  O188  1  0.37798641  0.26759296  0.01117944  1
  O  O189  1  0.37823792  0.24350063  0.52299142  1
  O  O190  1  0.36984523  0.74021524  0.00268508  1
  O  O191  1  0.38255885  0.75972471  0.50785714  1
  O  O192  1  0.88024071  0.25204041  0.01585511  1
  O  O193  1  0.88579301  0.25831120  0.49381338  1
  O  O194  1  0.86006074  0.73304168  0.01159816  1
  O  O195  1  0.86415073  0.74789523  0.51264868  1
  O  O196  1  0.09078560  0.23039041  0.48464749  1
  O  O197  1  0.11400927  0.26210497  0.98451654  1
  O  O198  1  0.21789816  0.70173219  0.51136436  1
  O  O199  1  0.14344464  0.73354377  1.00457543  1
  O  O200  1  0.62022742  0.24394666  0.48946399  1
  O  O201  1  0.63808765  0.26701518  0.99394469  1
  O  O202  1  0.63986912  0.74671368  0.50596514  1
  O  O203  1  0.64186409  0.73691393  0.99191662  1
  O  O204  1  0.49515824  0.25587081  0.14346288  1
  O  O205  1  0.49732232  0.23933156  0.62755639  1
  O  O206  1  0.49311667  0.73886639  0.13068262  1
  O  O207  1  0.50340514  0.75091911  0.63832654  1
  O  O208  1  0.98352286  0.26136720  0.13511442  1
  O  O209  1  0.98282192  0.24177369  0.61505595  1
  O  O210  1  0.98155880  0.75064288  0.11353212  1
  O  O211  1  0.98672839  0.75677403  0.61969065  1
  O  O212  1  -0.00221680  0.26195284  0.34936648  1
  O  O213  1  -0.01481320  0.27187517  0.87942075  1
  O  O214  1  0.01805658  0.75797058  0.40734055  1
  O  O215  1  0.00425506  0.75580845  0.87371004  1
  O  O216  1  0.50622245  0.26523427  0.36628727  1
  O  O217  1  0.52230545  0.26649553  0.87965636  1
  O  O218  1  0.48095604  0.73097242  0.35042468  1
  O  O219  1  0.49520450  0.77099937  0.86070709  1
  O  O220  1  0.24177077  0.15001373  0.50647553  1
  O  O221  1  0.21775509  0.14695608  1.04143910  1
  O  O222  1  0.31272067  0.54740047  0.49274864  1
  O  O223  1  0.24566831  0.62126865  0.98661096  1
  O  O224  1  0.73816227  0.12073003  0.48201514  1
  O  O225  1  0.75653005  0.12734540  0.98308372  1
  O  O226  1  0.74809150  0.63562295  0.48907473  1
  O  O227  1  0.74253341  0.62625114  0.98879164  1
  O  O228  1  0.26888964  0.39026686  -0.00519104  1
  O  O229  1  0.22511917  0.32779832  0.49398467  1
  O  O230  1  0.25378319  0.85223815  -0.01429172  1
  O  O231  1  0.26566810  0.87898679  0.50925203  1
  O  O232  1  0.76622434  0.43665182  0.00886075  1
  O  O233  1  0.76947010  0.37435597  0.48727893  1
  O  O234  1  0.74402927  0.86483499  0.00944124  1
  O  O235  1  0.74547800  0.87006793  0.50591950  1
  O  O236  1  0.12491962  0.49714784  0.23174864  1
  O  O237  1  0.13267399  0.48894545  0.73990734  1
  O  O238  1  0.13693096  0.98808837  0.23364334  1
  O  O239  1  0.14573345  1.01101660  0.78213136  1
  O  O240  1  0.62994617  0.49087209  0.26157472  1
  O  O241  1  0.63893840  0.49483738  0.75009047  1
  O  O242  1  0.63390540  0.98492571  0.25120109  1
  O  O243  1  0.62561933  0.99225856  0.73534604  1
  O  O244  1  0.32422480  -0.05053931  0.24612943  1
  O  O245  1  0.37537429  0.01667410  0.75896259  1
  O  O246  1  0.35742176  0.48889762  0.24795396  1
  O  O247  1  0.35977694  0.48255023  0.74884441  1
  O  O248  1  0.86194001  0.02185772  0.24040803  1
  O  O249  1  0.87638877  0.01104399  0.76268754  1
  O  O250  1  0.85647373  0.51138835  0.24494004  1
  O  O251  1  0.86958290  0.51277832  0.74649414  1
  O  O252  1  0.11078146  0.37759541  0.34945502  1
  O  O253  1  0.11120099  0.37175618  0.86721338  1
  O  O254  1  0.15307935  0.85559580  0.36833794  1
  O  O255  1  0.11694512  0.86422355  0.87584288  1
  O  O256  1  0.62639058  0.36864855  0.36753204  1
  O  O257  1  0.62721505  0.36996495  0.87033744  1
  O  O258  1  0.63348079  0.87536606  0.36506784  1
  O  O259  1  0.61669882  0.88439701  0.85707159  1
  O  O260  1  0.38168098  0.14691167  0.11426641  1
  O  O261  1  0.38819069  0.13377772  0.64125110  1
  O  O262  1  0.39340745  0.63103088  0.11959591  1
  O  O263  1  0.37142659  0.61743792  0.61711265  1
  O  O264  1  0.86346766  0.14429116  0.13468129  1
  O  O265  1  0.88956035  0.12423021  0.64838630  1
  O  O266  1  0.86018404  0.63238396  0.13518522  1
  O  O267  1  0.87564418  0.63626875  0.62926792  1
  O  O268  1  0.26893127  0.25906432  0.14126829  1
  O  O269  1  0.26532462  0.24346868  0.63877211  1
  O  O270  1  0.27186391  0.74411918  0.11189862  1
  O  O271  1  0.24376521  0.72012060  0.57844158  1
  O  O272  1  0.75927503  0.26489648  0.13054328  1
  O  O273  1  0.78202482  0.21748720  0.61101978  1
  O  O274  1  0.75177844  0.75764802  0.11696287  1
  O  O275  1  0.75826564  0.76474875  0.61383062  1
  O  O276  1  0.21363621  0.22756134  0.36438654  1
  O  O277  1  0.24713847  0.26819948  0.88828991  1
  O  O278  1  0.19469882  0.79080044  0.36951460  1
  O  O279  1  0.25551577  0.73435792  0.88196300  1
  O  O280  1  0.73623112  0.24078896  0.36189238  1
  O  O281  1  0.74890752  0.25414276  0.88278868  1
  O  O282  1  0.75576624  0.75065011  0.38938938  1
  O  O283  1  0.76297576  0.73857278  0.88026677  1
  O  O284  1  0.01701251  0.10715113  -0.04284825  1
  O  O285  1  -0.04706179  0.02943576  0.48239885  1
  O  O286  1  0.01927938  0.61875245  -0.01350992  1
  O  O287  1  -0.00667539  0.60871456  0.50126383  1
  O  O288  1  0.51404921  0.14259127  -0.00090742  1
  O  O289  1  0.51265687  0.12355728  0.50879259  1
  O  O290  1  0.50666300  0.62099657  0.00025819  1
  O  O291  1  0.52242159  0.62611943  0.49521417  1
  O  O292  1  0.50538086  0.38056738  0.48882959  1
  O  O293  1  0.50418036  0.38390514  0.99161578  1
  O  O294  1  0.49235434  0.89545788  0.51325429  1
  O  O295  1  0.51488495  0.86805299  0.98564367  1
  O  O296  1  0.99401896  0.38184516  0.48784265  1
  O  O297  1  0.99955486  0.39712406  0.98246295  1
  O  O298  1  1.03653674  0.80427552  0.46231195  1
  O  O299  1  0.99530084  0.86686823  0.98353298  1
  O  O300  1  0.49313344  0.49207755  0.37105092  1
  O  O301  1  0.50794928  0.48772111  0.88319439  1
  O  O302  1  0.50856031  1.00689827  0.39402811  1
  O  O303  1  0.49349562  0.99103283  0.87852467  1
  O  O304  1  1.01106269  0.49491281  0.39059130  1
  O  O305  1  0.99492842  0.50010191  0.87525299  1
  O  O306  1  0.99153735  0.95981737  0.33324851  1
  O  O307  1  0.98647237  0.97773392  0.87192892  1
  O  O308  1  0.02010946  -0.02209581  0.12844514  1
  O  O309  1  0.00845720  -0.00972139  0.61975592  1
  O  O310  1  -0.00102456  0.50225026  0.10494479  1
  O  O311  1  0.01338692  0.49207872  0.60904871  1
  O  O312  1  0.49544262  0.00315141  0.13710396  1
  O  O313  1  0.51028549  0.01972901  0.62051980  1
  O  O314  1  0.49996253  0.51275049  0.11834054  1
  O  O315  1  0.43816570  0.58576627  0.62485906  1
  O  O316  1  0.22691003  0.38514441  0.24330189  1
  O  O317  1  0.23532790  0.38531569  0.76294729  1
  O  O318  1  0.24877102  0.78238628  0.30372528  1
  O  O319  1  0.25892001  0.89369836  0.75188904  1
  O  O320  1  0.74034260  0.39121160  0.25730048  1
  O  O321  1  0.74512028  0.39282408  0.75166987  1
  O  O322  1  0.74328968  0.87861840  0.24362146  1
  O  O323  1  0.73637203  0.87153183  0.73692239  1
  O  O324  1  0.25090619  0.11728969  0.23635909  1
  O  O325  1  0.26710043  0.12094217  0.75838275  1
  O  O326  1  0.25141924  0.60689095  0.24533470  1
  O  O327  1  0.25654989  0.60771074  0.75979326  1
  O  O328  1  0.75166108  0.12228437  0.25397773  1
  O  O329  1  0.77205052  0.13806835  0.77064369  1
  O  O330  1  0.74305773  0.62062972  0.25959763  1
  O  O331  1  0.75504969  0.61924692  0.75005697  1
  O  O332  1  0.38717155  0.13126424  0.36539943  1
  O  O333  1  0.39064559  0.12068826  0.86656966  1
  O  O334  1  0.36368628  0.57347617  0.44365086  1
  O  O335  1  0.36722701  0.61965789  0.87941398  1
  O  O336  1  0.85658926  0.14186301  0.36001784  1
  O  O337  1  0.86835770  0.11272811  0.87602800  1
  O  O338  1  0.85828018  0.63699605  0.35606802  1
  O  O339  1  0.87278544  0.62326208  0.85403418  1
  O  O340  1  0.11364251  0.39247815  0.12764162  1
  O  O341  1  0.11856020  0.37548646  0.63952827  1
  O  O342  1  0.13752242  0.87137737  0.11458571  1
  O  O343  1  0.13857678  0.90320938  0.63587347  1
  O  O344  1  0.62571410  0.37279368  0.14465914  1
  O  O345  1  0.62064217  0.36920108  0.64120087  1
  O  O346  1  0.63950817  0.87197438  0.13537534  1
  O  O347  1  0.63276586  0.88596926  0.63027009  1
  O  O348  1  0.10841988  0.26171818  0.22510872  1
  O  O349  1  0.13293186  0.26562348  0.76389258  1
  O  O350  1  0.10796031  0.70641291  0.25592795  1
  O  O351  1  0.13725785  0.74356168  0.73435895  1
  O  O352  1  0.61405292  0.26474751  0.25958313  1
  O  O353  1  0.64371252  0.26735744  0.76004984  1
  O  O354  1  0.61443651  0.75984169  0.24867890  1
  O  O355  1  0.62090205  0.76503896  0.74577076  1
  O  O356  1  0.38643805  0.25477417  0.24308155  1
  O  O357  1  0.37822954  0.23886661  0.74932645  1
  O  O358  1  0.38901332  0.76807308  0.22975831  1
  O  O359  1  0.38462565  0.75433786  0.74665872  1
  O  O360  1  0.88080177  0.24890806  0.24030553  1
  O  O361  1  0.87842593  0.25447637  0.73979296  1
  O  O362  1  0.87068854  0.73862458  0.23443054  1
  O  O363  1  0.86891711  0.73737344  0.73411142  1
  O  O364  1  0.44339921  0.50058152  0.59954597  1
  O  O365  1  0.39139144  0.48905881  1.00428657  1
  O  O366  1  0.39089984  1.01992780  0.50755792  1
  O  O367  1  0.37022811  1.01615386  0.98734786  1
  O  O368  1  0.88702144  0.48780053  0.50747652  1
  O  O369  1  0.89379005  0.52729087  0.98227730  1
  O  O370  1  0.87551663  1.03832509  0.48670713  1
  O  O371  1  0.87383330  0.99475773  0.98869725  1
  O  O372  1  0.13728435  -0.00654325  0.00659392  1
  O  O373  1  0.13056806  0.00749199  0.51033801  1
  O  O374  1  0.11877113  0.50468698  0.00284720  1
  O  O375  1  0.12970274  0.47964126  0.51160859  1
  O  O376  1  0.62746533  -0.00062708  -0.00003115  1
  O  O377  1  0.61745600  0.01291899  0.51057138  1
  O  O378  1  0.61447742  0.51510866  -0.00452473  1
  O  O379  1  0.63649637  0.51316155  0.50279450  1
  O  O380  1  0.38374024  0.36973759  0.11162568  1
  O  O381  1  0.37847665  0.36108611  0.63101412  1
  O  O382  1  0.39066767  0.86194869  0.10115568  1
  O  O383  1  0.37316516  0.88712523  0.61468567  1
  O  O384  1  0.86857410  0.37174587  0.12571379  1
  O  O385  1  0.87780408  0.36175103  0.61155769  1
  O  O386  1  0.86080115  0.85767541  0.12258357  1
  O  O387  1  0.86775679  0.86686928  0.63455422  1
  O  O388  1  -0.00469574  0.08431919  0.44365628  1
  O  O389  1  0.14326910  0.15043046  0.87205019  1
  O  O390  1  0.11082871  0.66764295  0.32247362  1
  O  O391  1  0.13752288  0.62549284  0.88127655  1
  O  O392  1  0.62724919  0.13685855  0.37975924  1
  O  O393  1  0.64242124  0.14462951  0.87412700  1
  O  O394  1  0.63896303  0.63117760  0.38408688  1
  O  O395  1  0.63795733  0.62157162  0.87754511  1
