# generated using pymatgen
data_V35Zn35O128
_symmetry_space_group_name_H-M   'P 1'
_cell_length_a   16.91764263
_cell_length_b   16.92460691
_cell_length_c   16.96192837
_cell_angle_alpha   90.02641834
_cell_angle_beta   90.28472603
_cell_angle_gamma   89.72887583
_symmetry_Int_Tables_number   1
_chemical_formula_structural   V35Zn35O128
_chemical_formula_sum   'V70 Zn70 O256'
_cell_volume   4856.50002996
_cell_formula_units_Z   2
loop_
 _symmetry_equiv_pos_site_id
 _symmetry_equiv_pos_as_xyz
  1  'x, y, z'
loop_
 _atom_site_type_symbol
 _atom_site_label
 _atom_site_symmetry_multiplicity
 _atom_site_fract_x
 _atom_site_fract_y
 _atom_site_fract_z
 _atom_site_occupancy
  V  V0  1  0.51772192  0.50269630  0.00158125  1
  V  V1  1  0.52202951  0.37852663  0.86943650  1
  V  V2  1  0.61049273  0.25633709  0.36863748  1
  V  V3  1  0.62867054  0.13260630  -0.02496227  1
  V  V4  1  0.12855465  0.12108588  0.00824488  1
  V  V5  1  0.74142001  0.11881173  0.36611009  1
  V  V6  1  0.00926638  0.62203412  0.61990896  1
  V  V7  1  0.48975294  0.14287722  0.62291612  1
  V  V8  1  0.37267015  0.86994454  0.00894633  1
  V  V9  1  0.41630844  0.73382584  0.13019673  1
  V  V10  1  0.00044941  0.23603878  0.75169714  1
  V  V11  1  0.64581579  0.00764099  0.12250334  1
  V  V12  1  0.86856870  0.30792878  0.03173843  1
  V  V13  1  0.00467935  0.00699528  0.00473934  1
  V  V14  1  0.74353908  0.25707439  0.50304113  1
  V  V15  1  0.11576889  0.15080608  0.50573565  1
  V  V16  1  0.37426138  0.38587110  -0.01566201  1
  V  V17  1  0.74041298  0.37718461  0.64226410  1
  V  V18  1  0.51724730  0.25333377  0.75976189  1
  V  V19  1  -0.00835710  0.75274452  0.74217258  1
  V  V20  1  0.87785235  0.24966877  0.61821882  1
  V  V21  1  0.25572875  0.38561706  0.13005563  1
  V  V22  1  0.61328110  0.76632225  0.38280451  1
  V  V23  1  0.49154441  0.38106124  0.36954237  1
  V  V24  1  -0.00116853  0.62672583  0.14418341  1
  V  V25  1  0.12566748  0.75759706  0.86969759  1
  V  V26  1  0.62921289  0.74815115  0.89226380  1
  V  V27  1  0.36858258  0.14623205  0.74930238  1
  V  V28  1  0.49482729  -0.00106565  -0.00726358  1
  V  V29  1  0.88832706  0.49823182  0.36700638  1
  V  V30  1  0.25526176  0.61195979  0.87187309  1
  V  V31  1  0.11683904  0.61637852  -0.00640258  1
  V  V32  1  0.11359178  0.38645640  0.75109088  1
  V  V33  1  0.36905553  0.61003128  0.75525391  1
  V  V34  1  0.61758987  0.12766274  0.51028222  1
  V  V35  1  -0.00345970  0.48434895  0.50417639  1
  V  V36  1  0.12456130  0.73139603  0.37761219  1
  V  V37  1  0.62844522  0.61219019  0.49776563  1
  V  V38  1  0.12126436  0.49707591  0.13278359  1
  V  V39  1  0.50809750  0.61974518  0.64070003  1
  V  V40  1  0.86543719  0.62531176  0.73802620  1
  V  V41  1  0.88954120  0.49956341  0.88548921  1
  V  V42  1  0.87461481  0.74969924  0.14863475  1
  V  V43  1  0.25196957  0.74869005  0.01034827  1
  V  V44  1  0.75552022  0.88443319  0.63388074  1
  V  V45  1  0.87878985  0.88274342  0.50477715  1
  V  V46  1  0.50314738  0.87029638  0.86842639  1
  V  V47  1  0.49379500  0.12170858  0.13273696  1
  V  V48  1  0.37086696  0.75310637  0.62964484  1
  V  V49  1  0.25647976  0.25116540  -0.00199263  1
  V  V50  1  0.25362612  0.70859639  0.49862855  1
  V  V51  1  -0.00400665  0.87520619  0.87457419  1
  V  V52  1  0.85426074  0.12376385  0.75161665  1
  V  V53  1  0.01097276  0.00133142  0.51581913  1
  V  V54  1  0.00039428  0.87109470  0.37582391  1
  V  V55  1  0.12131672  0.24887354  0.87198358  1
  V  V56  1  0.48230312  0.49802541  0.50446856  1
  V  V57  1  0.25732907  0.12627917  0.87314735  1
  V  V58  1  0.62764902  0.86852511  0.75037876  1
  V  V59  1  0.86980009  0.85915019  0.00638961  1
  V  V60  1  0.37996205  0.61317226  0.26680115  1
  V  V61  1  0.86480129  0.00776135  0.87485280  1
  V  V62  1  0.56939535  -0.03344503  0.60914477  1
  V  V63  1  0.25222517  0.37365906  0.63919722  1
  V  V64  1  0.38340997  0.25396317  0.13505672  1
  V  V65  1  0.75707592  0.74672852  0.50938999  1
  V  V66  1  0.75014893  0.62826724  0.89193037  1
  V  V67  1  0.62727463  0.87895348  0.23756022  1
  V  V68  1  0.36389908  0.35725500  0.50479431  1
  V  V69  1  0.32421639  -0.04836893  0.82184702  1
  Zn  Zn70  1  0.75826617  0.49581768  0.25493530  1
  Zn  Zn71  1  0.76280203  0.63319892  0.36205563  1
  Zn  Zn72  1  0.19526914  0.89870830  0.18245130  1
  Zn  Zn73  1  0.25965526  0.04077070  0.26867458  1
  Zn  Zn74  1  0.73711265  0.49974992  0.75144097  1
  Zn  Zn75  1  0.21948176  0.14783494  0.37732502  1
  Zn  Zn76  1  0.19040563  0.19754457  0.18740985  1
  Zn  Zn77  1  0.18917440  0.19313358  0.67860824  1
  Zn  Zn78  1  0.18322928  0.67891517  0.19239116  1
  Zn  Zn79  1  0.15352713  0.74309577  0.65091429  1
  Zn  Zn80  1  0.67046232  0.19031763  0.18846666  1
  Zn  Zn81  1  0.68468913  0.18794998  0.68515861  1
  Zn  Zn82  1  0.70771821  0.70779185  0.20595590  1
  Zn  Zn83  1  0.68583498  0.69087451  0.68816363  1
  Zn  Zn84  1  0.29835747  0.44200214  0.32452497  1
  Zn  Zn85  1  0.30838763  0.31778848  0.81202969  1
  Zn  Zn86  1  0.29790724  0.76060093  0.29004005  1
  Zn  Zn87  1  0.31602004  0.78938336  0.81329951  1
  Zn  Zn88  1  0.81065814  0.32807135  0.31675747  1
  Zn  Zn89  1  0.82249285  0.31776914  0.81776974  1
  Zn  Zn90  1  0.80386988  0.82317933  0.32465600  1
  Zn  Zn91  1  0.81215321  0.81171241  0.81739585  1
  Zn  Zn92  1  0.20613183  0.48411759  0.49037054  1
  Zn  Zn93  1  0.18417681  0.43546509  0.93469863  1
  Zn  Zn94  1  0.19989560  0.91403834  0.34780201  1
  Zn  Zn95  1  0.13258619  0.98582613  0.86664958  1
  Zn  Zn96  1  0.70008239  0.43002309  0.40760909  1
  Zn  Zn97  1  0.70062262  0.43781944  0.93519031  1
  Zn  Zn98  1  0.68395769  0.94062892  0.45076782  1
  Zn  Zn99  1  0.68919238  0.93865327  0.94340490  1
  Zn  Zn100  1  0.31623278  0.06053468  0.06210058  1
  Zn  Zn101  1  0.25538418  0.02975004  0.49674797  1
  Zn  Zn102  1  0.31515139  0.56541586  0.06054367  1
  Zn  Zn103  1  0.31315129  0.55451782  0.58958495  1
  Zn  Zn104  1  0.82112471  0.09360170  0.05072697  1
  Zn  Zn105  1  0.80813757  0.06549886  0.56404906  1
  Zn  Zn106  1  0.82141696  0.56726878  0.06440956  1
  Zn  Zn107  1  0.81439461  0.55339810  0.55688190  1
  Zn  Zn108  1  0.46647974  0.48372923  0.20313806  1
  Zn  Zn109  1  0.44300999  0.43403580  0.68683205  1
  Zn  Zn110  1  0.43987878  0.92978947  0.18869811  1
  Zn  Zn111  1  0.37774626  0.97200483  0.63827206  1
  Zn  Zn112  1  0.93288279  0.43246892  0.17755748  1
  Zn  Zn113  1  0.93103875  0.43829146  0.69151019  1
  Zn  Zn114  1  1.00409955  0.90473884  0.16874736  1
  Zn  Zn115  1  0.93066930  0.93605804  0.69150132  1
  Zn  Zn116  1  0.08614209  0.03486052  0.33759245  1
  Zn  Zn117  1  0.07141002  0.05469766  0.68581499  1
  Zn  Zn118  1  0.10694667  0.52157142  0.34918401  1
  Zn  Zn119  1  0.06073477  0.57353521  0.80699877  1
  Zn  Zn120  1  0.57657842  0.05848688  0.31415094  1
  Zn  Zn121  1  0.55625112  0.05123744  0.79927693  1
  Zn  Zn122  1  0.59050108  0.60244696  0.28488781  1
  Zn  Zn123  1  0.56813929  0.56076314  0.82092443  1
  Zn  Zn124  1  0.43235955  0.19099738  0.43011487  1
  Zn  Zn125  1  0.44347055  0.18921242  0.93717623  1
  Zn  Zn126  1  0.44082012  0.68550855  0.44739683  1
  Zn  Zn127  1  0.44231945  0.68500817  0.94008530  1
  Zn  Zn128  1  0.92364741  0.16322794  0.43647372  1
  Zn  Zn129  1  0.93918487  0.18460185  0.93953216  1
  Zn  Zn130  1  0.93967659  0.68150126  0.43032786  1
  Zn  Zn131  1  0.93687818  0.68323532  0.93163814  1
  Zn  Zn132  1  0.06744959  0.32653065  0.04429592  1
  Zn  Zn133  1  0.05801490  0.32233090  0.57617031  1
  Zn  Zn134  1  0.06216190  0.80134315  0.05349237  1
  Zn  Zn135  1  0.11992046  0.85880980  0.52156271  1
  Zn  Zn136  1  0.55945806  0.30664589  0.05059132  1
  Zn  Zn137  1  0.56054830  0.31770214  0.56659141  1
  Zn  Zn138  1  0.56879730  0.81941700  0.06071406  1
  Zn  Zn139  1  0.56411856  0.79445234  0.57098073  1
  O  O140  1  0.14304283  0.12608139  0.10689906  1
  O  O141  1  0.12114215  0.12922469  0.61158620  1
  O  O142  1  0.12028484  0.61568972  0.11384616  1
  O  O143  1  0.10685135  0.63296746  0.63760118  1
  O  O144  1  0.61310726  0.11873904  0.11314987  1
  O  O145  1  0.60466924  0.12891941  0.62455060  1
  O  O146  1  0.66688429  0.51868079  0.12815519  1
  O  O147  1  0.61174601  0.63497612  0.61620725  1
  O  O148  1  0.38316729  0.38192642  0.39365888  1
  O  O149  1  0.37463045  0.37656980  0.88317477  1
  O  O150  1  0.40119788  0.86637620  0.37835025  1
  O  O151  1  0.38255329  0.87557342  0.87931478  1
  O  O152  1  0.87946050  0.39665970  0.37801294  1
  O  O153  1  0.88554133  0.40259721  0.85779564  1
  O  O154  1  0.88682387  0.86633379  0.39554933  1
  O  O155  1  0.87711400  0.88318641  0.88618178  1
  O  O156  1  0.24703279  0.01373070  0.38554285  1
  O  O157  1  0.25819978  0.01050005  0.87823595  1
  O  O158  1  0.20951522  0.48114694  0.37837964  1
  O  O159  1  0.24959647  0.51393409  0.88212470  1
  O  O160  1  0.69715394  0.02597579  0.37858392  1
  O  O161  1  0.76651880  -0.00423997  0.87786388  1
  O  O162  1  0.77206482  0.51552305  0.38221751  1
  O  O163  1  0.75517739  0.51705564  0.87107832  1
  O  O164  1  0.24308333  0.49150172  0.11465721  1
  O  O165  1  0.23515230  0.47684903  0.60530017  1
  O  O166  1  0.28338220  0.97795923  0.13685071  1
  O  O167  1  0.29095108  0.96504665  0.57305685  1
  O  O168  1  0.75259543  0.50298136  0.13411193  1
  O  O169  1  0.76392880  0.47743218  0.62583967  1
  O  O170  1  0.74276720  1.02017103  0.11532748  1
  O  O171  1  0.74960663  0.98404199  0.62367588  1
  O  O172  1  0.01393295  0.35996126  0.23002144  1
  O  O173  1  0.00949085  0.36210674  0.74403494  1
  O  O174  1  -0.00447596  0.88056596  0.27807340  1
  O  O175  1  -0.01780990  0.86013928  0.76079863  1
  O  O176  1  0.49290378  0.39413989  0.27209087  1
  O  O177  1  0.50056766  0.36522312  0.75991744  1
  O  O178  1  0.52454916  0.88954283  0.25361001  1
  O  O179  1  0.50734829  0.86784563  0.76802290  1
  O  O180  1  0.50629788  0.11757847  0.23025860  1
  O  O181  1  0.49066124  0.14034808  0.75075403  1
  O  O182  1  0.48915435  0.59256882  0.24366254  1
  O  O183  1  0.49427473  0.62128272  0.74384194  1
  O  O184  1  0.98139893  0.19477089  0.33738768  1
  O  O185  1  0.99455293  0.13565505  0.74047866  1
  O  O186  1  1.01162513  0.62552736  0.23849241  1
  O  O187  1  0.98557417  0.63366093  0.74289819  1
  O  O188  1  0.36751048  0.25874485  -0.00254922  1
  O  O189  1  0.37304565  0.25826054  0.50051817  1
  O  O190  1  0.37247019  0.74986367  0.00777585  1
  O  O191  1  0.36158716  0.73675060  0.51194831  1
  O  O192  1  0.87366745  0.20212959  0.03889438  1
  O  O193  1  0.86381030  0.23494296  0.51417351  1
  O  O194  1  0.87467783  0.75925880  -0.00596242  1
  O  O195  1  0.85909361  0.75543748  0.50032559  1
  O  O196  1  0.09872249  0.24812146  0.50177579  1
  O  O197  1  0.13588917  0.24600298  0.99316016  1
  O  O198  1  0.15222207  0.74255249  0.50355765  1
  O  O199  1  0.13277271  0.73807147  0.98756806  1
  O  O200  1  0.62600838  0.24299129  0.50500965  1
  O  O201  1  0.61266428  0.23186882  0.98346480  1
  O  O202  1  0.63369403  0.74517640  0.49578621  1
  O  O203  1  0.63914324  0.76150488  0.98963181  1
  O  O204  1  0.49158815  0.23926062  0.11646125  1
  O  O205  1  0.50049158  0.24882990  0.64445169  1
  O  O206  1  0.51515320  0.73238413  0.11295778  1
  O  O207  1  0.48370459  0.72599742  0.61563125  1
  O  O208  1  1.03947506  0.29598097  0.18806129  1
  O  O209  1  0.98087925  0.25102376  0.63260375  1
  O  O210  1  0.99391489  0.73344219  0.12283377  1
  O  O211  1  0.99288234  0.74344201  0.64330551  1
  O  O212  1  -0.06069010  0.22370419  0.27741481  1
  O  O213  1  0.01274751  0.23914653  0.86714406  1
  O  O214  1  0.01325026  0.76104060  0.39171775  1
  O  O215  1  0.00564838  0.75666201  0.87300715  1
  O  O216  1  0.49971197  0.26775213  0.38099539  1
  O  O217  1  0.49716961  0.26293080  0.86538208  1
  O  O218  1  0.51479817  0.74975165  0.38957224  1
  O  O219  1  0.51877541  0.75587236  0.88639225  1
  O  O220  1  0.22304540  0.14305558  0.49271982  1
  O  O221  1  0.25363490  0.13277016  0.99297875  1
  O  O222  1  0.25225095  0.60830563  0.50136292  1
  O  O223  1  0.24453018  0.63056851  0.98941462  1
  O  O224  1  0.72994261  0.13204683  0.50571764  1
  O  O225  1  0.72741378  0.12146019  0.99238340  1
  O  O226  1  0.74015353  0.63621282  0.51333863  1
  O  O227  1  0.75282029  0.62708061  0.98988482  1
  O  O228  1  0.25970207  0.36898868  -0.00291360  1
  O  O229  1  0.26409269  0.37226804  0.50063194  1
  O  O230  1  0.27045802  0.86166919  -0.00351700  1
  O  O231  1  0.36547365  0.89659315  0.43357699  1
  O  O232  1  0.78021770  0.35865166  -0.01942143  1
  O  O233  1  0.74521143  0.35842283  0.49968173  1
  O  O234  1  0.77293255  0.88511497  0.00530542  1
  O  O235  1  0.75803346  0.86987336  0.50942535  1
  O  O236  1  0.12954542  0.50255219  0.23022220  1
  O  O237  1  0.11370953  0.48470962  0.76073876  1
  O  O238  1  0.14907306  0.98880552  0.25843557  1
  O  O239  1  0.13524648  1.00941710  0.76057140  1
  O  O240  1  0.63131224  0.48973346  0.18850454  1
  O  O241  1  0.62720414  0.51405640  0.74146714  1
  O  O242  1  0.62711772  0.99950777  0.22732187  1
  O  O243  1  0.60108954  0.97700138  0.72160162  1
  O  O244  1  0.34257043  -0.00436770  0.20101447  1
  O  O245  1  0.37384446  0.01110482  0.75407790  1
  O  O246  1  0.35999732  0.50972125  0.25289411  1
  O  O247  1  0.38057989  0.51078753  0.75007736  1
  O  O248  1  0.88470760  0.04909360  0.22185588  1
  O  O249  1  0.87653646  0.01414020  0.76111634  1
  O  O250  1  0.88061797  0.49524900  0.25745150  1
  O  O251  1  0.87121209  0.51802342  0.75726853  1
  O  O252  1  0.10921472  0.33488728  0.36643095  1
  O  O253  1  0.13194517  0.36041115  0.86444099  1
  O  O254  1  0.11379699  0.86156177  0.40372553  1
  O  O255  1  0.11022907  0.86537182  0.87882421  1
  O  O256  1  0.60377262  0.36256834  0.39518851  1
  O  O257  1  0.62013529  0.37088693  0.87765130  1
  O  O258  1  0.61881087  0.86696791  0.39168564  1
  O  O259  1  0.62565979  0.86780532  0.87075501  1
  O  O260  1  0.38471833  0.14000536  0.11805113  1
  O  O261  1  0.38290229  0.13473036  0.64365106  1
  O  O262  1  0.38125252  0.63619460  0.11869092  1
  O  O263  1  0.38517274  0.62255057  0.64129800  1
  O  O264  1  0.88478670  0.10122464  0.17029231  1
  O  O265  1  0.86206931  0.13613185  0.64142372  1
  O  O266  1  0.88965435  0.63330442  0.12971645  1
  O  O267  1  0.87359226  0.62570245  0.63715828  1
  O  O268  1  0.25879269  0.26146252  0.11320023  1
  O  O269  1  0.24623256  0.27338005  0.62287356  1
  O  O270  1  0.23807939  0.74496271  0.10939590  1
  O  O271  1  0.26299062  0.73332868  0.61204072  1
  O  O272  1  0.70686080  0.28581239  0.12678019  1
  O  O273  1  0.75426465  0.25725879  0.62207651  1
  O  O274  1  0.77484010  0.74140505  0.12516817  1
  O  O275  1  0.74396535  0.76149067  0.61364614  1
  O  O276  1  0.17490573  0.30413860  0.36574789  1
  O  O277  1  0.24580490  0.24547481  0.88234212  1
  O  O278  1  0.24416015  0.73962574  0.39490712  1
  O  O279  1  0.24120534  0.74009824  0.88274774  1
  O  O280  1  0.72605058  0.23599350  0.38799135  1
  O  O281  1  0.79711265  0.28852811  0.93234447  1
  O  O282  1  0.73922532  0.74840794  0.39213770  1
  O  O283  1  0.74096661  0.73940539  0.87152614  1
  O  O284  1  0.01406351  0.11529826  -0.00528830  1
  O  O285  1  -0.00027932  0.10746365  0.50450485  1
  O  O286  1  0.01676513  0.63070656  -0.00115182  1
  O  O287  1  -0.00611991  0.63879013  0.52239939  1
  O  O288  1  0.50468256  0.11372976  0.00010265  1
  O  O289  1  0.49878822  0.14268523  0.51897175  1
  O  O290  1  0.50198661  0.60108973  -0.01425848  1
  O  O291  1  0.51058152  0.60929161  0.50870884  1
  O  O292  1  0.48363157  0.38608720  0.51503964  1
  O  O293  1  0.49082223  0.37451742  0.98300496  1
  O  O294  1  0.51125167  0.89781417  0.56516541  1
  O  O295  1  0.49390771  0.87927253  0.99205280  1
  O  O296  1  0.98831848  0.38525517  0.51278536  1
  O  O297  1  0.96474245  0.32812460  1.00117001  1
  O  O298  1  0.98528635  0.88068826  0.50989126  1
  O  O299  1  0.98803114  0.88385765  0.99199429  1
  O  O300  1  0.50751773  0.48535310  0.40195717  1
  O  O301  1  0.50396451  0.48265223  0.87987580  1
  O  O302  1  0.49106636  0.99474809  0.36723943  1
  O  O303  1  0.50433142  0.98584589  0.88407848  1
  O  O304  1  0.99749614  0.50124082  0.38703265  1
  O  O305  1  0.98730378  0.52240432  0.87711142  1
  O  O306  1  1.00377534  0.97948727  0.39980008  1
  O  O307  1  0.98834214  0.98430132  0.87952796  1
  O  O308  1  -0.00274174  0.00048322  0.10301400  1
  O  O309  1  -0.00678071  -0.00253178  0.62077490  1
  O  O310  1  0.01268445  0.50834512  0.12343737  1
  O  O311  1  -0.01309436  0.51309330  0.61845116  1
  O  O312  1  0.49876080  0.01219521  0.11326364  1
  O  O313  1  0.48429857  0.02771218  0.63072507  1
  O  O314  1  0.49952455  0.48064218  0.09819996  1
  O  O315  1  0.49949641  0.51060712  0.61735221  1
  O  O316  1  0.25600506  0.37767707  0.22758579  1
  O  O317  1  0.24112361  0.38033276  0.74478737  1
  O  O318  1  0.26393015  0.86384192  0.26743924  1
  O  O319  1  0.26760452  0.88918237  0.76996087  1
  O  O320  1  0.72434790  0.39304932  0.29521634  1
  O  O321  1  0.74851220  0.37311985  0.74607633  1
  O  O322  1  0.72530846  0.88585603  0.27139760  1
  O  O323  1  0.74685510  0.87169230  0.74059452  1
  O  O324  1  0.24905779  0.15550314  0.27197256  1
  O  O325  1  0.26203246  0.13973117  0.75671853  1
  O  O326  1  0.27912723  0.64904630  0.24925041  1
  O  O327  1  0.26040043  0.61875972  0.76445804  1
  O  O328  1  0.73217991  0.13324459  0.26624024  1
  O  O329  1  0.75543818  0.12827033  0.75542133  1
  O  O330  1  0.70333327  0.60980639  0.25990125  1
  O  O331  1  0.75945358  0.62937797  0.75117249  1
  O  O332  1  0.40327641  0.09878963  0.37034987  1
  O  O333  1  0.36785627  0.13202891  0.86474203  1
  O  O334  1  0.38628022  0.62729241  0.36486573  1
  O  O335  1  0.36589061  0.63149574  0.86641354  1
  O  O336  1  0.83814417  0.10326709  0.38943897  1
  O  O337  1  0.87613750  0.11726860  0.86498065  1
  O  O338  1  0.87754564  0.61790775  0.36441596  1
  O  O339  1  0.86104013  0.62252166  0.86956198  1
  O  O340  1  0.13856824  0.38943635  0.10705699  1
  O  O341  1  0.13117570  0.37285695  0.64584206  1
  O  O342  1  0.10420543  0.87328585  0.12619648  1
  O  O343  1  0.12826635  0.85037431  0.62956290  1
  O  O344  1  0.65311246  0.34158202  0.11727657  1
  O  O345  1  0.64156141  0.37052262  0.62590754  1
  O  O346  1  0.63276262  0.88798464  0.13017267  1
  O  O347  1  0.63937978  0.87082992  0.63103078  1
  O  O348  1  0.09346723  0.25285716  0.22902291  1
  O  O349  1  0.11807271  0.24993940  0.75740769  1
  O  O350  1  0.13570968  0.74341411  0.27733950  1
  O  O351  1  0.10478456  0.74158176  0.76342580  1
  O  O352  1  0.61321547  0.25134652  0.27054677  1
  O  O353  1  0.61535306  0.24482001  0.75831215  1
  O  O354  1  0.62704864  0.76684053  0.26719700  1
  O  O355  1  0.62631300  0.76352913  0.75665758  1
  O  O356  1  0.37930596  0.26042871  0.22951586  1
  O  O357  1  0.38083396  0.24733393  0.75421775  1
  O  O358  1  0.40591810  0.73402812  0.23407741  1
  O  O359  1  0.37179798  0.72902276  0.73755293  1
  O  O360  1  0.85944852  0.22929800  0.28914736  1
  O  O361  1  0.87837105  0.23680660  0.75284973  1
  O  O362  1  0.87051978  0.76174338  0.24724753  1
  O  O363  1  0.88332534  0.73668187  0.76237370  1
  O  O364  1  0.38275660  0.50288674  0.50253249  1
  O  O365  1  0.37771321  0.48631793  0.99818024  1
  O  O366  1  0.43796505  1.03366991  0.41034239  1
  O  O367  1  0.38625214  0.98688234  1.00303181  1
  O  O368  1  0.89141385  0.51495877  0.48587739  1
  O  O369  1  0.87254993  0.50185174  0.98668831  1
  O  O370  1  0.87558551  0.98650216  0.50799374  1
  O  O371  1  0.88816400  1.01305547  0.98684171  1
  O  O372  1  0.11207375  0.00761441  -0.01877615  1
  O  O373  1  0.11061031  -0.00916961  0.51589586  1
  O  O374  1  0.12732902  0.51307451  0.00066155  1
  O  O375  1  0.09497930  0.50525437  0.50326357  1
  O  O376  1  0.61526090  -0.00033633  0.01092756  1
  O  O377  1  0.61690976  0.00943751  0.52478876  1
  O  O378  1  0.61826562  0.48738300  -0.00490837  1
  O  O379  1  0.63593379  0.51359157  0.49659445  1
  O  O380  1  0.36509460  0.36580568  0.10705953  1
  O  O381  1  0.36303841  0.38064768  0.61864280  1
  O  O382  1  0.39525229  0.84636693  0.11668578  1
  O  O383  1  0.38071065  0.84950077  0.63902157  1
  O  O384  1  0.86614914  0.35338013  0.12198751  1
  O  O385  1  0.86301391  0.35347737  0.63645889  1
  O  O386  1  0.89589186  0.85500245  0.11520847  1
  O  O387  1  0.86283732  0.87096421  0.61964676  1
  O  O388  1  0.10365704  0.12670441  0.39966838  1
  O  O389  1  0.14484783  0.13630761  0.88638693  1
  O  O390  1  0.11117580  0.63432977  0.38600723  1
  O  O391  1  0.13498597  0.62992063  0.88094699  1
  O  O392  1  0.60305851  0.14346331  0.39345426  1
  O  O393  1  0.61629902  0.10867404  0.87747250  1
  O  O394  1  0.62324507  0.63580021  0.39473777  1
  O  O395  1  0.63622150  0.63952843  0.87598840  1
