# generated using pymatgen
data_V35Zn35O128
_symmetry_space_group_name_H-M   'P 1'
_cell_length_a   16.88326871
_cell_length_b   16.89631994
_cell_length_c   16.86171013
_cell_angle_alpha   89.79000179
_cell_angle_beta   89.99664667
_cell_angle_gamma   90.01794708
_symmetry_Int_Tables_number   1
_chemical_formula_structural   V35Zn35O128
_chemical_formula_sum   'V70 Zn70 O256'
_cell_volume   4810.02503842
_cell_formula_units_Z   2
loop_
 _symmetry_equiv_pos_site_id
 _symmetry_equiv_pos_as_xyz
  1  'x, y, z'
loop_
 _atom_site_type_symbol
 _atom_site_label
 _atom_site_symmetry_multiplicity
 _atom_site_fract_x
 _atom_site_fract_y
 _atom_site_fract_z
 _atom_site_occupancy
  V  V0  1  0.24033401  0.64080229  0.87429170  1
  V  V1  1  -0.00401471  0.12081987  0.61931852  1
  V  V2  1  0.02237608  0.01618085  0.00161995  1
  V  V3  1  0.24717104  0.50415758  0.75280611  1
  V  V4  1  0.51986515  0.76348276  0.75840569  1
  V  V5  1  0.12391830  0.61570368  0.47132361  1
  V  V6  1  0.88041526  0.74341058  0.12437937  1
  V  V7  1  0.43410858  0.29880158  0.67777379  1
  V  V8  1  0.25562066  -0.03300151  0.22668127  1
  V  V9  1  0.38372601  0.39764977  0.49954050  1
  V  V10  1  0.50555300  0.10935455  0.63219632  1
  V  V11  1  0.61821999  0.75298263  0.37205428  1
  V  V12  1  0.38000043  0.63760314  0.74188974  1
  V  V13  1  0.89043199  0.88417330  -0.00720112  1
  V  V14  1  0.63020905  0.27888823  0.85540469  1
  V  V15  1  0.61749483  0.62333976  -0.01322546  1
  V  V16  1  0.11195876  0.26089826  0.37189705  1
  V  V17  1  0.35584133  0.88638431  0.51283854  1
  V  V18  1  0.50587117  0.39679949  0.37467724  1
  V  V19  1  0.02321322  0.12522498  0.14236315  1
  V  V20  1  0.36939466  0.11835450  0.75405983  1
  V  V21  1  0.62383211  0.01090176  0.12197393  1
  V  V22  1  0.18402771  -0.03344199  0.80750649  1
  V  V23  1  0.74820476  0.74454983  0.49531222  1
  V  V24  1  0.52239836  0.62977548  0.61497188  1
  V  V25  1  0.27449579  0.13304726  0.36581931  1
  V  V26  1  0.75314274  0.27555853  0.49709217  1
  V  V27  1  0.75025362  0.88096270  0.63470280  1
  V  V28  1  0.87203258  0.22940626  0.12711796  1
  V  V29  1  0.87213723  0.26170947  0.62128708  1
  V  V30  1  0.26234913  0.50146298  0.25164187  1
  V  V31  1  -0.00692057  0.72163616  0.25139546  1
  V  V32  1  0.62194014  0.22979054  0.38310853  1
  V  V33  1  0.49295185  0.13532087  0.13241008  1
  V  V34  1  0.76033103  0.00717292  0.26663592  1
  V  V35  1  -0.01431542  0.38639123  0.87828932  1
  V  V36  1  0.37344191  -0.01332922  0.87957801  1
  V  V37  1  0.50064959  -0.00772975  0.48486383  1
  V  V38  1  0.62513705  0.49947964  0.13648480  1
  V  V39  1  0.02828416  0.75677956  0.75282495  1
  V  V40  1  0.24962301  0.37206685  0.62656459  1
  V  V41  1  0.38135113  0.50120685  0.87574172  1
  V  V42  1  0.87929758  0.87508045  0.48225494  1
  V  V43  1  0.73495187  0.12598914  0.89153845  1
  V  V44  1  0.87798469  0.74722213  0.63095297  1
  V  V45  1  0.75528684  0.62393312  0.34965748  1
  V  V46  1  0.38097832  0.36635600  -0.01169004  1
  V  V47  1  0.23809387  0.23844821  -0.01423767  1
  V  V48  1  0.12806638  0.12905756  0.49952425  1
  V  V49  1  0.00110360  -0.00474128  0.47876595  1
  V  V50  1  0.11758673  0.61845955  0.01945640  1
  V  V51  1  0.13369164  -0.02471070  0.61518177  1
  V  V52  1  0.11990422  0.76264434  0.36782965  1
  V  V53  1  0.74556140  0.87686019  0.12536460  1
  V  V54  1  0.64049160  0.48048432  0.63021868  1
  V  V55  1  0.12223307  0.50348977  0.62409051  1
  V  V56  1  0.49246823  0.63678571  0.13646125  1
  V  V57  1  0.25555546  0.75325696  0.03262360  1
  V  V58  1  0.00242935  0.23980647  0.75746508  1
  V  V59  1  -0.00468059  0.62319529  0.62578693  1
  V  V60  1  0.77073941  0.61782087  0.87293202  1
  V  V61  1  0.12493934  0.36884721  0.75879202  1
  V  V62  1  0.11876859  0.37377430  0.22824380  1
  V  V63  1  0.37453938  0.25718666  0.14416355  1
  V  V64  1  0.73443109  0.75521631  -0.00805657  1
  V  V65  1  0.75644884  0.36563866  0.11930299  1
  V  V66  1  0.61331080  0.87390088  0.25114271  1
  V  V67  1  0.26342426  0.25523221  0.50042891  1
  V  V68  1  -0.01424986  0.48266861  0.49123324  1
  V  V69  1  0.49587341  -0.01068601  0.00039591  1
  Zn  Zn70  1  0.61597412  0.36300047  0.25066525  1
  Zn  Zn71  1  0.50005779  0.50141216  -0.00047801  1
  Zn  Zn72  1  0.86047508  0.49455644  0.36656617  1
  Zn  Zn73  1  0.63513804  0.00265993  0.61679657  1
  Zn  Zn74  1  0.84121227  0.06827938  0.78055266  1
  Zn  Zn75  1  0.24366670  0.38455834  0.11175394  1
  Zn  Zn76  1  0.19959565  0.19729674  0.18954519  1
  Zn  Zn77  1  0.18035491  0.16990027  0.80653011  1
  Zn  Zn78  1  0.18043548  0.67418061  0.20078456  1
  Zn  Zn79  1  0.19813589  0.69678831  0.66557465  1
  Zn  Zn80  1  0.69134076  0.18827939  0.19622086  1
  Zn  Zn81  1  0.68941441  0.19010961  0.69187580  1
  Zn  Zn82  1  0.67649526  0.69297833  0.17830276  1
  Zn  Zn83  1  0.69258231  0.68773755  0.69748507  1
  Zn  Zn84  1  0.30092265  0.34668946  0.32441488  1
  Zn  Zn85  1  0.30901799  0.31068373  0.81654974  1
  Zn  Zn86  1  0.30262453  0.80936370  0.31724752  1
  Zn  Zn87  1  0.30872556  0.82081313  0.80209387  1
  Zn  Zn88  1  0.78993706  0.30510782  0.30308129  1
  Zn  Zn89  1  0.83467251  0.26335189  0.83656909  1
  Zn  Zn90  1  0.81050504  0.81397403  0.30500990  1
  Zn  Zn91  1  0.82113744  0.81159066  0.81515336  1
  Zn  Zn92  1  0.18384524  0.44449374  0.43491526  1
  Zn  Zn93  1  0.18692213  0.43802832  0.94175849  1
  Zn  Zn94  1  0.18882755  0.95091051  0.40836283  1
  Zn  Zn95  1  0.20429850  0.94018974  0.97269282  1
  Zn  Zn96  1  0.67890242  0.45291035  0.44214267  1
  Zn  Zn97  1  0.69451556  0.43972199  0.93883139  1
  Zn  Zn98  1  0.68533844  0.93318532  0.44192444  1
  Zn  Zn99  1  0.69808524  0.95382413  0.94044973  1
  Zn  Zn100  1  0.31392143  0.06539503  0.06720739  1
  Zn  Zn101  1  0.31655041  0.06528785  0.56409299  1
  Zn  Zn102  1  0.30696606  0.56623812  0.06642119  1
  Zn  Zn103  1  0.30471454  0.58676831  0.55932575  1
  Zn  Zn104  1  0.80913350  0.06583609  0.06025094  1
  Zn  Zn105  1  0.82067583  0.05679345  0.56002852  1
  Zn  Zn106  1  0.79851833  0.56678777  0.06934560  1
  Zn  Zn107  1  0.80951161  0.55866557  0.55938280  1
  Zn  Zn108  1  0.44060932  0.44354276  0.18404743  1
  Zn  Zn109  1  0.44163678  0.46485504  0.68205920  1
  Zn  Zn110  1  0.43329319  0.94916840  0.20033776  1
  Zn  Zn111  1  0.42484988  0.93259075  0.68663491  1
  Zn  Zn112  1  0.90738158  0.37979116  0.23622187  1
  Zn  Zn113  1  0.94362616  0.42848063  0.68568287  1
  Zn  Zn114  1  0.92780866  0.95126029  0.17237188  1
  Zn  Zn115  1  0.94589798  0.93047084  0.67335882  1
  Zn  Zn116  1  0.08898333  0.06419841  0.30716882  1
  Zn  Zn117  1  0.02727669  0.03504870  0.79849360  1
  Zn  Zn118  1  0.02308178  0.51787881  0.27928087  1
  Zn  Zn119  1  0.05536628  0.56670655  0.81578391  1
  Zn  Zn120  1  0.56442308  0.06022443  0.31017996  1
  Zn  Zn121  1  0.55082127  0.07592649  0.82009080  1
  Zn  Zn122  1  0.56342970  0.57344886  0.31679832  1
  Zn  Zn123  1  0.56855797  0.56302884  0.80381023  1
  Zn  Zn124  1  0.44890792  0.18864928  0.45173316  1
  Zn  Zn125  1  0.44276911  0.17365841  0.94440508  1
  Zn  Zn126  1  0.44124534  0.69993972  0.44980301  1
  Zn  Zn127  1  0.43226615  0.69235265  0.93018354  1
  Zn  Zn128  1  0.93422206  0.19253280  0.43854727  1
  Zn  Zn129  1  0.93150962  0.17841715  0.95237329  1
  Zn  Zn130  1  0.93631614  0.67812285  0.43649681  1
  Zn  Zn131  1  0.94544624  0.70037157  0.93524644  1
  Zn  Zn132  1  0.05002090  0.30024674  0.05797843  1
  Zn  Zn133  1  0.06669471  0.30905267  0.56467572  1
  Zn  Zn134  1  0.06215604  0.79970293  0.05389999  1
  Zn  Zn135  1  0.06304339  0.80462660  0.54728781  1
  Zn  Zn136  1  0.56026972  0.31798789  0.05507038  1
  Zn  Zn137  1  0.57071762  0.31353798  0.55742533  1
  Zn  Zn138  1  0.43166606  0.80788958  0.06811138  1
  Zn  Zn139  1  0.55671329  0.81807459  0.57262486  1
  O  O140  1  0.12264711  0.13272222  0.13425161  1
  O  O141  1  0.11203580  0.12695326  0.60323306  1
  O  O142  1  0.11972519  0.61773339  0.11983155  1
  O  O143  1  0.11713880  0.61201998  0.61411648  1
  O  O144  1  0.61969258  0.11466467  0.13070874  1
  O  O145  1  0.61190681  0.11881021  0.63687779  1
  O  O146  1  0.61865200  0.61690546  0.11320527  1
  O  O147  1  0.62427193  0.63530793  0.62198670  1
  O  O148  1  0.39201594  0.37629279  0.39387174  1
  O  O149  1  0.36956385  0.38900698  0.87805789  1
  O  O150  1  0.37989697  0.83629580  0.39925990  1
  O  O151  1  0.37893186  0.88804730  0.87125151  1
  O  O152  1  0.86458762  0.38239940  0.34747566  1
  O  O153  1  0.88813435  0.36102974  0.86628159  1
  O  O154  1  0.87394015  0.86951164  0.38395547  1
  O  O155  1  0.87777803  0.87078450  0.89378711  1
  O  O156  1  0.26564969  0.03975064  0.40244037  1
  O  O157  1  0.26834188  -0.00059375  0.88811551  1
  O  O158  1  0.25753326  0.46066715  0.35366700  1
  O  O159  1  0.25501405  0.50730534  0.86397132  1
  O  O160  1  0.74571564  -0.00836080  0.36518532  1
  O  O161  1  0.75946911  0.02250831  0.87693668  1
  O  O162  1  0.73986570  0.52211097  0.37199088  1
  O  O163  1  0.76368018  0.51884243  0.89684705  1
  O  O164  1  0.25243654  0.49717071  0.13667922  1
  O  O165  1  0.24150337  0.49480038  0.63427172  1
  O  O166  1  0.24578063  1.00154692  0.13027419  1
  O  O167  1  0.22779624  1.00955866  0.61284335  1
  O  O168  1  0.73148823  0.49097877  0.11863081  1
  O  O169  1  0.74453398  0.49989738  0.62570548  1
  O  O170  1  0.73654927  0.99513485  0.12583042  1
  O  O171  1  0.75426167  0.98821875  0.62043192  1
  O  O172  1  0.02009475  0.36415444  0.23931562  1
  O  O173  1  0.00786270  0.36112945  0.75544538  1
  O  O174  1  0.03506802  0.88865829  0.21371696  1
  O  O175  1  0.00591988  0.85236667  0.73244406  1
  O  O176  1  0.49869101  0.38220876  0.27068932  1
  O  O177  1  0.48599850  0.36395776  0.73077229  1
  O  O178  1  0.51522689  0.88463513  0.25333829  1
  O  O179  1  0.49604151  0.86037923  0.73779307  1
  O  O180  1  0.50117878  0.11652093  0.23186224  1
  O  O181  1  0.49134849  0.12907149  0.73954243  1
  O  O182  1  0.50486536  0.62972605  0.23720956  1
  O  O183  1  0.49108379  0.63750466  0.74960262  1
  O  O184  1  1.00918670  0.11111850  0.24253621  1
  O  O185  1  1.01579768  0.13848213  0.73289138  1
  O  O186  1  0.99048376  0.62488278  0.24130316  1
  O  O187  1  1.00744101  0.63631473  0.73142995  1
  O  O188  1  0.37319087  0.26231495  -0.01535518  1
  O  O189  1  0.36491378  0.26280621  0.50621676  1
  O  O190  1  0.35947877  0.74632199  -0.00083126  1
  O  O191  1  0.36178098  0.78011938  0.46503867  1
  O  O192  1  0.88164586  0.25266914  0.02660517  1
  O  O193  1  0.86641553  0.25485794  0.50838850  1
  O  O194  1  0.87621140  0.76587283  0.01171913  1
  O  O195  1  0.87026801  0.75892695  0.50122247  1
  O  O196  1  0.13282629  0.24838503  0.49195198  1
  O  O197  1  0.14135639  0.24713601  1.00467446  1
  O  O198  1  0.10903218  0.72647972  0.47620248  1
  O  O199  1  0.14499166  0.73643328  1.01096626  1
  O  O200  1  0.64688551  0.24818354  0.49994772  1
  O  O201  1  0.58922316  0.24945015  0.96495771  1
  O  O202  1  0.64254383  0.76712038  0.48584172  1
  O  O203  1  0.63459600  0.74096148  0.99767444  1
  O  O204  1  0.49248374  0.24360220  0.12261658  1
  O  O205  1  0.49508400  0.24058111  0.61720932  1
  O  O206  1  0.50588117  0.73588749  0.11578087  1
  O  O207  1  0.50552298  0.73755871  0.63929403  1
  O  O208  1  0.99086652  0.22957604  0.12926881  1
  O  O209  1  0.99024247  0.24177570  0.62145670  1
  O  O210  1  0.98760852  0.75172833  0.13362219  1
  O  O211  1  0.99125876  0.74216649  0.61850685  1
  O  O212  1  0.01304247  0.24244149  0.37572926  1
  O  O213  1  -0.00245319  0.24102711  0.85792895  1
  O  O214  1  -0.00417135  0.74123748  0.35671282  1
  O  O215  1  0.01072838  0.74556402  0.85176793  1
  O  O216  1  0.52217524  0.26093288  0.40092102  1
  O  O217  1  0.52759064  0.25273337  0.90440393  1
  O  O218  1  0.52024492  0.74773382  0.38015954  1
  O  O219  1  0.49343822  0.75194520  0.85702970  1
  O  O220  1  0.24926500  0.14850298  0.50721217  1
  O  O221  1  0.26193192  0.14189844  0.99915647  1
  O  O222  1  0.22323927  0.59671183  0.47519149  1
  O  O223  1  0.24462573  0.63301623  0.98646175  1
  O  O224  1  0.78488249  0.12066968  0.46403338  1
  O  O225  1  0.74192039  0.12760067  0.99389388  1
  O  O226  1  0.75216143  0.64470661  0.49986926  1
  O  O227  1  0.74104920  0.63932243  0.99642052  1
  O  O228  1  0.26082180  0.36424305  -0.00430486  1
  O  O229  1  0.26105139  0.37483888  0.50779902  1
  O  O230  1  0.24512354  0.85403421  0.02819674  1
  O  O231  1  0.26021751  0.89737243  0.48469200  1
  O  O232  1  0.72647571  0.36754413  0.02097170  1
  O  O233  1  0.75290632  0.37340794  0.49635751  1
  O  O234  1  0.74619580  0.86703799  0.00329130  1
  O  O235  1  0.76593434  0.86950690  0.50517792  1
  O  O236  1  0.12619535  0.47699602  0.24943664  1
  O  O237  1  0.13029267  0.49596557  0.74235340  1
  O  O238  1  0.17078834  0.98699987  0.28989236  1
  O  O239  1  0.11100979  0.97459040  0.71999816  1
  O  O240  1  0.62138188  0.50664019  0.23670453  1
  O  O241  1  0.63084327  0.50541632  0.73453323  1
  O  O242  1  0.63372004  0.99103460  0.24260354  1
  O  O243  1  0.61910345  0.97139938  0.78000225  1
  O  O244  1  0.34827903  -0.00624681  0.26177103  1
  O  O245  1  0.38325154  0.00831267  0.76755688  1
  O  O246  1  0.36485179  0.49699401  0.24798471  1
  O  O247  1  0.36550723  0.50477153  0.76001080  1
  O  O248  1  0.85978214  -0.01059105  0.25166425  1
  O  O249  1  0.92525805  0.00730599  0.75068688  1
  O  O250  1  0.90941369  0.49203706  0.25827870  1
  O  O251  1  0.85398644  0.48522915  0.75518221  1
  O  O252  1  0.12101153  0.36176649  0.38046378  1
  O  O253  1  0.11864730  0.38395063  0.86084071  1
  O  O254  1  0.11548884  0.86038907  0.38214367  1
  O  O255  1  0.14042641  0.90463383  0.87161594  1
  O  O256  1  0.61289520  0.37912601  0.38036044  1
  O  O257  1  0.63398664  0.37957666  0.86279935  1
  O  O258  1  0.63459872  0.86509241  0.36065997  1
  O  O259  1  0.63256554  0.91818738  0.83174703  1
  O  O260  1  0.38347197  0.14337988  0.12830988  1
  O  O261  1  0.38899143  0.11425554  0.64109265  1
  O  O262  1  0.39507778  0.61925600  0.11476773  1
  O  O263  1  0.39033605  0.60710962  0.64341921  1
  O  O264  1  0.87155132  0.12770607  0.13340175  1
  O  O265  1  0.89079678  0.12752520  0.61612134  1
  O  O266  1  0.86492736  0.64540969  0.11846915  1
  O  O267  1  0.88145296  0.63894439  0.61431724  1
  O  O268  1  0.27016136  0.25282095  0.11178628  1
  O  O269  1  0.24244637  0.27014816  0.61363082  1
  O  O270  1  0.25825690  0.72656366  0.12942526  1
  O  O271  1  0.27414043  0.69307161  0.58834768  1
  O  O272  1  0.75749682  0.25212015  0.12600823  1
  O  O273  1  0.76465093  0.24010691  0.61215486  1
  O  O274  1  0.75370949  0.75975470  0.11295046  1
  O  O275  1  0.76198792  0.75683441  0.61457122  1
  O  O276  1  0.24851837  0.25563840  0.39095767  1
  O  O277  1  0.23866749  0.24464617  0.87696562  1
  O  O278  1  0.21797118  0.74280666  0.35830656  1
  O  O279  1  0.25392364  0.73993017  0.86727021  1
  O  O280  1  0.73965894  0.25277997  0.39105536  1
  O  O281  1  0.72931795  0.24836339  0.87843658  1
  O  O282  1  0.75194434  0.74363857  0.38133875  1
  O  O283  1  0.75602560  0.74681191  0.89007438  1
  O  O284  1  0.00875752  0.12225065  0.01393425  1
  O  O285  1  0.00494131  0.11428484  0.49701975  1
  O  O286  1  0.02092456  0.64012651  -0.00527513  1
  O  O287  1  0.00353656  0.60912784  0.50825840  1
  O  O288  1  0.49663895  0.10930281  0.02340869  1
  O  O289  1  0.49221284  0.10553908  0.51984806  1
  O  O290  1  0.51178138  0.62813186  -0.00597992  1
  O  O291  1  0.49742964  0.63327076  0.51638466  1
  O  O292  1  0.48790647  0.38294743  0.50452203  1
  O  O293  1  0.48308476  0.38381856  0.99321776  1
  O  O294  1  0.48718162  0.88697167  0.50934521  1
  O  O295  1  0.49416444  0.89057463  1.01016735  1
  O  O296  1  0.99669138  0.38550934  0.51642515  1
  O  O297  1  1.00892068  0.36699610  0.97479383  1
  O  O298  1  0.99103266  0.88304178  0.49529448  1
  O  O299  1  0.99502702  0.88617454  1.01311404  1
  O  O300  1  0.50747573  0.49670107  0.38162572  1
  O  O301  1  0.48294547  0.50960097  0.87096421  1
  O  O302  1  0.49929066  1.00040122  0.38558318  1
  O  O303  1  0.49407486  1.00418105  0.89382572  1
  O  O304  1  1.00255424  0.48819675  0.39280438  1
  O  O305  1  0.98928759  0.48714179  0.86094766  1
  O  O306  1  1.00918515  1.00543546  0.38098546  1
  O  O307  1  0.99352064  1.00999006  0.90572449  1
  O  O308  1  -0.00257464  0.01840392  0.11517356  1
  O  O309  1  0.01462051  0.00394716  0.60392790  1
  O  O310  1  -0.03882404  0.50175393  0.06618434  1
  O  O311  1  0.00329802  0.50534654  0.62509224  1
  O  O312  1  0.51014066  0.00560107  0.12388336  1
  O  O313  1  0.50819751  0.00377990  0.63567562  1
  O  O314  1  0.50999687  0.51220079  0.11824374  1
  O  O315  1  0.52206781  0.52144258  0.63242638  1
  O  O316  1  0.23873703  0.37705350  0.23223315  1
  O  O317  1  0.24456517  0.38285038  0.74528616  1
  O  O318  1  0.25723993  0.86298525  0.23060923  1
  O  O319  1  0.25247842  0.90855204  0.75668289  1
  O  O320  1  0.72877858  0.36970705  0.22596371  1
  O  O321  1  0.78852602  0.45215202  0.75501450  1
  O  O322  1  0.74402642  0.88261817  0.23918016  1
  O  O323  1  0.76519344  0.87082398  0.73346810  1
  O  O324  1  0.25539918  0.13239537  0.26583682  1
  O  O325  1  0.27071956  0.12852795  0.74361789  1
  O  O326  1  0.23739530  0.59892148  0.26342820  1
  O  O327  1  0.25947075  0.61902695  0.75451731  1
  O  O328  1  0.74706050  0.10650790  0.25244667  1
  O  O329  1  0.74980191  0.12960746  0.76572118  1
  O  O330  1  0.75055625  0.63569407  0.25034097  1
  O  O331  1  0.75461201  0.63131842  0.77296096  1
  O  O332  1  0.37294274  0.15289983  0.37613805  1
  O  O333  1  0.38602037  0.12345202  0.86010676  1
  O  O334  1  0.37464746  0.64535703  0.35545883  1
  O  O335  1  0.36362001  0.61561686  0.86454086  1
  O  O336  1  0.84004446  0.12158921  0.40883352  1
  O  O337  1  0.85386534  0.15183459  0.87442538  1
  O  O338  1  0.85831180  0.62208599  0.37255054  1
  O  O339  1  0.86950418  0.63351562  0.88518419  1
  O  O340  1  0.12485864  0.36181496  0.12442416  1
  O  O341  1  0.13039264  0.38503612  0.63423500  1
  O  O342  1  0.09091684  0.88168279  0.16406738  1
  O  O343  1  0.13564891  0.87729291  0.59475162  1
  O  O344  1  0.60791786  0.39088159  0.12792216  1
  O  O345  1  0.62879543  0.37953130  0.62824263  1
  O  O346  1  0.63316390  0.88480766  0.13813020  1
  O  O347  1  0.64709319  0.87482155  0.62248304  1
  O  O348  1  0.13725045  0.26140708  0.26650717  1
  O  O349  1  0.11636135  0.25779010  0.74892129  1
  O  O350  1  0.10104261  0.74301602  0.25466575  1
  O  O351  1  0.12854446  0.74873508  0.73349742  1
  O  O352  1  0.62922198  0.24621253  0.27679946  1
  O  O353  1  0.61950425  0.25569282  0.75731464  1
  O  O354  1  0.62873579  0.76462768  0.25658419  1
  O  O355  1  0.62090917  0.75583908  0.75669304  1
  O  O356  1  0.36886129  0.27121146  0.24006491  1
  O  O357  1  0.37655637  0.24495645  0.74595619  1
  O  O358  1  0.36545200  0.69007192  0.29610386  1
  O  O359  1  0.36830382  0.73758714  0.74420227  1
  O  O360  1  0.87491330  0.26476665  0.22979369  1
  O  O361  1  0.89347336  0.24643287  0.73301421  1
  O  O362  1  0.88515137  0.75903357  0.23590469  1
  O  O363  1  0.88081477  0.75050845  0.73157798  1
  O  O364  1  0.36719118  0.49492178  0.51127418  1
  O  O365  1  0.36913838  0.49449995  0.98404950  1
  O  O366  1  0.38701719  0.99290950  0.50557806  1
  O  O367  1  0.38420409  1.00461332  0.99270749  1
  O  O368  1  0.88216142  0.50195548  0.49182038  1
  O  O369  1  0.90405817  0.50812554  1.02044407  1
  O  O370  1  0.89026728  0.98647620  0.49674557  1
  O  O371  1  0.87119142  0.98345032  1.01025687  1
  O  O372  1  0.12129874  0.00548625  0.00857389  1
  O  O373  1  0.11597604  0.00723994  0.49535127  1
  O  O374  1  0.13139840  0.51966535  -0.00618817  1
  O  O375  1  0.11046080  0.49927063  0.50813959  1
  O  O376  1  0.61578444  -0.00608280  0.01559348  1
  O  O377  1  0.60745467  -0.00946485  0.50258867  1
  O  O378  1  0.62214756  0.51455357  0.00332393  1
  O  O379  1  0.62861991  0.50571253  0.52635368  1
  O  O380  1  0.38205809  0.36448110  0.10765352  1
  O  O381  1  0.37209289  0.37477158  0.62212204  1
  O  O382  1  0.37911423  0.87630807  0.13652301  1
  O  O383  1  0.35784491  0.87384907  0.61366405  1
  O  O384  1  0.85601540  0.38040114  0.12315055  1
  O  O385  1  0.87168955  0.36073385  0.62902246  1
  O  O386  1  0.86102321  0.86933123  0.11643583  1
  O  O387  1  0.87164368  0.86245529  0.61192521  1
  O  O388  1  0.14082608  0.14150653  0.38537926  1
  O  O389  1  0.13982992  0.06737732  0.83054926  1
  O  O390  1  0.10390831  0.61040632  0.37525724  1
  O  O391  1  0.14060386  0.62511269  0.86688287  1
  O  O392  1  0.61742432  0.13061224  0.38506687  1
  O  O393  1  0.63187063  0.12784142  0.87562875  1
  O  O394  1  0.64020718  0.64599940  0.36719474  1
  O  O395  1  0.63384513  0.62008097  0.88574448  1
