# generated using pymatgen
data_V35Zn35O128
_symmetry_space_group_name_H-M   'P 1'
_cell_length_a   16.87050780
_cell_length_b   16.82376646
_cell_length_c   16.87119517
_cell_angle_alpha   90.08049962
_cell_angle_beta   90.14014035
_cell_angle_gamma   89.99296488
_symmetry_Int_Tables_number   1
_chemical_formula_structural   V35Zn35O128
_chemical_formula_sum   'V70 Zn70 O256'
_cell_volume   4788.45603961
_cell_formula_units_Z   2
loop_
 _symmetry_equiv_pos_site_id
 _symmetry_equiv_pos_as_xyz
  1  'x, y, z'
loop_
 _atom_site_type_symbol
 _atom_site_label
 _atom_site_symmetry_multiplicity
 _atom_site_fract_x
 _atom_site_fract_y
 _atom_site_fract_z
 _atom_site_occupancy
  V  V0  1  0.37572903  0.12739124  0.23529090  1
  V  V1  1  0.24630993  0.11397194  0.37358075  1
  V  V2  1  0.89623325  0.87356736  -0.00299351  1
  V  V3  1  0.14164926  0.88514360  0.24447646  1
  V  V4  1  0.25115960  0.62637629  0.36876202  1
  V  V5  1  0.28120118  0.25500724  0.48441364  1
  V  V6  1  0.10745570  0.49291213  0.60779909  1
  V  V7  1  0.39990238  0.00147545  0.36545102  1
  V  V8  1  0.49658707  0.25065576  0.22994711  1
  V  V9  1  0.88991450  0.87156334  0.50298538  1
  V  V10  1  0.09451006  0.36218219  0.76908790  1
  V  V11  1  0.61360200  0.62456551  -0.00181560  1
  V  V12  1  0.75384883  0.74947465  -0.00587500  1
  V  V13  1  0.88702895  -0.00588777  0.87331822  1
  V  V14  1  0.49711298  0.37187665  0.37567939  1
  V  V15  1  0.36542981  0.37296599  0.00347790  1
  V  V16  1  0.23558109  0.37482426  0.12250629  1
  V  V17  1  0.85903476  0.63131890  0.25400719  1
  V  V18  1  0.12302197  0.24959736  0.38679996  1
  V  V19  1  0.26603079  0.75488617  0.03310144  1
  V  V20  1  0.50525764  0.23563270  0.76175813  1
  V  V21  1  0.75517767  0.49984960  0.74858963  1
  V  V22  1  0.00520037  0.74665005  0.22023431  1
  V  V23  1  0.38569543  0.24774892  0.63465269  1
  V  V24  1  0.49050707  0.38743849  0.88067721  1
  V  V25  1  0.74111104  0.00098024  0.75110703  1
  V  V26  1  0.75417384  0.38612478  0.12515093  1
  V  V27  1  0.38060334  0.62529538  0.23338167  1
  V  V28  1  0.76168872  0.00694062  0.25009900  1
  V  V29  1  0.50504557  0.74341179  0.22692187  1
  V  V30  1  0.12482355  0.75714922  0.37073279  1
  V  V31  1  0.60781299  0.50516091  0.12011877  1
  V  V32  1  0.60747641  0.39321155  0.75486943  1
  V  V33  1  0.62410584  0.85467881  0.75573729  1
  V  V34  1  0.73411331  0.23969671  -0.00285094  1
  V  V35  1  0.25790837  0.37531731  0.61591329  1
  V  V36  1  0.75224236  0.75018723  0.48351671  1
  V  V37  1  0.87882953  0.12751129  0.75117736  1
  V  V38  1  0.37952585  0.88000028  0.50066855  1
  V  V39  1  0.50215353  0.86202681  0.87335088  1
  V  V40  1  0.73194595  0.36672153  0.62152280  1
  V  V41  1  0.12411424  0.39288396  0.26182226  1
  V  V42  1  0.87403021  0.24350285  0.62792645  1
  V  V43  1  0.13188464  0.01079726  0.11447539  1
  V  V44  1  0.06988295  0.07174289  0.56617606  1
  V  V45  1  0.73877627  0.13395293  0.39022253  1
  V  V46  1  0.75158022  0.86140412  0.62913120  1
  V  V47  1  0.50057215  0.66347536  0.62552683  1
  V  V48  1  0.51523842  0.11400382  0.60817090  1
  V  V49  1  0.88943060  0.63309017  0.74102789  1
  V  V50  1  0.88058630  0.37015507  -0.02623751  1
  V  V51  1  0.37904339  0.50171669  0.37338886  1
  V  V52  1  0.26194025  0.74829987  0.50142789  1
  V  V53  1  0.51609287  0.01930286  0.00510381  1
  V  V54  1  0.62435522  0.37871626  0.24979062  1
  V  V55  1  0.23531581  0.88637390  0.62088468  1
  V  V56  1  0.89066505  0.37446477  0.51033377  1
  V  V57  1  0.24439453  0.14371357  0.86134537  1
  V  V58  1  0.75911994  0.61647684  0.87941653  1
  V  V59  1  -0.00770313  0.24943284  0.26652798  1
  V  V60  1  0.38000399  0.87811849  0.01549643  1
  V  V61  1  0.51105204  0.86257621  0.36772972  1
  V  V62  1  0.63677863  0.86693967  0.24220150  1
  V  V63  1  0.87215438  0.24427813  0.14187212  1
  V  V64  1  0.50637085  0.49968798  0.50991388  1
  V  V65  1  0.75912340  0.86746061  0.12156162  1
  V  V66  1  0.62753288  0.63632745  0.48948650  1
  V  V67  1  0.88518982  0.00137270  0.38484530  1
  V  V68  1  0.37783609  0.00888767  0.86014751  1
  V  V69  1  -0.00504904  0.50052551  -0.00120571  1
  Zn  Zn70  1  0.35182868  0.51693951  0.87136045  1
  Zn  Zn71  1  0.42553440  0.69500425  0.79516596  1
  Zn  Zn72  1  0.11764523  0.63782740  0.00929457  1
  Zn  Zn73  1  0.00401991  0.12423540  0.12454472  1
  Zn  Zn74  1  0.00221472  0.40074584  0.39150894  1
  Zn  Zn75  1  0.86542094  0.51603754  0.38480986  1
  Zn  Zn76  1  0.18498610  0.19570123  0.19186320  1
  Zn  Zn77  1  0.19554346  0.18625881  0.68978251  1
  Zn  Zn78  1  0.18784435  0.67990396  0.18704205  1
  Zn  Zn79  1  0.23240100  0.52636388  0.72554260  1
  Zn  Zn80  1  0.68623326  0.19269032  0.18595380  1
  Zn  Zn81  1  0.67562213  0.18328886  0.71254871  1
  Zn  Zn82  1  0.69620050  0.68614049  0.18283535  1
  Zn  Zn83  1  0.68164941  0.67852488  0.68309449  1
  Zn  Zn84  1  0.30105787  0.30543298  0.28667780  1
  Zn  Zn85  1  0.30992277  0.31422833  0.81049225  1
  Zn  Zn86  1  0.32100385  0.80999308  0.30138616  1
  Zn  Zn87  1  0.28542459  0.86796733  0.82727292  1
  Zn  Zn88  1  0.79064462  0.33877425  0.34585981  1
  Zn  Zn89  1  0.79135672  0.30466442  0.80888186  1
  Zn  Zn90  1  0.83030879  0.81245414  0.31382361  1
  Zn  Zn91  1  0.81728856  0.80629593  0.81699372  1
  Zn  Zn92  1  0.19023553  0.43800749  0.44135381  1
  Zn  Zn93  1  0.16942414  0.43505737  0.94387250  1
  Zn  Zn94  1  0.18176488  0.93893793  0.44182395  1
  Zn  Zn95  1  0.18233890  1.01327423  0.93333816  1
  Zn  Zn96  1  0.68524796  0.44927595  0.43778973  1
  Zn  Zn97  1  0.68378900  0.43442397  0.93836280  1
  Zn  Zn98  1  0.68517727  0.94965711  0.43473359  1
  Zn  Zn99  1  0.69093821  0.94039276  0.93288475  1
  Zn  Zn100  1  0.31426753  0.06233715  0.04883519  1
  Zn  Zn101  1  0.31910037  0.06500658  0.55755898  1
  Zn  Zn102  1  0.27783625  0.55705836  0.06325153  1
  Zn  Zn103  1  0.32644768  0.57064629  0.55930637  1
  Zn  Zn104  1  0.81268685  0.05563682  0.06609197  1
  Zn  Zn105  1  0.80078418  0.05592452  0.56626486  1
  Zn  Zn106  1  0.83567312  0.56431319  0.06286667  1
  Zn  Zn107  1  0.80736245  0.55894744  0.56745851  1
  Zn  Zn108  1  0.43036568  0.44090370  0.18276817  1
  Zn  Zn109  1  0.41302712  0.44585493  0.69097361  1
  Zn  Zn110  1  0.44971817  0.94594836  0.18561459  1
  Zn  Zn111  1  0.44740358  0.93618678  0.68477126  1
  Zn  Zn112  1  0.93534005  0.44821952  0.20276823  1
  Zn  Zn113  1  0.93647117  0.43591651  0.69077728  1
  Zn  Zn114  1  0.94928272  0.93298518  0.19153607  1
  Zn  Zn115  1  0.93022843  0.93125247  0.68776746  1
  Zn  Zn116  1  0.06075972  0.06421486  0.30569053  1
  Zn  Zn117  1  0.06286947  0.06129541  0.78670968  1
  Zn  Zn118  1  0.04441802  0.57326643  0.32615848  1
  Zn  Zn119  1  0.05654692  0.58255547  0.84106536  1
  Zn  Zn120  1  0.58560788  0.07504004  0.26879608  1
  Zn  Zn121  1  0.56895648  0.06153513  0.82375353  1
  Zn  Zn122  1  0.56528933  0.56276438  0.30976515  1
  Zn  Zn123  1  0.54486957  0.57927360  0.82101977  1
  Zn  Zn124  1  0.45866409  0.17862940  0.42561364  1
  Zn  Zn125  1  0.42732297  0.19130092  0.93988511  1
  Zn  Zn126  1  0.44138389  0.68759035  0.43228730  1
  Zn  Zn127  1  0.40914874  0.66286591  0.97308466  1
  Zn  Zn128  1  0.92653608  0.18432426  0.44863867  1
  Zn  Zn129  1  0.88521279  0.17069717  0.95394290  1
  Zn  Zn130  1  0.94611775  0.67863106  0.45420108  1
  Zn  Zn131  1  0.94854195  0.68593502  0.95213251  1
  Zn  Zn132  1  0.02986827  0.35423147  0.09240738  1
  Zn  Zn133  1  0.08330439  0.27254550  0.59921214  1
  Zn  Zn134  1  0.08395104  0.82400812  0.05777646  1
  Zn  Zn135  1  0.06825674  0.78342599  0.55825567  1
  Zn  Zn136  1  0.55946830  0.31523783  0.05757535  1
  Zn  Zn137  1  0.56641596  0.30853414  0.56279784  1
  Zn  Zn138  1  0.57149016  0.81672408  0.05420111  1
  Zn  Zn139  1  0.57782772  0.84073039  0.55017200  1
  O  O140  1  0.12387229  0.12088391  0.13420396  1
  O  O141  1  0.12719850  0.15138211  0.60440207  1
  O  O142  1  0.17697333  0.61007982  0.10019098  1
  O  O143  1  0.15780079  0.57426947  0.64765860  1
  O  O144  1  0.61842531  0.10929098  0.16466051  1
  O  O145  1  0.61246363  0.12923530  0.63197086  1
  O  O146  1  0.63613357  0.61017740  0.11755192  1
  O  O147  1  0.60772748  0.63126740  0.60925901  1
  O  O148  1  0.38766500  0.39223504  0.36179272  1
  O  O149  1  0.38142179  0.38145068  0.87294079  1
  O  O150  1  0.38888307  0.88870432  0.35952571  1
  O  O151  1  0.39417998  0.88297468  0.87434597  1
  O  O152  1  0.89069245  0.35319090  0.40586261  1
  O  O153  1  0.86558568  0.36234552  0.87634661  1
  O  O154  1  0.87559750  0.88326202  0.39397685  1
  O  O155  1  0.87661098  0.88307412  0.88321131  1
  O  O156  1  0.25313258  0.01309475  0.37583955  1
  O  O157  1  0.27393194  -0.02317970  0.87108021  1
  O  O158  1  0.26870389  0.51410553  0.38511772  1
  O  O159  1  0.22197341  0.53183174  0.89070056  1
  O  O160  1  0.75936623  0.00049445  0.36695027  1
  O  O161  1  0.76406504  -0.01182036  0.85733303  1
  O  O162  1  0.76883945  0.45265019  0.36667315  1
  O  O163  1  0.74179992  0.50807399  0.86643725  1
  O  O164  1  0.26126344  0.46976221  0.14492945  1
  O  O165  1  0.27888548  0.47677791  0.60613655  1
  O  O166  1  0.23388596  1.01283124  0.11753124  1
  O  O167  1  0.25169508  0.98670986  0.60343445  1
  O  O168  1  0.75003189  0.48651000  0.12335178  1
  O  O169  1  0.74345439  0.48727245  0.64289220  1
  O  O170  1  0.76581011  0.98525380  0.14190775  1
  O  O171  1  0.75484121  0.97943931  0.64151886  1
  O  O172  1  0.00229354  0.36629860  0.26262839  1
  O  O173  1  -0.00702574  0.36833077  0.76291612  1
  O  O174  1  0.01855431  0.85444442  0.24503090  1
  O  O175  1  -0.00500748  0.86699915  0.76159111  1
  O  O176  1  0.50122249  0.36960901  0.25067240  1
  O  O177  1  0.49822292  0.38081692  0.75732920  1
  O  O178  1  0.51232411  0.86590934  0.24851873  1
  O  O179  1  0.51479740  0.87393546  0.75701202  1
  O  O180  1  0.48950688  0.14150491  0.25263618  1
  O  O181  1  0.49934052  0.13591204  0.74483370  1
  O  O182  1  0.49828041  0.63584038  0.24511003  1
  O  O183  1  0.50923227  0.64808237  0.73233723  1
  O  O184  1  1.00306753  0.14777165  0.24860142  1
  O  O185  1  0.97811856  0.12868991  0.74551721  1
  O  O186  1  1.01585104  0.64593445  0.24393797  1
  O  O187  1  0.98665001  0.60967668  0.75305551  1
  O  O188  1  0.36009471  0.27233053  -0.01602637  1
  O  O189  1  0.38074115  0.25183461  0.48335298  1
  O  O190  1  0.38771201  0.77160235  0.00894676  1
  O  O191  1  0.36980606  0.76832297  0.47860627  1
  O  O192  1  0.86438275  0.26658089  0.01767657  1
  O  O193  1  0.86327281  0.25721925  0.52101010  1
  O  O194  1  0.87171800  0.76520975  -0.01408240  1
  O  O195  1  0.86046193  0.76161365  0.49727786  1
  O  O196  1  0.12508552  0.25411009  0.48721546  1
  O  O197  1  0.04879505  0.19312750  0.96369898  1
  O  O198  1  0.15328103  0.75559428  0.47794738  1
  O  O199  1  0.16316095  0.75704382  1.00843253  1
  O  O200  1  0.60309521  0.23800674  0.48526329  1
  O  O201  1  0.63587696  0.24012430  1.02042862  1
  O  O202  1  0.63613855  0.74522489  0.49815147  1
  O  O203  1  0.64119288  0.73258649  1.00910054  1
  O  O204  1  0.49110608  0.25675971  0.13148886  1
  O  O205  1  0.49489265  0.24464685  0.63258266  1
  O  O206  1  0.50471069  0.75405365  0.12870731  1
  O  O207  1  0.50585843  0.76255484  0.60974683  1
  O  O208  1  0.98342564  0.25942438  0.14019993  1
  O  O209  1  0.97210711  0.25399894  0.63339846  1
  O  O210  1  1.01597364  0.74759167  0.11980061  1
  O  O211  1  1.03657873  0.80573251  0.72276031  1
  O  O212  1  0.00285538  0.24110964  0.37357751  1
  O  O213  1  0.02123630  0.22073516  0.89935496  1
  O  O214  1  0.02755630  0.74126187  0.38091031  1
  O  O215  1  0.05496912  0.66853554  0.92010133  1
  O  O216  1  0.49817279  0.27023834  0.36644198  1
  O  O217  1  0.48837330  0.25890437  0.86226534  1
  O  O218  1  0.49939209  0.76027299  0.35802921  1
  O  O219  1  0.49378886  0.76303897  0.86994523  1
  O  O220  1  0.26360123  0.13956502  0.47899618  1
  O  O221  1  0.25005959  0.10985232  0.96624250  1
  O  O222  1  0.26882455  0.64013394  0.48424822  1
  O  O223  1  0.29249091  0.65716170  0.99533220  1
  O  O224  1  0.74006146  0.11555333  0.49049015  1
  O  O225  1  0.77088521  0.14002921  1.00184263  1
  O  O226  1  0.73929901  0.63697191  0.50615814  1
  O  O227  1  0.75848408  0.62671196  0.98967547  1
  O  O228  1  0.23838430  0.36808068  0.01746271  1
  O  O229  1  0.26321840  0.35921696  0.49210801  1
  O  O230  1  0.27638830  0.86291444  -0.00542856  1
  O  O231  1  0.26588528  0.87051803  0.49255336  1
  O  O232  1  0.74726470  0.36383128  0.01378618  1
  O  O233  1  0.72906890  0.37259075  0.52122655  1
  O  O234  1  0.75100881  0.86608172  0.00369120  1
  O  O235  1  0.74756003  0.86163842  0.51454334  1
  O  O236  1  0.10362524  0.49010492  0.26427336  1
  O  O237  1  0.12688521  0.45090806  0.72521768  1
  O  O238  1  0.13012363  0.98702650  0.25819645  1
  O  O239  1  0.08114287  1.01431318  0.67366123  1
  O  O240  1  0.61773934  0.49046880  0.23386423  1
  O  O241  1  0.61841551  0.49551335  0.75442722  1
  O  O242  1  0.65239362  0.97643205  0.25492251  1
  O  O243  1  0.63880555  0.98753042  0.75819893  1
  O  O244  1  0.38500184  0.01555170  0.25467827  1
  O  O245  1  0.38633269  -0.00331027  0.76112843  1
  O  O246  1  0.39061748  0.51526125  0.26165130  1
  O  O247  1  0.34080760  0.50607412  0.75610081  1
  O  O248  1  0.86709315  -0.02067412  0.26841675  1
  O  O249  1  0.86916233  0.00453576  0.75501825  1
  O  O250  1  0.88114274  0.52503036  0.26252442  1
  O  O251  1  0.85683510  0.50170616  0.75214221  1
  O  O252  1  0.11469034  0.37027885  0.37720966  1
  O  O253  1  0.12992366  0.36486382  0.86475587  1
  O  O254  1  0.13347028  0.86374509  0.36440725  1
  O  O255  1  0.11846099  0.88166594  0.87185006  1
  O  O256  1  0.61104944  0.38762220  0.35538387  1
  O  O257  1  0.60737661  0.37721155  0.86582341  1
  O  O258  1  0.61478450  0.87264947  0.36232963  1
  O  O259  1  0.61524439  0.87389734  0.86719561  1
  O  O260  1  0.36655607  0.12275558  0.13709317  1
  O  O261  1  0.38942194  0.14212764  0.60832778  1
  O  O262  1  0.37190423  0.60946243  0.13691219  1
  O  O263  1  0.40096400  0.63674434  0.61507876  1
  O  O264  1  0.87887600  0.14198072  0.12506093  1
  O  O265  1  0.86041651  0.13496224  0.63335709  1
  O  O266  1  0.86139864  0.62997331  0.15148577  1
  O  O267  1  0.86608676  0.62013117  0.64282421  1
  O  O268  1  0.25996684  0.28129550  0.16907742  1
  O  O269  1  0.27129353  0.25068965  0.59976971  1
  O  O270  1  0.26685843  0.75454178  0.13200648  1
  O  O271  1  0.26074799  0.76293495  0.59980458  1
  O  O272  1  0.75954209  0.25505211  0.12558895  1
  O  O273  1  0.74418732  0.26457680  0.64422630  1
  O  O274  1  0.75900892  0.75686180  0.10979778  1
  O  O275  1  0.74993945  0.75785619  0.62657399  1
  O  O276  1  0.24593759  0.24860002  0.37867201  1
  O  O277  1  0.24180064  0.24405513  0.86902264  1
  O  O278  1  0.25417024  0.73976831  0.37087187  1
  O  O279  1  0.16309051  0.82567265  0.85194924  1
  O  O280  1  0.75470570  0.23301584  0.37073799  1
  O  O281  1  0.73969745  0.25524484  0.89765506  1
  O  O282  1  0.74948100  0.76082288  0.38580672  1
  O  O283  1  0.74948675  0.73369556  0.88405044  1
  O  O284  1  -0.00863135  0.14114184  0.00311111  1
  O  O285  1  -0.00286143  0.12098350  0.51562473  1
  O  O286  1  -0.04820000  0.59356976  0.02332280  1
  O  O287  1  0.00760264  0.69078321  0.54628444  1
  O  O288  1  0.49451627  0.11862555  -0.00493729  1
  O  O289  1  0.51634089  0.12665500  0.50538164  1
  O  O290  1  0.51656962  0.63270645  0.00766908  1
  O  O291  1  0.50988200  0.62362290  0.50404744  1
  O  O292  1  0.51176749  0.38865596  0.48361118  1
  O  O293  1  0.48406110  0.37092343  0.98817617  1
  O  O294  1  0.48700438  0.86717696  0.47414986  1
  O  O295  1  0.50224159  0.88131555  0.98632021  1
  O  O296  1  0.98881278  0.37176860  0.52290318  1
  O  O297  1  0.98548179  0.36944695  0.98447251  1
  O  O298  1  0.98730000  0.86458913  0.51396574  1
  O  O299  1  0.99462407  0.86912745  0.99764222  1
  O  O300  1  0.49616378  0.49572469  0.37860570  1
  O  O301  1  0.49916942  0.48646067  0.87762951  1
  O  O302  1  0.50018489  0.99218943  0.36138582  1
  O  O303  1  0.49327465  0.99800507  0.88054720  1
  O  O304  1  0.98439197  0.51233810  0.39738567  1
  O  O305  1  0.99119682  0.50106109  0.89555656  1
  O  O306  1  0.98392878  1.00919496  0.37236905  1
  O  O307  1  0.98600098  1.00019752  0.85867190  1
  O  O308  1  0.01680347  0.00992624  0.14488667  1
  O  O309  1  0.00635956  0.00357103  0.63222200  1
  O  O310  1  -0.01023377  0.46267298  0.10604853  1
  O  O311  1  0.00714959  0.49707906  0.62344379  1
  O  O312  1  0.50964685  -0.00157133  0.10500088  1
  O  O313  1  0.49516703  0.01567152  0.62109239  1
  O  O314  1  0.50888996  0.50012543  0.11843193  1
  O  O315  1  0.48889536  0.49016302  0.60773077  1
  O  O316  1  0.22572096  0.39053096  0.27524428  1
  O  O317  1  0.25932733  0.35906551  0.71638433  1
  O  O318  1  0.24132599  0.87178902  0.24939270  1
  O  O319  1  0.25270973  0.87441528  0.71899210  1
  O  O320  1  0.72854783  0.36485904  0.23675225  1
  O  O321  1  0.72919845  0.38726030  0.75367411  1
  O  O322  1  0.75235260  0.86031001  0.23811558  1
  O  O323  1  0.74657640  0.87190091  0.74693245  1
  O  O324  1  0.26920761  0.13772274  0.26583574  1
  O  O325  1  0.26257909  0.13106292  0.75823565  1
  O  O326  1  0.27053562  0.62894807  0.26062661  1
  O  O327  1  0.25361504  0.70008560  0.77678953  1
  O  O328  1  0.76151043  0.10747809  0.25237469  1
  O  O329  1  0.75712134  0.10401754  0.74264486  1
  O  O330  1  0.75926487  0.64386942  0.26795956  1
  O  O331  1  0.74283430  0.61185238  0.75962116  1
  O  O332  1  0.37771187  0.11073677  0.36929583  1
  O  O333  1  0.36559919  0.11386947  0.87178645  1
  O  O334  1  0.37597621  0.61840564  0.36395494  1
  O  O335  1  0.41918409  0.61246897  0.87187265  1
  O  O336  1  0.86073506  0.10736472  0.38785645  1
  O  O337  1  0.86852571  0.10982519  0.86025651  1
  O  O338  1  0.88257928  0.63464425  0.37223048  1
  O  O339  1  0.85952298  0.62063427  0.86338186  1
  O  O340  1  0.12980087  0.37130522  0.14817944  1
  O  O341  1  0.15179657  0.37888814  0.59651437  1
  O  O342  1  0.12943320  0.89356097  0.13708647  1
  O  O343  1  0.13707645  0.86379522  0.60495378  1
  O  O344  1  0.62816102  0.38814012  0.12597889  1
  O  O345  1  0.62416478  0.37700767  0.63989549  1
  O  O346  1  0.64455087  0.87048959  0.12998958  1
  O  O347  1  0.63918765  0.86934446  0.64700973  1
  O  O348  1  0.11114347  0.26250808  0.26655487  1
  O  O349  1  0.12063896  0.27232537  0.71690618  1
  O  O350  1  0.12645779  0.75608941  0.25333325  1
  O  O351  1  0.06556945  0.75300896  0.76731756  1
  O  O352  1  0.60773507  0.26725597  0.24119540  1
  O  O353  1  0.60347459  0.27323690  0.74568105  1
  O  O354  1  0.61604012  0.75390977  0.24143844  1
  O  O355  1  0.63272003  0.75577556  0.75827138  1
  O  O356  1  0.38906149  0.24095988  0.25605415  1
  O  O357  1  0.38768994  0.25158627  0.73884201  1
  O  O358  1  0.39298734  0.73786857  0.24462076  1
  O  O359  1  0.31256278  0.74235524  0.80061920  1
  O  O360  1  0.88151209  0.25554214  0.24868849  1
  O  O361  1  0.85716898  0.23365938  0.74698683  1
  O  O362  1  0.89928609  0.74526715  0.25138789  1
  O  O363  1  0.88110326  0.73373889  0.75730652  1
  O  O364  1  0.39643769  0.51067658  0.48165419  1
  O  O365  1  0.34051394  0.48102819  0.98485767  1
  O  O366  1  0.37740707  0.98835546  0.47605585  1
  O  O367  1  0.39065798  0.99117306  0.98937559  1
  O  O368  1  0.85940267  0.47626166  0.50727285  1
  O  O369  1  0.86483849  0.46945389  0.99887140  1
  O  O370  1  0.87115214  0.98484127  0.49658310  1
  O  O371  1  0.87450449  0.99055224  0.98428683  1
  O  O372  1  0.11073645  -0.00356652  0.01598822  1
  O  O373  1  0.11949688  0.01440264  0.49916586  1
  O  O374  1  0.10082248  0.50834485  0.00318027  1
  O  O375  1  0.12491469  0.50438271  0.50631842  1
  O  O376  1  0.61622987  0.00938906  -0.01660372  1
  O  O377  1  0.61051863  -0.05316490  0.51394344  1
  O  O378  1  0.62901144  0.50909576  0.01122682  1
  O  O379  1  0.61424180  0.51502103  0.49862938  1
  O  O380  1  0.37315900  0.37559242  0.10652499  1
  O  O381  1  0.37899409  0.35403718  0.61525507  1
  O  O382  1  0.38013940  0.88870347  0.11469124  1
  O  O383  1  0.38071751  0.88209464  0.60145584  1
  O  O384  1  0.85709960  0.36798667  0.13919192  1
  O  O385  1  0.85526086  0.36540912  0.62595097  1
  O  O386  1  0.87390248  0.88126716  0.10444881  1
  O  O387  1  0.86343144  0.87290656  0.61524988  1
  O  O388  1  0.14184638  0.13259853  0.36473655  1
  O  O389  1  0.14443738  0.09679442  0.85473340  1
  O  O390  1  0.14759415  0.63248721  0.36438078  1
  O  O391  1  0.17874178  0.56630724  0.82873294  1
  O  O392  1  0.64266741  0.11437192  0.36060310  1
  O  O393  1  0.63237381  0.15286017  0.82223834  1
  O  O394  1  0.62023479  0.62627072  0.38918955  1
  O  O395  1  0.63118107  0.61829241  0.89371621  1
