# generated using pymatgen
data_V35Zn35O128
_symmetry_space_group_name_H-M   'P 1'
_cell_length_a   16.83055143
_cell_length_b   16.85747596
_cell_length_c   16.84103276
_cell_angle_alpha   90.13193343
_cell_angle_beta   89.82916580
_cell_angle_gamma   89.86912823
_symmetry_Int_Tables_number   1
_chemical_formula_structural   V35Zn35O128
_chemical_formula_sum   'V70 Zn70 O256'
_cell_volume   4778.10174794
_cell_formula_units_Z   2
loop_
 _symmetry_equiv_pos_site_id
 _symmetry_equiv_pos_as_xyz
  1  'x, y, z'
loop_
 _atom_site_type_symbol
 _atom_site_label
 _atom_site_symmetry_multiplicity
 _atom_site_fract_x
 _atom_site_fract_y
 _atom_site_fract_z
 _atom_site_occupancy
  V  V0  1  0.11702025  0.10464080  0.51777009  1
  V  V1  1  0.12504428  0.62459219  0.01555981  1
  V  V2  1  0.89702670  0.37959232  0.49355851  1
  V  V3  1  0.25178619  0.74162667  0.47618464  1
  V  V4  1  0.11114921  0.75462035  0.88433100  1
  V  V5  1  0.12682320  0.37645609  0.24610964  1
  V  V6  1  0.74679696  0.01822791  0.72934928  1
  V  V7  1  0.14107699  0.24499716  0.88293294  1
  V  V8  1  0.36396435  0.10584872  0.24841887  1
  V  V9  1  0.51221866  0.87211317  0.86425097  1
  V  V10  1  0.74948789  0.26380641  0.51526776  1
  V  V11  1  0.51180028  0.73978700  0.75334084  1
  V  V12  1  0.74691608  0.76220431  0.01009109  1
  V  V13  1  0.63761080  0.25759554  0.35793013  1
  V  V14  1  0.36081027  0.87171264  -0.00894262  1
  V  V15  1  0.36453930  0.25068027  0.14198019  1
  V  V16  1  0.63805780  0.11974055  0.50460533  1
  V  V17  1  0.88725988  0.87831842  -0.00944172  1
  V  V18  1  0.50227548  -0.00654467  -0.00736645  1
  V  V19  1  0.09444331  0.75647599  0.37122177  1
  V  V20  1  0.47560891  0.12697973  0.63220097  1
  V  V21  1  -0.00839637  0.74055220  0.75134389  1
  V  V22  1  0.87170658  0.61778658  0.74308146  1
  V  V23  1  0.35971906  0.49583651  0.38161525  1
  V  V24  1  0.50240218  0.12873192  0.12818189  1
  V  V25  1  0.00342874  0.51451487  0.49436047  1
  V  V26  1  0.49949814  0.62452029  0.12973340  1
  V  V27  1  0.00116122  0.37282504  0.87641957  1
  V  V28  1  0.36470945  0.36621196  -0.00104883  1
  V  V29  1  0.86903187  0.76450958  0.62448520  1
  V  V30  1  0.50046028  0.36276211  0.87563852  1
  V  V31  1  0.36173618  0.75908165  0.12679783  1
  V  V32  1  0.75313143  0.60809971  0.35166359  1
  V  V33  1  0.74382397  0.48945450  0.74673818  1
  V  V34  1  0.10961841  0.51983159  0.63141238  1
  V  V35  1  0.13850910  0.00635638  0.12440099  1
  V  V36  1  0.63364511  0.48953431  0.13477966  1
  V  V37  1  0.11995283  0.86312355  0.71946554  1
  V  V38  1  0.74056474  0.71803127  0.51127090  1
  V  V39  1  0.62193737  0.62965185  0.00010110  1
  V  V40  1  0.38442306  -0.00763197  0.38011130  1
  V  V41  1  0.37244956  0.50443777  0.87975545  1
  V  V42  1  0.62457842  0.36966446  0.74486727  1
  V  V43  1  0.13093623  0.24919935  0.37059376  1
  V  V44  1  -0.00010952  0.49854902  0.01146305  1
  V  V45  1  0.26855003  0.01925017  0.74755565  1
  V  V46  1  0.62702572  0.12615602  -0.01579447  1
  V  V47  1  0.50528654  0.75711862  0.25821399  1
  V  V48  1  -0.00826596  0.23755043  0.24681731  1
  V  V49  1  0.62324263  0.75031676  0.38112117  1
  V  V50  1  0.23651745  0.10570675  0.37615873  1
  V  V51  1  -0.01121103  0.12151953  0.11999661  1
  V  V52  1  0.50828262  0.37425839  0.35715928  1
  V  V53  1  0.74514645  0.00515972  0.24107095  1
  V  V54  1  0.51600955  0.48900740  0.50205886  1
  V  V55  1  0.91499855  0.25806460  0.63159768  1
  V  V56  1  0.79193424  0.28738943  0.00250370  1
  V  V57  1  0.36239532  0.61786417  0.25540713  1
  V  V58  1  0.90171520  0.12638217  0.75274998  1
  V  V59  1  0.24305761  0.39187014  0.12872132  1
  V  V60  1  0.25421652  0.50657784  0.74403133  1
  V  V61  1  0.00817513  0.00217560  -0.01663392  1
  V  V62  1  0.87174887  0.49689802  0.88591425  1
  V  V63  1  0.24979975  0.63682342  0.88093694  1
  V  V64  1  0.12865753  0.88042113  0.24569744  1
  V  V65  1  0.88037039  0.75357244  0.14096783  1
  V  V66  1  0.74501228  0.63141379  0.87946165  1
  V  V67  1  0.50642327  0.61838441  0.61573037  1
  V  V68  1  0.12396510  0.37477485  0.74783154  1
  V  V69  1  0.36707291  0.74998074  0.63528784  1
  Zn  Zn70  1  0.51679890  -0.00839800  0.50536740  1
  Zn  Zn71  1  0.64842114  0.24401438  0.87517896  1
  Zn  Zn72  1  -0.00549925  0.62828648  0.13771373  1
  Zn  Zn73  1  0.49929397  0.49784150  0.00161007  1
  Zn  Zn74  1  0.30254701  0.28885376  0.54661724  1
  Zn  Zn75  1  0.37960780  0.86920325  0.50072361  1
  Zn  Zn76  1  0.18336276  0.18281529  0.18241462  1
  Zn  Zn77  1  0.20640392  0.17962833  0.69054082  1
  Zn  Zn78  1  0.17857193  0.69524072  0.20464474  1
  Zn  Zn79  1  0.19101429  0.69032456  0.69937942  1
  Zn  Zn80  1  0.69131674  0.19891470  0.16632348  1
  Zn  Zn81  1  0.69297001  0.18801860  0.68950739  1
  Zn  Zn82  1  0.68666523  0.68682173  0.18789956  1
  Zn  Zn83  1  0.68469313  0.67794694  0.69136123  1
  Zn  Zn84  1  0.33658788  0.28643744  0.35781878  1
  Zn  Zn85  1  0.31028557  0.31919644  0.80251888  1
  Zn  Zn86  1  0.31125105  0.81861160  0.30354267  1
  Zn  Zn87  1  0.32562077  0.84736360  0.78866684  1
  Zn  Zn88  1  0.82433056  0.31261457  0.32225640  1
  Zn  Zn89  1  0.82059213  0.30262138  0.81333142  1
  Zn  Zn90  1  0.82040113  0.80481228  0.33677148  1
  Zn  Zn91  1  0.81274276  0.81297076  0.81488206  1
  Zn  Zn92  1  0.17971143  0.43980135  0.44451496  1
  Zn  Zn93  1  0.18618488  0.44134718  0.94050306  1
  Zn  Zn94  1  0.18495180  0.92091220  0.44691753  1
  Zn  Zn95  1  0.18373663  0.94491836  0.92404510  1
  Zn  Zn96  1  0.69571923  0.43427966  0.43645110  1
  Zn  Zn97  1  0.68569945  0.43896905  0.94744105  1
  Zn  Zn98  1  0.70894372  0.93019125  0.43675902  1
  Zn  Zn99  1  0.68685121  0.94034008  0.92816180  1
  Zn  Zn100  1  0.32489771  0.05646319  0.05895491  1
  Zn  Zn101  1  0.30049066  0.05573337  0.56102244  1
  Zn  Zn102  1  0.31287447  0.56564800  0.06414390  1
  Zn  Zn103  1  0.31821493  0.57318009  0.56080205  1
  Zn  Zn104  1  0.81336814  0.06004447  0.05152079  1
  Zn  Zn105  1  0.82156753  0.08559575  0.56571331  1
  Zn  Zn106  1  0.81114163  0.56776019  0.07189040  1
  Zn  Zn107  1  0.80894002  0.54424280  0.56364949  1
  Zn  Zn108  1  0.43619440  0.43886388  0.18842438  1
  Zn  Zn109  1  0.43928543  0.43936727  0.69150097  1
  Zn  Zn110  1  0.46196214  0.93142029  0.17795318  1
  Zn  Zn111  1  0.44001193  0.93912208  0.68147450  1
  Zn  Zn112  1  0.95177935  0.44073218  0.21065760  1
  Zn  Zn113  1  0.93667431  0.43664938  0.68916278  1
  Zn  Zn114  1  0.94819640  0.92806139  0.17850623  1
  Zn  Zn115  1  0.95908448  0.94876479  0.71720124  1
  Zn  Zn116  1  0.04735757  0.03906316  0.30053175  1
  Zn  Zn117  1  0.08808580  0.05385389  0.79964446  1
  Zn  Zn118  1  0.07556403  0.56466689  0.31629514  1
  Zn  Zn119  1  0.06083423  0.56537695  0.82155003  1
  Zn  Zn120  1  0.55636245  0.08394867  0.32234650  1
  Zn  Zn121  1  0.55615969  0.06237599  0.79976330  1
  Zn  Zn122  1  0.56611450  0.56561804  0.31678573  1
  Zn  Zn123  1  0.56044841  0.56098416  0.81417435  1
  Zn  Zn124  1  0.46320407  0.20524086  0.47447824  1
  Zn  Zn125  1  0.43595040  0.18895820  0.94297533  1
  Zn  Zn126  1  0.43442724  0.67936311  0.44097137  1
  Zn  Zn127  1  0.43601773  0.69532022  0.93859810  1
  Zn  Zn128  1  0.97767994  0.21319215  0.46377833  1
  Zn  Zn129  1  0.94524246  0.18944667  0.93664861  1
  Zn  Zn130  1  0.92368782  0.68461032  0.44047322  1
  Zn  Zn131  1  0.93098183  0.68256397  0.94549600  1
  Zn  Zn132  1  0.06162335  0.30626828  0.06125370  1
  Zn  Zn133  1  0.13340563  0.30541737  0.56939199  1
  Zn  Zn134  1  0.06147890  0.81450194  0.06872832  1
  Zn  Zn135  1  0.06641138  0.70355420  0.56121543  1
  Zn  Zn136  1  0.55813668  0.30850993  0.06168432  1
  Zn  Zn137  1  0.56147534  0.31270522  0.56480703  1
  Zn  Zn138  1  0.56079441  0.81452002  0.06704318  1
  Zn  Zn139  1  0.55522517  0.80792841  0.56036231  1
  O  O140  1  0.11753900  0.11199707  0.11897617  1
  O  O141  1  0.13427889  0.12567649  0.61454067  1
  O  O142  1  0.11992708  0.63401097  0.11939093  1
  O  O143  1  0.12074259  0.62478916  0.63211682  1
  O  O144  1  0.60520111  0.13440565  0.11228992  1
  O  O145  1  0.63363111  0.13127527  0.60649430  1
  O  O146  1  0.61592753  0.62117584  0.11935774  1
  O  O147  1  0.60634645  0.61828851  0.63162972  1
  O  O148  1  0.39083037  0.39103294  0.36547721  1
  O  O149  1  0.37912985  0.38333383  0.88020785  1
  O  O150  1  0.37230325  0.89118260  0.36803345  1
  O  O151  1  0.38553578  0.85818493  0.88947533  1
  O  O152  1  0.89137876  0.37209989  0.39228276  1
  O  O153  1  0.89122179  0.38515576  0.86934324  1
  O  O154  1  0.80957829  0.89428166  0.40122373  1
  O  O155  1  0.88359275  0.86094341  0.89125878  1
  O  O156  1  0.25703487  0.00430787  0.37361658  1
  O  O157  1  0.19730317  0.00456237  0.82781075  1
  O  O158  1  0.25990530  0.49125989  0.37958488  1
  O  O159  1  0.25627447  0.50998731  0.87327179  1
  O  O160  1  0.76346408  0.02144168  0.34247150  1
  O  O161  1  0.76237588  -0.03038126  0.84213847  1
  O  O162  1  0.74269173  0.50730432  0.36537309  1
  O  O163  1  0.75682896  0.50855608  0.87742300  1
  O  O164  1  0.25064261  0.49116021  0.12954106  1
  O  O165  1  0.24655361  0.51596691  0.64130208  1
  O  O166  1  0.23736980  1.00534037  0.10605823  1
  O  O167  1  0.24578674  1.00300181  0.64901403  1
  O  O168  1  0.73339500  0.50572860  0.12366129  1
  O  O169  1  0.74882284  0.49250245  0.64744560  1
  O  O170  1  0.73978533  0.99702292  0.13519314  1
  O  O171  1  0.76393488  1.00833677  0.62854907  1
  O  O172  1  0.01540373  0.35121359  0.23543289  1
  O  O173  1  0.01324292  0.39375431  0.76747226  1
  O  O174  1  0.02017343  0.92188438  0.26511396  1
  O  O175  1  -0.00216854  0.84520487  0.75194598  1
  O  O176  1  0.50369684  0.37554364  0.25751227  1
  O  O177  1  0.51359223  0.38518890  0.76626482  1
  O  O178  1  0.48785136  0.85421552  0.26319373  1
  O  O179  1  0.49873182  0.86653214  0.75941344  1
  O  O180  1  0.48944831  0.12221230  0.23366222  1
  O  O181  1  0.49165630  0.13019780  0.73351729  1
  O  O182  1  0.49024561  0.63066823  0.24374655  1
  O  O183  1  0.49973252  0.63395343  0.74745923  1
  O  O184  1  0.99884733  0.12566188  0.23423719  1
  O  O185  1  1.00150267  0.11667931  0.74481521  1
  O  O186  1  0.97863077  0.59564764  0.25240489  1
  O  O187  1  0.98381482  0.62859813  0.75954552  1
  O  O188  1  0.37171036  0.26253188  0.00840072  1
  O  O189  1  0.36471587  0.25218213  0.46317837  1
  O  O190  1  0.37618141  0.75864153  0.01640101  1
  O  O191  1  0.36753396  0.74549481  0.50605339  1
  O  O192  1  0.89253144  0.26756086  0.00372179  1
  O  O193  1  0.88292279  0.26232158  0.51184720  1
  O  O194  1  0.86380140  0.75768251  0.00739429  1
  O  O195  1  0.85242374  0.74680314  0.51465292  1
  O  O196  1  0.11157700  0.23025665  0.47460492  1
  O  O197  1  0.12531796  0.25259583  0.98331474  1
  O  O198  1  0.13205631  0.74827647  0.47546387  1
  O  O199  1  0.11250051  0.73679726  0.99438994  1
  O  O200  1  0.64300101  0.25858137  0.49822539  1
  O  O201  1  0.61335901  0.23183176  0.99229161  1
  O  O202  1  0.63387453  0.74159174  0.49776097  1
  O  O203  1  0.63633559  0.74561032  1.01039094  1
  O  O204  1  0.47974296  0.23747269  0.11538867  1
  O  O205  1  0.49588732  0.22690639  0.59634984  1
  O  O206  1  0.49575924  0.74165200  0.14024249  1
  O  O207  1  0.49820854  0.73776206  0.63381501  1
  O  O208  1  1.00792584  0.23129279  0.13144563  1
  O  O209  1  1.01311366  0.26212937  0.61817427  1
  O  O210  1  0.98700196  0.74952770  0.13069538  1
  O  O211  1  0.97428855  0.73752626  0.63113105  1
  O  O212  1  0.01563955  0.23273131  0.35520761  1
  O  O213  1  0.01082611  0.27148347  0.87677974  1
  O  O214  1  -0.00514735  0.75656959  0.38585395  1
  O  O215  1  0.00560476  0.73680136  0.87172536  1
  O  O216  1  0.51424952  0.26975343  0.37933983  1
  O  O217  1  0.48633275  0.26330567  0.86990761  1
  O  O218  1  0.51201385  0.73500772  0.37004924  1
  O  O219  1  0.49846866  0.75530758  0.86221917  1
  O  O220  1  0.23558736  0.12047840  0.48157664  1
  O  O221  1  0.28642533  0.11362419  0.95764529  1
  O  O222  1  0.24758244  0.64251499  0.50435693  1
  O  O223  1  0.23353099  0.62045955  0.99695605  1
  O  O224  1  0.74965556  0.15127007  0.49671070  1
  O  O225  1  0.72583576  0.10612606  0.99778040  1
  O  O226  1  0.74023787  0.61820594  0.50819449  1
  O  O227  1  0.74169768  0.63623581  0.99681772  1
  O  O228  1  0.25375425  0.38198133  0.01455896  1
  O  O229  1  0.21826805  0.35690929  0.50459652  1
  O  O230  1  0.26209308  0.88346464  -0.01444135  1
  O  O231  1  0.25775051  0.85000779  0.49792752  1
  O  O232  1  0.77115998  0.38778140  0.00310143  1
  O  O233  1  0.77094460  0.36978623  0.49838978  1
  O  O234  1  0.75451344  0.86558076  -0.00676819  1
  O  O235  1  0.71408525  0.87342107  0.54958508  1
  O  O236  1  0.11210265  0.47536944  0.25470531  1
  O  O237  1  0.13143451  0.50759485  0.74520183  1
  O  O238  1  0.13844566  1.00202313  0.23111847  1
  O  O239  1  0.07873535  0.96286677  0.71926335  1
  O  O240  1  0.61513726  0.50304706  0.23341987  1
  O  O241  1  0.63658461  0.48778255  0.76398312  1
  O  O242  1  0.64225412  1.02196200  0.25436271  1
  O  O243  1  0.64520081  1.01991139  0.73997788  1
  O  O244  1  0.38315076  0.00447149  0.24696963  1
  O  O245  1  0.35793159  -0.03434527  0.76339689  1
  O  O246  1  0.37568967  0.51152504  0.25686928  1
  O  O247  1  0.36124053  0.49619334  0.76081992  1
  O  O248  1  0.84838680  -0.01169415  0.23150367  1
  O  O249  1  0.87685869  0.02073420  0.73815957  1
  O  O250  1  0.92018947  0.53927435  0.26190242  1
  O  O251  1  0.86245061  0.50021500  0.76271215  1
  O  O252  1  0.13282740  0.35603212  0.36047756  1
  O  O253  1  0.11750197  0.38033358  0.86936928  1
  O  O254  1  0.12497290  0.86321873  0.36494710  1
  O  O255  1  0.11957996  0.85348619  0.88292016  1
  O  O256  1  0.61871610  0.37109726  0.37230392  1
  O  O257  1  0.60834047  0.37087413  0.88340915  1
  O  O258  1  0.63442695  0.85043487  0.38549148  1
  O  O259  1  0.61115622  0.86971900  0.87539811  1
  O  O260  1  0.37366959  0.13394509  0.13162412  1
  O  O261  1  0.37563077  0.12759489  0.61281235  1
  O  O262  1  0.38004929  0.63404135  0.13213586  1
  O  O263  1  0.39149014  0.63809817  0.62481699  1
  O  O264  1  0.88800535  0.12096241  0.11401345  1
  O  O265  1  0.88907759  0.15184345  0.62929102  1
  O  O266  1  0.87490486  0.64664945  0.12312978  1
  O  O267  1  0.86499039  0.61352003  0.64219414  1
  O  O268  1  0.26236535  0.25127982  0.12580703  1
  O  O269  1  0.22864827  0.26752064  0.62833207  1
  O  O270  1  0.26304405  0.75062156  0.13561957  1
  O  O271  1  0.26558638  0.74144295  0.63130353  1
  O  O272  1  0.75154247  0.24732149  0.08768896  1
  O  O273  1  0.75369816  0.26017588  0.61565548  1
  O  O274  1  0.75514916  0.75320551  0.11458911  1
  O  O275  1  0.75438176  0.73653470  0.62022624  1
  O  O276  1  0.23487111  0.22653499  0.36038541  1
  O  O277  1  0.24197503  0.26153190  0.87005981  1
  O  O278  1  0.26226362  0.74173246  0.37564405  1
  O  O279  1  0.23447096  0.73723969  0.87556682  1
  O  O280  1  0.74109762  0.26433747  0.38127841  1
  O  O281  1  0.76078804  0.25841309  0.90223854  1
  O  O282  1  0.74202755  0.73444046  0.39440929  1
  O  O283  1  0.75404960  0.73787336  0.88538964  1
  O  O284  1  -0.00157802  0.11046771  0.00405972  1
  O  O285  1  0.01533330  0.11525483  0.50518180  1
  O  O286  1  0.00822560  0.61548380  0.00590412  1
  O  O287  1  -0.00334567  0.61925098  0.50473455  1
  O  O288  1  0.50131461  0.11169192  -0.00338426  1
  O  O289  1  0.52438572  0.11203176  0.50051173  1
  O  O290  1  0.50700960  0.63356352  0.00995739  1
  O  O291  1  0.50348287  0.61223183  0.50897553  1
  O  O292  1  0.49677132  0.38699180  0.50100021  1
  O  O293  1  0.48651112  0.37587904  0.98819746  1
  O  O294  1  0.49776522  0.88086274  0.49984625  1
  O  O295  1  0.49816403  0.88040086  0.98732097  1
  O  O296  1  0.99903284  0.39040672  0.50610157  1
  O  O297  1  1.01043211  0.39133646  0.99054272  1
  O  O298  1  0.98991973  0.90766250  0.51931140  1
  O  O299  1  0.99397244  0.88513152  1.00087283  1
  O  O300  1  0.50452249  0.49038761  0.38661840  1
  O  O301  1  0.48462169  0.49817106  0.87795418  1
  O  O302  1  0.48715359  1.00870806  0.37428525  1
  O  O303  1  0.49893005  0.98621729  0.87912624  1
  O  O304  1  1.01975168  0.50364385  0.39680596  1
  O  O305  1  0.99083261  0.49826203  0.88755938  1
  O  O306  1  0.96295260  1.00377162  0.38405787  1
  O  O307  1  1.01331149  1.00317593  0.88457203  1
  O  O308  1  0.00686995  0.01055962  0.11515296  1
  O  O309  1  -0.01707961  -0.04035409  0.56990197  1
  O  O310  1  -0.00994012  0.49690807  0.11331169  1
  O  O311  1  0.00735096  0.51147898  0.62985275  1
  O  O312  1  0.48580827  0.02152937  0.10581381  1
  O  O313  1  0.49504019  0.01763812  0.62074120  1
  O  O314  1  0.49881335  0.51270204  0.12142923  1
  O  O315  1  0.48785269  0.50752284  0.61430351  1
  O  O316  1  0.23692263  0.37085560  0.23546278  1
  O  O317  1  0.23408780  0.39988545  0.75920200  1
  O  O318  1  0.23081496  0.87721671  0.24906934  1
  O  O319  1  0.21875016  0.86375275  0.74788358  1
  O  O320  1  0.78697733  0.38458888  0.23020384  1
  O  O321  1  0.74089539  0.38314041  0.76646934  1
  O  O322  1  0.72687213  0.90395013  0.25134015  1
  O  O323  1  0.75551243  0.90939921  0.77929908  1
  O  O324  1  0.25996677  0.11704674  0.24802874  1
  O  O325  1  0.27995412  0.12089417  0.75257894  1
  O  O326  1  0.26368516  0.62748623  0.24555201  1
  O  O327  1  0.24628151  0.61622503  0.77148421  1
  O  O328  1  0.75438206  0.10949709  0.22380332  1
  O  O329  1  0.76794645  0.12278973  0.74629584  1
  O  O330  1  0.75632546  0.62634214  0.25198730  1
  O  O331  1  0.75012823  0.61057660  0.76169600  1
  O  O332  1  0.36228914  0.11134890  0.35680189  1
  O  O333  1  0.34212640  0.12094438  0.90462695  1
  O  O334  1  0.37885013  0.61090520  0.36318175  1
  O  O335  1  0.35828657  0.62081991  0.89325085  1
  O  O336  1  0.90972969  0.05129725  0.41709680  1
  O  O337  1  0.88762312  0.13965676  0.85320116  1
  O  O338  1  0.84994780  0.62531036  0.38315718  1
  O  O339  1  0.86411647  0.61591353  0.86991071  1
  O  O340  1  0.13592871  0.36914137  0.12941744  1
  O  O341  1  0.11733428  0.39899066  0.64539548  1
  O  O342  1  0.11698666  0.88894425  0.13487473  1
  O  O343  1  0.11544866  0.82878000  0.62739919  1
  O  O344  1  0.61507436  0.39037780  0.11436581  1
  O  O345  1  0.61706530  0.37294198  0.64642046  1
  O  O346  1  0.56918006  0.90030743  0.13710339  1
  O  O347  1  0.65516948  0.87849823  0.59806429  1
  O  O348  1  0.11968454  0.24979648  0.25360635  1
  O  O349  1  0.12811865  0.27428762  0.75656497  1
  O  O350  1  0.10524671  0.77401025  0.24906644  1
  O  O351  1  0.11108869  0.74650580  0.76493303  1
  O  O352  1  0.64154039  0.24712706  0.25790566  1
  O  O353  1  0.63772080  0.26488850  0.76041989  1
  O  O354  1  0.61352986  0.74864142  0.25982938  1
  O  O355  1  0.61187165  0.75025915  0.74611288  1
  O  O356  1  0.37169912  0.24062034  0.24451826  1
  O  O357  1  0.37925329  0.29032830  0.71218888  1
  O  O358  1  0.38250884  0.73969133  0.24411339  1
  O  O359  1  0.38486320  0.75538354  0.74103821  1
  O  O360  1  0.89248346  0.24871991  0.25519143  1
  O  O361  1  0.89068660  0.25089642  0.73810210  1
  O  O362  1  0.86283035  0.76922772  0.24015544  1
  O  O363  1  0.86894812  0.73848411  0.74241915  1
  O  O364  1  0.37998397  0.50630253  0.48443478  1
  O  O365  1  0.37359398  0.49036609  0.99462957  1
  O  O366  1  0.37115158  0.99796144  0.48494998  1
  O  O367  1  0.38732992  0.97933286  0.99988145  1
  O  O368  1  0.89221658  0.49158736  0.50835818  1
  O  O369  1  0.88657739  0.51225880  0.99473599  1
  O  O370  1  0.86938151  1.01804516  0.47600247  1
  O  O371  1  0.88423975  0.98615233  0.99787821  1
  O  O372  1  0.11279112  -0.01066986  0.00637934  1
  O  O373  1  0.13093658  0.00449166  0.50208973  1
  O  O374  1  0.11263030  0.51379965  0.00085173  1
  O  O375  1  0.11497388  0.50330081  0.52223658  1
  O  O376  1  0.60951748  0.00527334  -0.00820720  1
  O  O377  1  0.65041613  0.01878930  0.48085327  1
  O  O378  1  0.61917785  0.51501240  0.00971637  1
  O  O379  1  0.61559023  0.48972414  0.50534124  1
  O  O380  1  0.36443398  0.36702123  0.12467523  1
  O  O381  1  0.37823804  0.34421028  0.65254727  1
  O  O382  1  0.37965295  0.86348091  0.11855166  1
  O  O383  1  0.38375406  0.85474569  0.62159327  1
  O  O384  1  0.84108757  0.39467972  0.17683845  1
  O  O385  1  0.88489591  0.36385104  0.61928788  1
  O  O386  1  0.88078117  0.86295982  0.10965513  1
  O  O387  1  0.86857116  0.86079876  0.63644295  1
  O  O388  1  0.13206510  0.11369569  0.36336326  1
  O  O389  1  0.12275102  0.14986903  0.85729239  1
  O  O390  1  0.12390933  0.65994243  0.34073193  1
  O  O391  1  0.13203955  0.63011940  0.88914108  1
  O  O392  1  0.62193021  0.15309462  0.38723446  1
  O  O393  1  0.61581472  0.12577798  0.87990205  1
  O  O394  1  0.64114795  0.63473898  0.36986555  1
  O  O395  1  0.63189566  0.61943041  0.88815793  1
