# generated using pymatgen
data_V35Zn35O128
_symmetry_space_group_name_H-M   'P 1'
_cell_length_a   16.90972520
_cell_length_b   17.07097629
_cell_length_c   16.95202540
_cell_angle_alpha   89.99276142
_cell_angle_beta   89.99680591
_cell_angle_gamma   89.96257390
_symmetry_Int_Tables_number   1
_chemical_formula_structural   V35Zn35O128
_chemical_formula_sum   'V70 Zn70 O256'
_cell_volume   4893.46410404
_cell_formula_units_Z   2
loop_
 _symmetry_equiv_pos_site_id
 _symmetry_equiv_pos_as_xyz
  1  'x, y, z'
loop_
 _atom_site_type_symbol
 _atom_site_label
 _atom_site_symmetry_multiplicity
 _atom_site_fract_x
 _atom_site_fract_y
 _atom_site_fract_z
 _atom_site_occupancy
  V  V0  1  -0.01494855  0.36744823  0.87187951  1
  V  V1  1  0.39547291  0.24967458  0.11805009  1
  V  V2  1  0.49599124  0.62504920  0.59725554  1
  V  V3  1  0.00418484  0.74281561  0.25187491  1
  V  V4  1  -0.01550182  -0.00296754  0.50652950  1
  V  V5  1  0.75640734  0.87090519  0.61209148  1
  V  V6  1  0.52839087  0.88250295  0.89027934  1
  V  V7  1  0.12716565  0.49119927  0.62651438  1
  V  V8  1  0.12626947  0.88714595  0.24102098  1
  V  V9  1  0.62512960  0.72470584  0.37409024  1
  V  V10  1  -0.01807836  0.24251711  0.23953052  1
  V  V11  1  0.86372683  0.73089862  0.13933188  1
  V  V12  1  0.87286267  0.00638202  0.35990460  1
  V  V13  1  0.12384840  0.36632425  0.75878213  1
  V  V14  1  0.88073177  0.40599130  0.50414353  1
  V  V15  1  0.24916903  0.12361917  0.37893509  1
  V  V16  1  0.87283453  0.00421358  0.85691466  1
  V  V17  1  0.12616598  0.65602770  0.52520550  1
  V  V18  1  0.62361581  0.25610754  0.37302916  1
  V  V19  1  0.49592638  0.72931897  0.25251852  1
  V  V20  1  0.62014245  0.35757903  0.74630985  1
  V  V21  1  0.50516898  0.73303739  0.79118350  1
  V  V22  1  0.74257875  0.73843494  0.00067185  1
  V  V23  1  0.76803083  0.21558957  0.52218025  1
  V  V24  1  0.11994716  0.85235754  0.74187100  1
  V  V25  1  0.35076808  0.49894457  0.36843538  1
  V  V26  1  0.60096205  0.37741116  0.26021761  1
  V  V27  1  0.75786156  0.38649746  0.61910508  1
  V  V28  1  0.23900974  0.35837619  0.12783009  1
  V  V29  1  0.13879789  0.50551055  0.10224429  1
  V  V30  1  0.23906514  -0.00948551  0.77341945  1
  V  V31  1  0.86815670  0.50333372  0.90499002  1
  V  V32  1  0.62031831  0.03888254  0.11824943  1
  V  V33  1  0.38414540  0.13842451  0.24591956  1
  V  V34  1  0.36968630  0.37048952  0.50947416  1
  V  V35  1  0.51712456  0.91332572  0.37481759  1
  V  V36  1  0.26264310  0.86437934  0.12759734  1
  V  V37  1  0.75524248  0.14462472  0.35152009  1
  V  V38  1  0.61692369  0.87634887  0.72940106  1
  V  V39  1  0.75587305  0.37260055  0.14435013  1
  V  V40  1  0.88010323  0.86474931  0.00383772  1
  V  V41  1  0.74259839  0.62213857  0.87585688  1
  V  V42  1  0.06788719  0.17100228  0.55632302  1
  V  V43  1  0.75453002  0.50755503  0.74717185  1
  V  V44  1  0.36206266  0.38923398  -0.00786184  1
  V  V45  1  0.25160034  0.50411446  0.76270880  1
  V  V46  1  0.60799299  0.61747709  0.00997549  1
  V  V47  1  0.01120749  0.61877921  0.09637578  1
  V  V48  1  0.15252799  0.75479413  0.36909432  1
  V  V49  1  0.75243062  0.74318842  0.49440053  1
  V  V50  1  0.25474448  0.24800404  0.50827720  1
  V  V51  1  0.12448426  0.39108603  0.25079615  1
  V  V52  1  -0.00493723  0.88172167  0.36746423  1
  V  V53  1  0.74886442  0.00278184  0.23836927  1
  V  V54  1  0.13112112  -0.00649962  0.61767870  1
  V  V55  1  0.50203629  0.48277498  0.48939675  1
  V  V56  1  0.61246877  0.49868392  0.13275702  1
  V  V57  1  0.72623883  0.87358423  0.11966277  1
  V  V58  1  0.86733071  0.35800832  0.00932658  1
  V  V59  1  0.61915170  0.50219333  0.62892963  1
  V  V60  1  0.61627084  0.00958361  0.60949094  1
  V  V61  1  0.53348395  0.35469327  0.94005466  1
  V  V62  1  0.37881181  0.86358028  0.00221201  1
  V  V63  1  0.25064802  0.01584359  0.23382811  1
  V  V64  1  0.12245246  0.24951409  0.36835000  1
  V  V65  1  0.40018477  0.14842986  0.75721533  1
  V  V66  1  -0.00917851  0.38437660  0.37449870  1
  V  V67  1  -0.00951237  0.84920875  0.86477287  1
  V  V68  1  0.38060403  0.77480835  0.59671496  1
  V  V69  1  0.49537036  0.02196636  0.00564701  1
  Zn  Zn70  1  0.38250051  0.60712371  0.74843042  1
  Zn  Zn71  1  0.10412969  0.51416485  -0.12539040  1
  Zn  Zn72  1  0.13655059  0.14163783  0.01305882  1
  Zn  Zn73  1  0.31371737  0.18607633  -0.06343426  1
  Zn  Zn74  1  0.37362824  0.00193954  0.87873581  1
  Zn  Zn75  1  0.86986574  0.61795304  0.28822192  1
  Zn  Zn76  1  0.16470517  0.18703704  0.18691524  1
  Zn  Zn77  1  0.17679852  0.17772382  0.81397804  1
  Zn  Zn78  1  0.20493924  0.68997806  0.06179493  1
  Zn  Zn79  1  0.21123289  0.68442233  0.68320731  1
  Zn  Zn80  1  0.80564049  0.19216937  0.16463317  1
  Zn  Zn81  1  0.71832418  0.18875237  0.68481613  1
  Zn  Zn82  1  0.68270811  0.68605830  0.19493696  1
  Zn  Zn83  1  0.67947596  0.69031592  0.68266593  1
  Zn  Zn84  1  0.31290692  0.31825833  0.31341721  1
  Zn  Zn85  1  0.31351863  0.31641415  0.80538233  1
  Zn  Zn86  1  0.33597074  0.83789931  0.30693282  1
  Zn  Zn87  1  0.33937071  0.84208352  0.78374753  1
  Zn  Zn88  1  0.81566126  0.44769536  0.30986000  1
  Zn  Zn89  1  0.77522129  0.32882199  0.83387572  1
  Zn  Zn90  1  0.80579100  0.81862124  0.31211734  1
  Zn  Zn91  1  0.79315590  0.81527054  0.81895105  1
  Zn  Zn92  1  0.18608657  0.43205942  0.43859219  1
  Zn  Zn93  1  0.17930689  0.32402563  0.93759799  1
  Zn  Zn94  1  0.17683909  0.94884332  0.42857696  1
  Zn  Zn95  1  0.17875994  0.84887616  0.94481841  1
  Zn  Zn96  1  0.68910998  0.44860205  0.43386816  1
  Zn  Zn97  1  0.67999984  0.43221537  0.94572627  1
  Zn  Zn98  1  0.68589684  0.94212983  0.43212040  1
  Zn  Zn99  1  0.66641071  1.01118072  0.90792341  1
  Zn  Zn100  1  0.31031686  0.06710438  0.06246241  1
  Zn  Zn101  1  0.26720347  0.11742389  0.64068855  1
  Zn  Zn102  1  0.25927609  0.53310657  -0.02588342  1
  Zn  Zn103  1  0.30721078  0.56052296  0.56136168  1
  Zn  Zn104  1  0.80280879  0.04555492  0.02407696  1
  Zn  Zn105  1  0.78993509  0.04551370  0.55043865  1
  Zn  Zn106  1  0.81424036  0.55259398  0.14355650  1
  Zn  Zn107  1  0.82305798  0.57608737  0.44711303  1
  Zn  Zn108  1  0.42562369  0.43638767  0.18583105  1
  Zn  Zn109  1  0.43586888  0.43008725  0.68909082  1
  Zn  Zn110  1  0.44208146  0.94837282  0.19244166  1
  Zn  Zn111  1  0.41011080  0.97835017  0.65759370  1
  Zn  Zn112  1  0.95091927  0.44135500  0.18234383  1
  Zn  Zn113  1  0.94209025  0.44864590  0.68882268  1
  Zn  Zn114  1  0.92332399  0.92593852  0.18601629  1
  Zn  Zn115  1  0.92962488  0.92745207  0.68994679  1
  Zn  Zn116  1  0.06345633  0.06661785  0.30921480  1
  Zn  Zn117  1  0.06945632  0.01459831  0.83432987  1
  Zn  Zn118  1  0.03160576  0.59145405  0.36847249  1
  Zn  Zn119  1  0.04084677  0.61204895  0.71596545  1
  Zn  Zn120  1  0.57082373  0.07570360  0.30527559  1
  Zn  Zn121  1  0.59988178  0.08995862  0.75748198  1
  Zn  Zn122  1  0.55827602  0.55952161  0.31241103  1
  Zn  Zn123  1  0.56281821  0.53886576  0.83059870  1
  Zn  Zn124  1  0.43316463  0.19167256  0.42977204  1
  Zn  Zn125  1  0.54377889  0.17305811  0.89065157  1
  Zn  Zn126  1  0.40507474  0.70214735  0.40318709  1
  Zn  Zn127  1  0.39738763  0.64827182  1.01968328  1
  Zn  Zn128  1  0.93238925  0.19046754  0.42448453  1
  Zn  Zn129  1  0.99043329  0.16027220  0.89101968  1
  Zn  Zn130  1  0.94828697  0.71009590  0.46612016  1
  Zn  Zn131  1  0.97524716  0.64242322  0.88866556  1
  Zn  Zn132  1  0.01083783  0.26502198  0.03278654  1
  Zn  Zn133  1  0.06912565  0.33672186  0.55672835  1
  Zn  Zn134  1  0.06241046  0.80384866  0.06602249  1
  Zn  Zn135  1  0.06516248  0.82062143  0.54864184  1
  Zn  Zn136  1  0.61277166  0.26212080  0.09985217  1
  Zn  Zn137  1  0.58429985  0.31425810  0.54598173  1
  Zn  Zn138  1  0.54961334  0.79905956  0.06754930  1
  Zn  Zn139  1  0.55638639  0.81258049  0.53940556  1
  O  O140  1  0.13462945  0.10641010  0.12154424  1
  O  O141  1  0.11099390  0.10412883  0.62355174  1
  O  O142  1  0.12173091  0.61663164  0.11601925  1
  O  O143  1  0.12632353  0.62164798  0.63145298  1
  O  O144  1  0.62617944  0.13571070  0.11188384  1
  O  O145  1  0.64124783  0.10440236  0.65091809  1
  O  O146  1  0.62873421  0.60686849  0.12542829  1
  O  O147  1  0.60023780  0.61528668  0.63374532  1
  O  O148  1  0.36374390  0.38444129  0.39326937  1
  O  O149  1  0.36227383  0.37233630  0.89392516  1
  O  O150  1  0.36638046  0.91996343  0.39024690  1
  O  O151  1  0.37716239  0.87952933  0.89637807  1
  O  O152  1  0.88460368  0.38622344  0.38585103  1
  O  O153  1  0.86638082  0.38472444  0.88461945  1
  O  O154  1  0.88314880  0.89406766  0.35971975  1
  O  O155  1  0.86956779  0.86670462  0.88843474  1
  O  O156  1  0.24301384  0.02176800  0.36627339  1
  O  O157  1  0.23439829  -0.01413186  0.87104728  1
  O  O158  1  0.24952252  0.49974916  0.37931618  1
  O  O159  1  0.23089629  0.50986859  0.86506777  1
  O  O160  1  0.75553771  0.00236981  0.35484213  1
  O  O161  1  0.78067380  0.01192240  0.91583159  1
  O  O162  1  0.75816957  0.51560059  0.37729498  1
  O  O163  1  0.75365120  0.50424566  0.87014640  1
  O  O164  1  0.23499642  0.49706121  0.12543241  1
  O  O165  1  0.23573694  0.50243904  0.63723518  1
  O  O166  1  0.24752589  0.99957790  0.13375815  1
  O  O167  1  0.23099046  1.00132941  0.61948324  1
  O  O168  1  0.73268579  0.47737745  0.12489360  1
  O  O169  1  0.73262538  0.50161304  0.63122479  1
  O  O170  1  0.72983124  0.99214073  0.11648678  1
  O  O171  1  0.73402082  0.97506484  0.62344627  1
  O  O172  1  0.00151337  0.36708552  0.26116011  1
  O  O173  1  0.00259414  0.38835789  0.76620822  1
  O  O174  1  0.00920815  0.88263694  0.25010291  1
  O  O175  1  0.00340677  0.86616140  0.75359265  1
  O  O176  1  0.50281701  0.37751479  0.25726018  1
  O  O177  1  0.52041728  0.37381563  0.74242273  1
  O  O178  1  0.46588501  0.88429987  0.28294143  1
  O  O179  1  0.51778309  0.87375774  0.78230558  1
  O  O180  1  0.48243356  0.13058885  0.25384665  1
  O  O181  1  0.50093176  0.14775119  0.76770003  1
  O  O182  1  0.49722915  0.62985515  0.24671926  1
  O  O183  1  0.49152452  0.62636564  0.79119278  1
  O  O184  1  1.00643674  0.14467703  0.25393452  1
  O  O185  1  1.08883386  0.12081779  0.85053439  1
  O  O186  1  1.00366533  0.64360287  0.26108355  1
  O  O187  1  0.94047604  0.67206544  0.68382491  1
  O  O188  1  0.36678656  0.25120447  0.01894177  1
  O  O189  1  0.36351976  0.25790962  0.49480549  1
  O  O190  1  0.38774662  0.76680240  0.01048619  1
  O  O191  1  0.37056266  0.75566106  0.49838924  1
  O  O192  1  0.87850600  0.26157438  0.01255411  1
  O  O193  1  0.85575259  0.25180099  0.48826858  1
  O  O194  1  0.84936967  0.74505717  0.01875340  1
  O  O195  1  0.85070991  0.76488447  0.48598468  1
  O  O196  1  0.12817788  0.24331012  0.49640165  1
  O  O197  1  0.11929441  0.25417054  0.99886054  1
  O  O198  1  0.14668925  0.76171823  0.47680738  1
  O  O199  1  0.14127397  0.75854188  1.00059306  1
  O  O200  1  0.66621461  0.25994560  0.48075202  1
  O  O201  1  0.61209770  0.32302572  0.99725187  1
  O  O202  1  0.63240663  0.75157168  0.47920686  1
  O  O203  1  0.63022981  0.72917558  1.02077734  1
  O  O204  1  0.49437070  0.25197616  0.12204354  1
  O  O205  1  0.51474234  0.21532588  0.58211588  1
  O  O206  1  0.49206129  0.76144924  0.15614514  1
  O  O207  1  0.49014649  0.73230745  0.60054283  1
  O  O208  1  1.00911736  0.26251386  0.14564497  1
  O  O209  1  1.01405394  0.23517168  0.60598536  1
  O  O210  1  0.99937380  0.73519520  0.13758012  1
  O  O211  1  1.02571748  0.71636782  0.54859602  1
  O  O212  1  0.00419541  0.25907336  0.36620161  1
  O  O213  1  -0.02443361  0.27015816  0.86197389  1
  O  O214  1  -0.00191163  0.77138315  0.36391771  1
  O  O215  1  -0.02533414  0.75282657  0.85890326  1
  O  O216  1  0.52709769  0.24610806  0.39684640  1
  O  O217  1  0.50158426  0.27458396  0.88677760  1
  O  O218  1  0.51894917  0.74264405  0.37122155  1
  O  O219  1  0.51282689  0.76781318  0.88739340  1
  O  O220  1  0.25875686  0.13492243  0.48138660  1
  O  O221  1  0.24361793  0.11276357  0.98635729  1
  O  O222  1  0.22585611  0.62861778  0.51658499  1
  O  O223  1  0.28988392  0.62895953  1.02330408  1
  O  O224  1  0.75224004  0.12673803  0.46323959  1
  O  O225  1  0.83967462  0.12530593  1.08477284  1
  O  O226  1  0.75249425  0.64415499  0.50468794  1
  O  O227  1  0.73866248  0.63399662  0.99994958  1
  O  O228  1  0.25202309  0.37499423  0.01628358  1
  O  O229  1  0.25400266  0.35511894  0.50561707  1
  O  O230  1  0.26630238  0.87714604  0.01576422  1
  O  O231  1  0.26789667  0.89110834  0.47689053  1
  O  O232  1  0.76469640  0.37452863  0.00147425  1
  O  O233  1  0.77095219  0.39854710  0.50563324  1
  O  O234  1  0.75634114  0.86158624  0.01526286  1
  O  O235  1  0.74001539  0.87225775  0.50800664  1
  O  O236  1  0.11560069  0.48785927  0.24386477  1
  O  O237  1  0.13934912  0.49186927  0.74438785  1
  O  O238  1  0.13842088  0.99619243  0.25504386  1
  O  O239  1  0.12747522  0.98107393  0.73769265  1
  O  O240  1  0.62259014  0.48917384  0.24686442  1
  O  O241  1  0.62958773  0.49085791  0.74272947  1
  O  O242  1  0.63392855  1.01738509  0.22602437  1
  O  O243  1  0.62377323  0.97602302  0.74070637  1
  O  O244  1  0.36000164  0.02485467  0.24100304  1
  O  O245  1  0.34574344  -0.03796968  0.75879635  1
  O  O246  1  0.37017888  0.48679225  0.26973157  1
  O  O247  1  0.35785945  0.48656047  0.75220587  1
  O  O248  1  0.86323096  0.00173851  0.24555050  1
  O  O249  1  0.85443145  -0.01999077  0.76134297  1
  O  O250  1  0.87770693  0.51167841  0.23705059  1
  O  O251  1  0.85565127  0.50775542  0.74341290  1
  O  O252  1  0.11581112  0.36555720  0.37140352  1
  O  O253  1  0.10130767  0.38870873  0.87282077  1
  O  O254  1  0.11628669  0.87562616  0.36259051  1
  O  O255  1  0.10172904  0.86359774  0.85979796  1
  O  O256  1  0.63362502  0.37029818  0.36737341  1
  O  O257  1  0.65986907  0.35935840  0.84665699  1
  O  O258  1  0.61648209  0.89015048  0.35912778  1
  O  O259  1  0.62758063  0.89495943  0.89125060  1
  O  O260  1  0.37107972  0.14240852  0.13372870  1
  O  O261  1  0.37832092  0.09280642  0.66935092  1
  O  O262  1  0.31914318  0.62973767  0.21121513  1
  O  O263  1  0.39474803  0.61494339  0.62914817  1
  O  O264  1  0.96977442  0.08070662  0.10578498  1
  O  O265  1  0.79396743  0.14889381  0.60110153  1
  O  O266  1  0.90168548  0.62927857  0.11499922  1
  O  O267  1  0.89611036  0.69091116  0.74608778  1
  O  O268  1  0.23517750  0.26047361  0.12658864  1
  O  O269  1  0.24442434  0.22277300  0.60475917  1
  O  O270  1  0.26175504  0.76772502  0.13829905  1
  O  O271  1  0.29371698  0.75046118  0.64306065  1
  O  O272  1  0.73084851  0.27208772  0.12416538  1
  O  O273  1  0.74633871  0.28167128  0.61027516  1
  O  O274  1  0.74618798  0.76300526  0.12434496  1
  O  O275  1  0.72974903  0.76120864  0.60619856  1
  O  O276  1  0.23817358  0.24748999  0.38311423  1
  O  O277  1  0.24378438  0.25054907  0.87213362  1
  O  O278  1  0.24858726  0.76731196  0.34974359  1
  O  O279  1  0.28555248  0.73825468  0.85611964  1
  O  O280  1  0.75873227  0.24129102  0.35302221  1
  O  O281  1  0.76278971  0.22143296  0.90714056  1
  O  O282  1  0.73610116  0.75617389  0.37663525  1
  O  O283  1  0.74266541  0.74025313  0.89372574  1
  O  O284  1  0.01862640  0.15254679  0.00125910  1
  O  O285  1  0.00141739  0.11603238  0.49472054  1
  O  O286  1  0.00929424  0.63131592  -0.00035468  1
  O  O287  1  0.07292488  0.58736161  0.47906506  1
  O  O288  1  0.49218786  0.11769769  -0.01227877  1
  O  O289  1  0.49636805  0.15937503  0.53475448  1
  O  O290  1  0.50761517  0.62624514  0.00950937  1
  O  O291  1  0.49479211  0.60240593  0.50062826  1
  O  O292  1  0.48958377  0.37696021  0.50513911  1
  O  O293  1  0.46566109  0.37283078  1.01753408  1
  O  O294  1  0.49875426  0.87854061  0.46933517  1
  O  O295  1  0.49565525  0.87904747  1.00143621  1
  O  O296  1  0.98417456  0.36514099  0.48670493  1
  O  O297  1  0.97932806  0.37253614  0.98387385  1
  O  O298  1  0.99751429  0.89226543  0.48256148  1
  O  O299  1  0.98454239  0.84495744  0.98539949  1
  O  O300  1  0.50310388  0.49161635  0.39000468  1
  O  O301  1  0.54251982  0.44800814  0.89556275  1
  O  O302  1  0.51449083  1.01423376  0.38005298  1
  O  O303  1  0.49873445  0.98702168  0.89716969  1
  O  O304  1  1.01168179  0.47923388  0.37011581  1
  O  O305  1  0.96805639  0.49268136  0.88123802  1
  O  O306  1  0.99308288  0.99973461  0.37588844  1
  O  O307  1  0.97466633  0.96513339  0.87306064  1
  O  O308  1  -0.00373113  0.01611621  0.12684960  1
  O  O309  1  -0.01214900  -0.00703937  0.60865123  1
  O  O310  1  0.01573800  0.51484830  0.11707098  1
  O  O311  1  0.02297731  0.51674687  0.64612318  1
  O  O312  1  0.51100368  0.01140127  0.11892528  1
  O  O313  1  0.51606478  0.00629576  0.62151225  1
  O  O314  1  0.51250263  0.49067753  0.13134961  1
  O  O315  1  0.50359134  0.50377996  0.61870833  1
  O  O316  1  0.23786238  0.37220802  0.23786074  1
  O  O317  1  0.23144993  0.38478826  0.76280474  1
  O  O318  1  0.25376756  0.89603403  0.24092598  1
  O  O319  1  0.22454112  0.87229572  0.75937351  1
  O  O320  1  0.76213078  0.37143392  0.24390980  1
  O  O321  1  0.74934966  0.39013605  0.73205709  1
  O  O322  1  0.75491294  0.88860661  0.22604760  1
  O  O323  1  0.72115798  0.85230448  0.73539678  1
  O  O324  1  0.24908389  0.12284325  0.25372539  1
  O  O325  1  0.23702698  0.09474760  0.75352413  1
  O  O326  1  0.25655607  0.62005399  0.24491110  1
  O  O327  1  0.26478032  0.60944521  0.74991208  1
  O  O328  1  0.75681736  0.11580886  0.24636556  1
  O  O329  1  0.76958638  0.17514201  0.84708152  1
  O  O330  1  0.79270535  0.65301042  0.20815305  1
  O  O331  1  0.72797050  0.62122014  0.76724303  1
  O  O332  1  0.35942068  0.14174468  0.35765880  1
  O  O333  1  0.36918447  0.11579603  0.85358355  1
  O  O334  1  0.37594644  0.59488252  0.38736294  1
  O  O335  1  0.33435225  0.68463474  0.87262001  1
  O  O336  1  0.86788201  0.11492093  0.36463024  1
  O  O337  1  0.90076929  0.09940512  0.85658762  1
  O  O338  1  0.91400765  0.62574826  0.39330280  1
  O  O339  1  0.85694538  0.61057856  0.88631070  1
  O  O340  1  0.13200224  0.38983631  0.12943605  1
  O  O341  1  0.11039026  0.38187140  0.65199615  1
  O  O342  1  0.14096310  0.87116950  0.13635503  1
  O  O343  1  0.11165156  0.88426863  0.63140912  1
  O  O344  1  0.63018814  0.38043850  0.15100865  1
  O  O345  1  0.63337943  0.38482280  0.62800384  1
  O  O346  1  0.62802976  0.87112710  0.11933964  1
  O  O347  1  0.60943939  0.88019708  0.62463046  1
  O  O348  1  0.12257988  0.26301648  0.26103026  1
  O  O349  1  0.12274348  0.26871410  0.75904477  1
  O  O350  1  0.10927089  0.77069408  0.25720366  1
  O  O351  1  0.12629724  0.75545148  0.72825812  1
  O  O352  1  0.62033201  0.27106787  0.26487558  1
  O  O353  1  0.63176688  0.26060843  0.72586828  1
  O  O354  1  0.61343404  0.74437199  0.26318350  1
  O  O355  1  0.59565711  0.75483711  0.74034495  1
  O  O356  1  0.36793464  0.24579566  0.23634753  1
  O  O357  1  0.36829327  0.24165996  0.74148862  1
  O  O358  1  0.39583395  0.74284804  0.29060695  1
  O  O359  1  0.41499455  0.75991587  0.74912549  1
  O  O360  1  0.88152443  0.24303552  0.23654692  1
  O  O361  1  0.78965152  0.21908095  0.77686905  1
  O  O362  1  0.89246121  0.76164749  0.24672530  1
  O  O363  1  0.84309497  0.74801713  0.73116057  1
  O  O364  1  0.38059099  0.48447002  0.49855391  1
  O  O365  1  0.36447813  0.48860389  1.00039712  1
  O  O366  1  0.33576441  0.93068168  0.46268415  1
  O  O367  1  0.38872824  0.99689271  1.00615163  1
  O  O368  1  0.89527150  0.50156547  0.50571567  1
  O  O369  1  0.86537267  0.49648556  1.00239029  1
  O  O370  1  0.88139703  1.00756856  0.48488044  1
  O  O371  1  0.88570188  0.96162804  1.02111743  1
  O  O372  1  0.11583010  -0.04631463  0.01201404  1
  O  O373  1  0.10874303  -0.00588703  0.51195941  1
  O  O374  1  0.14025969  0.50613521  -0.00032159  1
  O  O375  1  0.12398438  0.45511972  0.53020411  1
  O  O376  1  0.61011786  0.00991286  0.01319513  1
  O  O377  1  0.63497565  0.01314871  0.51071232  1
  O  O378  1  0.62608438  0.50909990  0.01993722  1
  O  O379  1  0.60847116  0.48542329  0.51150192  1
  O  O380  1  0.35701190  0.36199242  0.12671677  1
  O  O381  1  0.37340032  0.37411765  0.60955805  1
  O  O382  1  0.36874325  0.88734349  0.12006887  1
  O  O383  1  0.39616768  0.87234539  0.61467924  1
  O  O384  1  0.86567203  0.38203745  0.11861722  1
  O  O385  1  0.87461309  0.38928609  0.61235572  1
  O  O386  1  0.88019048  0.84651993  0.11699805  1
  O  O387  1  0.85518070  0.87164900  0.62329010  1
  O  O388  1  0.13686383  0.13835454  0.37009893  1
  O  O389  1  0.09955232  0.01331435  0.97121706  1
  O  O390  1  0.13231803  0.65823962  0.35886461  1
  O  O391  1  0.06227009  0.60850278  0.82642367  1
  O  O392  1  0.64366515  0.14712550  0.35724844  1
  O  O393  1  0.63032394  0.10769941  0.86328612  1
  O  O394  1  0.63053149  0.62609524  0.37432091  1
  O  O395  1  0.63027118  0.60925238  0.90140014  1
