# generated using pymatgen
data_V35Zn35O128
_symmetry_space_group_name_H-M   'P 1'
_cell_length_a   16.89729969
_cell_length_b   16.87765118
_cell_length_c   16.84788768
_cell_angle_alpha   90.04468248
_cell_angle_beta   89.97388550
_cell_angle_gamma   90.14349676
_symmetry_Int_Tables_number   1
_chemical_formula_structural   V35Zn35O128
_chemical_formula_sum   'V70 Zn70 O256'
_cell_volume   4804.77697092
_cell_formula_units_Z   2
loop_
 _symmetry_equiv_pos_site_id
 _symmetry_equiv_pos_as_xyz
  1  'x, y, z'
loop_
 _atom_site_type_symbol
 _atom_site_label
 _atom_site_symmetry_multiplicity
 _atom_site_fract_x
 _atom_site_fract_y
 _atom_site_fract_z
 _atom_site_occupancy
  V  V0  1  0.25912914  0.37287604  0.62245617  1
  V  V1  1  0.49502614  0.74470924  0.74315540  1
  V  V2  1  0.24984380  0.88732691  0.11829864  1
  V  V3  1  0.61453509  0.64400575  0.50835679  1
  V  V4  1  0.76184924  0.74473255  0.49193508  1
  V  V5  1  0.24649562  0.24028258  0.49887731  1
  V  V6  1  0.63415336  -0.00406398  0.12342999  1
  V  V7  1  0.62070132  0.13299705  0.50588712  1
  V  V8  1  0.12343438  0.62947880  0.50220835  1
  V  V9  1  0.50824797  0.37642695  0.89203463  1
  V  V10  1  0.38226400  0.50581344  0.87594396  1
  V  V11  1  0.39263550  0.37472029  0.49596455  1
  V  V12  1  0.12357655  0.48858968  0.11647779  1
  V  V13  1  0.74670914  0.00732525  0.73637012  1
  V  V14  1  0.86696200  0.87951997  0.01080340  1
  V  V15  1  0.87836668  0.61610107  0.25005413  1
  V  V16  1  0.38959483  0.24397047  0.62350570  1
  V  V17  1  -0.01550731  0.47902237  -0.00856016  1
  V  V18  1  0.36935107  0.76067010  0.11773885  1
  V  V19  1  0.01828645  0.00668524  0.50664689  1
  V  V20  1  0.27019750  0.50937362  0.74241782  1
  V  V21  1  -0.00585773  0.75225872  0.24424413  1
  V  V22  1  0.49745123  0.87701154  0.88462586  1
  V  V23  1  0.23906792  0.88618848  0.64437961  1
  V  V24  1  0.70583132  0.61214969  0.33481301  1
  V  V25  1  0.49918841  0.62039286  0.10840276  1
  V  V26  1  0.00352966  0.11428465  0.12739986  1
  V  V27  1  0.11826834  0.38096002  0.75975016  1
  V  V28  1  0.74875684  0.74497860  0.01110277  1
  V  V29  1  0.87184690  -0.02080618  0.38190493  1
  V  V30  1  0.37996904  0.00051407  0.37351763  1
  V  V31  1  0.50641009  0.00265770  0.51631225  1
  V  V32  1  0.00452956  0.86548268  0.85726861  1
  V  V33  1  0.74036846  0.14014399  0.37281898  1
  V  V34  1  0.76590295  0.86999801  0.61826079  1
  V  V35  1  0.36356678  0.00395814  0.87665650  1
  V  V36  1  0.36160090  0.12694678  0.75374649  1
  V  V37  1  0.24675204  0.12044240  0.36756188  1
  V  V38  1  0.00238997  0.63316499  0.10901712  1
  V  V39  1  0.88162529  0.13143149  0.74549761  1
  V  V40  1  0.13490199  0.74613980  0.36333426  1
  V  V41  1  0.89443488  0.50868737  0.39820101  1
  V  V42  1  0.36312975  0.63395099  0.25024634  1
  V  V43  1  0.74608652  0.26682616  0.00176670  1
  V  V44  1  0.74816987  -0.02287851  0.25151281  1
  V  V45  1  0.13149196  0.89353381  0.24916897  1
  V  V46  1  0.49777801  0.37570771  0.34400641  1
  V  V47  1  0.87423335  0.25693030  0.11772663  1
  V  V48  1  0.75592201  0.37870518  0.59953812  1
  V  V49  1  0.19449257  0.69013739  0.90919453  1
  V  V50  1  0.11990877  0.50154864  0.62048211  1
  V  V51  1  0.23885420  0.49372584  0.24537883  1
  V  V52  1  0.87905695  0.25430204  0.61101715  1
  V  V53  1  0.50741447  0.02227918  -0.00072678  1
  V  V54  1  0.74083169  0.11094710  0.88483360  1
  V  V55  1  0.62715904  0.50489049  0.61356966  1
  V  V56  1  0.34490651  0.37449033  0.00415944  1
  V  V57  1  0.24471353  0.75431395  0.50442661  1
  V  V58  1  0.37044676  0.74547706  0.63151759  1
  V  V59  1  0.39159790  0.24340152  0.12146043  1
  V  V60  1  0.37981828  0.87746147  0.50353562  1
  V  V61  1  0.51543579  0.24494931  0.75339532  1
  V  V62  1  0.87369087  0.13293710  0.25212069  1
  V  V63  1  0.61482370  0.25222326  0.35067191  1
  V  V64  1  0.01056608  -0.00701454  0.00107811  1
  V  V65  1  0.62866320  0.74695563  0.88117108  1
  V  V66  1  0.63003710  0.38812444  0.75442668  1
  V  V67  1  -0.00706820  0.64887073  0.63817475  1
  V  V68  1  0.61766386  0.88281694  0.73315465  1
  V  V69  1  0.36836531  0.49904049  0.37358884  1
  Zn  Zn70  1  0.48554549  0.60674498  0.63229794  1
  Zn  Zn71  1  0.51542540  0.75036105  0.26150073  1
  Zn  Zn72  1  0.39748353  0.12403334  0.24603564  1
  Zn  Zn73  1  -0.00015609  0.86799636  0.38717111  1
  Zn  Zn74  1  0.57367565  0.20004272  0.94254486  1
  Zn  Zn75  1  0.07285436  0.32021056  0.25957994  1
  Zn  Zn76  1  0.19380494  0.16807453  0.18301203  1
  Zn  Zn77  1  0.18495654  0.20596120  0.79810024  1
  Zn  Zn78  1  0.19013400  0.68355733  0.07904610  1
  Zn  Zn79  1  0.18351533  0.69291822  0.70446774  1
  Zn  Zn80  1  0.68752682  0.17679600  0.17785061  1
  Zn  Zn81  1  0.69369881  0.19355614  0.68127150  1
  Zn  Zn82  1  0.68295774  0.68037159  0.17196524  1
  Zn  Zn83  1  0.68627831  0.69643210  0.68860886  1
  Zn  Zn84  1  0.26520985  0.28730848  0.28209151  1
  Zn  Zn85  1  0.32417680  0.32328834  0.80961259  1
  Zn  Zn86  1  0.31177337  0.82234849  0.31253448  1
  Zn  Zn87  1  0.30743203  0.81106356  0.81927404  1
  Zn  Zn88  1  0.86787809  0.34580944  0.29783643  1
  Zn  Zn89  1  0.78878290  0.27795499  0.80087675  1
  Zn  Zn90  1  0.68619178  0.80300398  0.31366236  1
  Zn  Zn91  1  0.80083254  0.84992315  0.83400321  1
  Zn  Zn92  1  0.19020265  0.43204365  0.44205454  1
  Zn  Zn93  1  0.18068939  0.48311876  0.92213680  1
  Zn  Zn94  1  0.19035300  0.93653456  0.43969064  1
  Zn  Zn95  1  0.18220613  0.93156373  0.93636156  1
  Zn  Zn96  1  0.68418448  0.42891415  0.27003876  1
  Zn  Zn97  1  0.72477295  0.42144649  0.89693169  1
  Zn  Zn98  1  0.69224687  0.94351833  0.44594193  1
  Zn  Zn99  1  0.68074717  0.93516055  0.93638462  1
  Zn  Zn100  1  0.33158537  0.05845988  0.07117568  1
  Zn  Zn101  1  0.31399673  0.06202274  0.56829326  1
  Zn  Zn102  1  0.31593526  0.56443092  0.05810382  1
  Zn  Zn103  1  0.31042358  0.56510215  0.55291385  1
  Zn  Zn104  1  0.81643161  0.05181381  0.07056073  1
  Zn  Zn105  1  0.80920465  0.06686255  0.55964796  1
  Zn  Zn106  1  0.81536460  0.56775656  0.06018664  1
  Zn  Zn107  1  0.81032135  0.57050051  0.57625072  1
  Zn  Zn108  1  0.42339186  0.44349240  0.17684584  1
  Zn  Zn109  1  0.44799658  0.42860021  0.68749476  1
  Zn  Zn110  1  0.44537759  0.93943674  0.18801856  1
  Zn  Zn111  1  0.42867461  0.93794858  0.68963508  1
  Zn  Zn112  1  0.94197418  0.44246741  0.18033949  1
  Zn  Zn113  1  0.93827102  0.43449034  0.67962026  1
  Zn  Zn114  1  0.93412463  0.93322434  0.19183912  1
  Zn  Zn115  1  0.93954015  0.95211689  0.67991482  1
  Zn  Zn116  1  0.04960621  0.07166398  0.33353948  1
  Zn  Zn117  1  0.04592895  0.06803305  0.83021921  1
  Zn  Zn118  1  0.06226147  0.56644735  0.31205253  1
  Zn  Zn119  1  0.05725504  0.57694167  0.82307342  1
  Zn  Zn120  1  0.55448767  -0.04722740  0.30983698  1
  Zn  Zn121  1  0.56482362  0.05983161  0.81081198  1
  Zn  Zn122  1  0.54328559  0.57122946  0.31321536  1
  Zn  Zn123  1  0.56262993  0.56393417  0.81669720  1
  Zn  Zn124  1  0.44152834  0.18631744  0.43299804  1
  Zn  Zn125  1  0.31266911  0.19275333  0.94010313  1
  Zn  Zn126  1  0.43128575  0.68386076  0.44290435  1
  Zn  Zn127  1  0.40845523  0.69924074  0.93266618  1
  Zn  Zn128  1  0.93978632  0.18804884  0.44212504  1
  Zn  Zn129  1  0.90724635  0.15333446  0.95173305  1
  Zn  Zn130  1  0.94610827  0.68705472  0.43880251  1
  Zn  Zn131  1  0.92896389  0.70539619  0.92698610  1
  Zn  Zn132  1  0.05342992  0.30964746  0.06118098  1
  Zn  Zn133  1  0.09153013  0.27299509  0.61852129  1
  Zn  Zn134  1  0.07338174  0.81487132  0.05394692  1
  Zn  Zn135  1  0.05809180  0.82533050  0.56760683  1
  Zn  Zn136  1  0.57550900  0.32934086  0.08419815  1
  Zn  Zn137  1  0.57277594  0.31379703  0.56051553  1
  Zn  Zn138  1  0.55723564  0.80839897  0.07260311  1
  Zn  Zn139  1  0.55566473  0.81532108  0.44047017  1
  O  O140  1  0.10161023  0.12178122  0.13373640  1
  O  O141  1  0.13103238  0.06077718  0.68295884  1
  O  O142  1  0.10842000  0.61145613  0.12041968  1
  O  O143  1  0.12609120  0.61730103  0.62418520  1
  O  O144  1  0.61995623  0.09844185  0.13062519  1
  O  O145  1  0.63248255  0.13539095  0.60487860  1
  O  O146  1  0.60023861  0.62867582  0.11459183  1
  O  O147  1  0.62564011  0.61640751  0.62766415  1
  O  O148  1  0.38759582  0.37972237  0.37801733  1
  O  O149  1  0.39328629  0.37736454  0.88894492  1
  O  O150  1  0.35902517  0.88665319  0.39696818  1
  O  O151  1  0.39040981  0.89408382  0.86178351  1
  O  O152  1  0.86496741  0.41205876  0.39032118  1
  O  O153  1  0.85460015  0.46511158  0.81678950  1
  O  O154  1  0.86593919  0.88143467  0.38088095  1
  O  O155  1  0.89216645  0.87098543  0.89196590  1
  O  O156  1  0.26554607  0.01556789  0.39506030  1
  O  O157  1  0.26517410  -0.00546590  0.88319646  1
  O  O158  1  0.25977825  0.49090619  0.36563046  1
  O  O159  1  0.27316984  0.48933211  0.85231707  1
  O  O160  1  0.75694256  0.00460590  0.36491253  1
  O  O161  1  0.74137131  0.00577025  0.85849368  1
  O  O162  1  0.76690062  0.55318271  0.38294448  1
  O  O163  1  0.79774190  0.50291163  0.86038044  1
  O  O164  1  0.23282674  0.50585482  0.13087700  1
  O  O165  1  0.26239104  0.49027667  0.62769422  1
  O  O166  1  0.26446104  0.98746853  0.12892448  1
  O  O167  1  0.25810507  0.98505906  0.62800109  1
  O  O168  1  0.73397460  0.50229643  0.13281693  1
  O  O169  1  0.74162954  0.48888601  0.62568899  1
  O  O170  1  0.74324029  0.99350139  0.13741803  1
  O  O171  1  0.74737395  0.98864444  0.62724404  1
  O  O172  1  -0.02471542  0.36896226  0.25867091  1
  O  O173  1  0.01913895  0.39290748  0.74886947  1
  O  O174  1  0.01420062  0.86119214  0.24316671  1
  O  O175  1  -0.01118059  0.89062389  0.76017741  1
  O  O176  1  0.49105485  0.37713574  0.24557654  1
  O  O177  1  0.51517570  0.36667419  0.75936267  1
  O  O178  1  0.50463019  0.86636586  0.25147292  1
  O  O179  1  0.50839513  0.87384739  0.75100812  1
  O  O180  1  0.48648076  0.04578430  0.24330220  1
  O  O181  1  0.50550341  0.14318914  0.75888738  1
  O  O182  1  0.47780689  0.62729968  0.24017653  1
  O  O183  1  0.50475483  0.64143944  0.74782199  1
  O  O184  1  0.98227355  0.11720838  0.24469307  1
  O  O185  1  0.98036964  0.12029398  0.75157617  1
  O  O186  1  0.99808192  0.63581370  0.23928766  1
  O  O187  1  1.01143259  0.62324842  0.73557797  1
  O  O188  1  0.37429341  0.26734875  0.00785350  1
  O  O189  1  0.38163803  0.25555272  0.50698362  1
  O  O190  1  0.38046941  0.76933244  0.02053646  1
  O  O191  1  0.36441186  0.75806686  0.50983882  1
  O  O192  1  0.86126554  0.24262774  0.00764681  1
  O  O193  1  0.86741125  0.24099428  0.51134665  1
  O  O194  1  0.85615077  0.75993472  -0.00245970  1
  O  O195  1  0.86144622  0.74136764  0.49518015  1
  O  O196  1  0.14851374  0.24649863  0.52102059  1
  O  O197  1  0.11792987  0.23698672  0.98328377  1
  O  O198  1  0.12987318  0.75050714  0.49441479  1
  O  O199  1  0.13838310  0.74404893  0.98339876  1
  O  O200  1  0.61289796  0.23716254  0.48348033  1
  O  O201  1  0.63985043  0.25584531  1.01798592  1
  O  O202  1  0.62831122  0.74616180  0.50725480  1
  O  O203  1  0.63057317  0.76271186  0.98796975  1
  O  O204  1  0.48929627  0.26714335  0.12391386  1
  O  O205  1  0.49796143  0.26058313  0.63900536  1
  O  O206  1  0.48377611  0.74432170  0.13717721  1
  O  O207  1  0.48940006  0.75447135  0.64032925  1
  O  O208  1  0.98268525  0.22940069  0.11351762  1
  O  O209  1  0.97988949  0.25991296  0.61962652  1
  O  O210  1  1.01570232  0.74097931  0.13266923  1
  O  O211  1  1.00644321  0.74873912  0.63504413  1
  O  O212  1  0.01449813  0.27076640  0.38467887  1
  O  O213  1  0.07416744  0.21371148  0.92431018  1
  O  O214  1  0.01236680  0.75318212  0.36317823  1
  O  O215  1  0.00364213  0.76267185  0.86431296  1
  O  O216  1  0.50500071  0.25995993  0.36460326  1
  O  O217  1  0.51168083  0.26636200  0.86653780  1
  O  O218  1  0.48984002  0.75087696  0.37627721  1
  O  O219  1  0.49815073  0.76512628  0.86511405  1
  O  O220  1  0.26428079  0.13718673  0.49757141  1
  O  O221  1  0.25868029  0.14443911  1.03238946  1
  O  O222  1  0.23946857  0.64414786  0.50734315  1
  O  O223  1  0.24571306  0.62587532  0.99376404  1
  O  O224  1  0.73310477  0.11605503  0.48135002  1
  O  O225  1  0.75872624  0.10738575  0.98507326  1
  O  O226  1  0.73468843  0.64471326  0.52358147  1
  O  O227  1  0.75114122  0.64327156  1.00383298  1
  O  O228  1  0.24874199  0.38013490  -0.00773848  1
  O  O229  1  0.26579869  0.36306121  0.50299562  1
  O  O230  1  0.24345910  0.87892046  0.01789970  1
  O  O231  1  0.25457297  0.86706918  0.51432036  1
  O  O232  1  0.75402508  0.36656226  -0.00777783  1
  O  O233  1  0.74437377  0.37508612  0.50511907  1
  O  O234  1  0.76083978  0.87356628  -0.00895256  1
  O  O235  1  0.74724455  0.86191101  0.51064087  1
  O  O236  1  0.13309653  0.50452348  0.24521240  1
  O  O237  1  0.14791885  0.49318605  0.73177410  1
  O  O238  1  0.11448200  0.98971953  0.26008805  1
  O  O239  1  0.12374160  1.01731008  0.74252356  1
  O  O240  1  0.65008675  0.53745422  0.27941514  1
  O  O241  1  0.62617967  0.49169966  0.74630425  1
  O  O242  1  0.64428411  0.99462902  0.24486098  1
  O  O243  1  0.62866447  0.98964052  0.74617805  1
  O  O244  1  0.36803960  -0.01824205  0.27525614  1
  O  O245  1  0.38524765  0.01943464  0.76099872  1
  O  O246  1  0.36252973  0.50569461  0.25602197  1
  O  O247  1  0.37691158  0.49225229  0.75353530  1
  O  O248  1  0.86322368  0.00386507  0.25892148  1
  O  O249  1  0.85723277  0.01921785  0.73706841  1
  O  O250  1  0.87895052  0.51399333  0.25460165  1
  O  O251  1  0.87667163  0.50641794  0.75336659  1
  O  O252  1  0.10913953  0.36488994  0.38318095  1
  O  O253  1  0.13575815  0.39078181  0.85694957  1
  O  O254  1  0.12569825  0.86594417  0.36436345  1
  O  O255  1  0.10502317  0.88608889  0.87065782  1
  O  O256  1  0.60875438  0.36497267  0.35359655  1
  O  O257  1  0.61721020  0.39160615  0.86725602  1
  O  O258  1  0.62614467  0.88009929  0.37686438  1
  O  O259  1  0.61056358  0.87091575  0.86483446  1
  O  O260  1  0.39665363  0.13745794  0.12604037  1
  O  O261  1  0.37816581  0.13463593  0.63957811  1
  O  O262  1  0.36956013  0.63892382  0.13510911  1
  O  O263  1  0.37419725  0.64008103  0.61680268  1
  O  O264  1  0.87504040  0.12407507  0.13896894  1
  O  O265  1  0.85808227  0.14217252  0.63414328  1
  O  O266  1  0.89189725  0.62096852  0.13727404  1
  O  O267  1  0.89471720  0.62822618  0.62940549  1
  O  O268  1  0.26072944  0.20521785  0.09349084  1
  O  O269  1  0.27305924  0.25927594  0.61381377  1
  O  O270  1  0.26136061  0.75965642  0.12848753  1
  O  O271  1  0.25347980  0.75781006  0.62677588  1
  O  O272  1  0.76041092  0.24070166  0.11158089  1
  O  O273  1  0.75834005  0.27317897  0.63098220  1
  O  O274  1  0.73528189  0.76118322  0.10904743  1
  O  O275  1  0.75182962  0.76611894  0.62411200  1
  O  O276  1  0.25925606  0.23701420  0.39026398  1
  O  O277  1  0.25704764  0.25605684  0.86773320  1
  O  O278  1  0.23935132  0.75783429  0.38711274  1
  O  O279  1  0.29489685  0.73096284  0.89631253  1
  O  O280  1  0.73339185  0.24143823  0.37132531  1
  O  O281  1  0.74578466  0.23461428  0.89686726  1
  O  O282  1  0.74231730  0.72637285  0.39037966  1
  O  O283  1  0.73145074  0.76297760  0.87606152  1
  O  O284  1  -0.01260746  0.10583316  0.01408818  1
  O  O285  1  0.00883173  0.10225556  0.45805771  1
  O  O286  1  -0.01407301  0.63847352  0.00957018  1
  O  O287  1  0.01790348  0.63772675  0.51858751  1
  O  O288  1  0.50652725  0.12148494  -0.00800649  1
  O  O289  1  0.50926815  0.11451113  0.49782156  1
  O  O290  1  0.47609420  0.63925723  0.01062431  1
  O  O291  1  0.51044503  0.63653088  0.51856869  1
  O  O292  1  0.49435417  0.37353376  0.49694546  1
  O  O293  1  0.51811651  0.37739261  0.99101100  1
  O  O294  1  0.48898934  0.88604668  0.50826109  1
  O  O295  1  0.50039895  0.87491100  0.98434089  1
  O  O296  1  1.05029508  0.32743954  0.42826982  1
  O  O297  1  0.99380169  0.37849542  0.99036551  1
  O  O298  1  1.00096729  0.89576172  0.49956442  1
  O  O299  1  0.99391372  0.88126270  1.00189140  1
  O  O300  1  0.48610747  0.48364096  0.36350014  1
  O  O301  1  0.49289032  0.48613258  0.86771247  1
  O  O302  1  0.48390271  0.99331118  0.39533523  1
  O  O303  1  0.50387283  0.99237324  0.88380556  1
  O  O304  1  0.99598378  0.50803389  0.38321805  1
  O  O305  1  0.99853273  0.51228015  0.89606986  1
  O  O306  1  0.98012128  0.98450220  0.36795895  1
  O  O307  1  0.99342483  0.99499457  0.89571631  1
  O  O308  1  -0.00832261  0.00657466  0.12100942  1
  O  O309  1  -0.00700213  0.01904758  0.60473042  1
  O  O310  1  0.00564330  0.51060879  0.11178458  1
  O  O311  1  0.02001183  0.49963100  0.62116458  1
  O  O312  1  0.49145601  -0.00359999  0.09659533  1
  O  O313  1  0.49563223  0.00054764  0.61604864  1
  O  O314  1  0.48236468  0.51931118  0.11853427  1
  O  O315  1  0.51969054  0.49606235  0.63028989  1
  O  O316  1  0.25179803  0.39540638  0.24523250  1
  O  O317  1  0.25521410  0.38138210  0.73301187  1
  O  O318  1  0.23538261  0.87993432  0.24842809  1
  O  O319  1  0.25593316  0.87510696  0.74444634  1
  O  O320  1  0.76524286  0.35889517  0.25537051  1
  O  O321  1  0.73275179  0.37217131  0.77324795  1
  O  O322  1  0.75541318  0.87882337  0.25638031  1
  O  O323  1  0.74051695  0.88513336  0.74178577  1
  O  O324  1  0.26738344  0.12310654  0.26488386  1
  O  O325  1  0.26321921  0.13038078  0.74876080  1
  O  O326  1  0.26284573  0.60998185  0.25315817  1
  O  O327  1  0.26160315  0.60709379  0.73648316  1
  O  O328  1  0.75702925  0.11888503  0.25898277  1
  O  O329  1  0.74324024  0.12026115  0.75541001  1
  O  O330  1  0.77197679  0.63784881  0.24550837  1
  O  O331  1  0.76652506  0.63714586  0.75539619  1
  O  O332  1  0.37822829  0.11402597  0.36880077  1
  O  O333  1  0.37206697  0.11836143  0.86535196  1
  O  O334  1  0.38036440  0.60617282  0.36872298  1
  O  O335  1  0.39117345  0.60312817  0.87085621  1
  O  O336  1  0.86244728  0.13463646  0.36245155  1
  O  O337  1  0.85398602  0.12907879  0.85525047  1
  O  O338  1  0.89387022  0.62555086  0.35585342  1
  O  O339  1  0.86379985  0.64142185  0.84467750  1
  O  O340  1  0.10578687  0.38814506  0.13339725  1
  O  O341  1  0.14155108  0.39034921  0.61891931  1
  O  O342  1  0.13795896  0.87206835  0.13799684  1
  O  O343  1  0.13971678  0.87309011  0.63239648  1
  O  O344  1  0.63584341  0.41065724  0.14632846  1
  O  O345  1  0.63711265  0.38417078  0.63334727  1
  O  O346  1  0.60968652  0.89482414  0.12605804  1
  O  O347  1  0.63062736  0.87369210  0.63637849  1
  O  O348  1  0.15928831  0.25622494  0.24571751  1
  O  O349  1  0.12730065  0.27622754  0.73000061  1
  O  O350  1  0.12580669  0.74891104  0.26296798  1
  O  O351  1  0.16841020  0.72670124  0.81361844  1
  O  O352  1  0.62270920  0.24032766  0.25214985  1
  O  O353  1  0.61911529  0.26254084  0.74267898  1
  O  O354  1  0.63316837  0.71224379  0.27005592  1
  O  O355  1  0.61354908  0.76374838  0.75735247  1
  O  O356  1  0.35935520  0.25391725  0.22141026  1
  O  O357  1  0.39109151  0.24299751  0.74561300  1
  O  O358  1  0.36346935  0.73746676  0.25659927  1
  O  O359  1  0.38691484  0.75652624  0.74555591  1
  O  O360  1  0.87139057  0.23621288  0.23600851  1
  O  O361  1  0.87376552  0.24037286  0.74166109  1
  O  O362  1  0.89651052  0.74804723  0.24789399  1
  O  O363  1  0.82577134  0.68017889  0.78751546  1
  O  O364  1  0.36865517  0.49137113  0.48272724  1
  O  O365  1  0.36705036  0.48759909  0.98454121  1
  O  O366  1  0.38559800  0.99564864  0.50316584  1
  O  O367  1  0.39023796  1.01048735  0.98103289  1
  O  O368  1  0.88148281  0.52932101  0.49614281  1
  O  O369  1  0.88537303  0.49485533  1.01029361  1
  O  O370  1  0.87122983  1.00953672  0.48140616  1
  O  O371  1  0.87982428  0.98489077  1.00324555  1
  O  O372  1  0.10990530  -0.00349032  0.00599840  1
  O  O373  1  0.11936105  0.00075942  0.50133665  1
  O  O374  1  0.11168664  0.48921624  0.01328142  1
  O  O375  1  0.14329481  0.51390765  0.51278372  1
  O  O376  1  0.61719717  -0.00094321  0.00829880  1
  O  O377  1  0.61217888  0.01085362  0.49856582  1
  O  O378  1  0.67626617  0.46412031  0.09508541  1
  O  O379  1  0.62780565  0.51449957  0.51528550  1
  O  O380  1  0.36356777  0.37436404  0.10763411  1
  O  O381  1  0.37738783  0.36829048  0.61617372  1
  O  O382  1  0.36196987  0.86608654  0.14379801  1
  O  O383  1  0.36583050  0.86530693  0.62101715  1
  O  O384  1  0.88014283  0.35526331  0.12318938  1
  O  O385  1  0.86515751  0.37146504  0.61967383  1
  O  O386  1  0.87774687  0.87109974  0.11153767  1
  O  O387  1  0.86385028  0.87880101  0.62757096  1
  O  O388  1  0.14778044  0.11926448  0.36715753  1
  O  O389  1  0.11664495  0.14867566  0.87637940  1
  O  O390  1  0.12159236  0.63973161  0.38608352  1
  O  O391  1  0.15027843  0.59365809  0.88417351  1
  O  O392  1  0.63149085  0.13586593  0.37330158  1
  O  O393  1  0.63622094  0.12551212  0.87696509  1
  O  O394  1  0.61690969  0.62188900  0.40366627  1
  O  O395  1  0.61719522  0.64737725  0.87212988  1
