# generated using pymatgen
data_V35Zn35O128
_symmetry_space_group_name_H-M   'P 1'
_cell_length_a   16.88666493
_cell_length_b   16.93757706
_cell_length_c   16.92395414
_cell_angle_alpha   89.86432064
_cell_angle_beta   90.43331801
_cell_angle_gamma   90.25076767
_symmetry_Int_Tables_number   1
_chemical_formula_structural   V35Zn35O128
_chemical_formula_sum   'V70 Zn70 O256'
_cell_volume   4840.37764275
_cell_formula_units_Z   2
loop_
 _symmetry_equiv_pos_site_id
 _symmetry_equiv_pos_as_xyz
  1  'x, y, z'
loop_
 _atom_site_type_symbol
 _atom_site_label
 _atom_site_symmetry_multiplicity
 _atom_site_fract_x
 _atom_site_fract_y
 _atom_site_fract_z
 _atom_site_occupancy
  V  V0  1  0.62036692  0.62207030  -0.00454756  1
  V  V1  1  0.37847793  0.88407414  0.50168205  1
  V  V2  1  0.24743122  0.24936232  0.49771979  1
  V  V3  1  0.75977996  0.37820868  0.62222775  1
  V  V4  1  0.11885852  0.36185858  0.23596771  1
  V  V5  1  0.24692209  0.38474402  0.63425811  1
  V  V6  1  0.37718116  0.13097132  0.24867081  1
  V  V7  1  0.86899921  -0.01776010  0.37413636  1
  V  V8  1  0.73956999  0.61868421  0.37162195  1
  V  V9  1  -0.00523514  0.14599637  0.62968778  1
  V  V10  1  0.24830769  0.49546800  0.24298516  1
  V  V11  1  0.37381883  0.37607185  0.49421318  1
  V  V12  1  0.01301721  0.49701493  0.49452618  1
  V  V13  1  0.89273131  0.49992586  0.36582617  1
  V  V14  1  0.75984989  0.63629351  0.88121138  1
  V  V15  1  0.12101882  -0.00514575  0.62920038  1
  V  V16  1  0.38833272  0.74729991  0.63718438  1
  V  V17  1  0.88343114  -0.00769325  0.87591565  1
  V  V18  1  0.49369281  0.38514513  0.87925867  1
  V  V19  1  0.50408151  0.63515524  0.12410602  1
  V  V20  1  0.49947079  0.23378452  0.75055926  1
  V  V21  1  0.89159482  0.24176830  0.10827879  1
  V  V22  1  0.11953305  0.13036242  0.50266376  1
  V  V23  1  0.24610285  0.36323169  0.11224791  1
  V  V24  1  -0.00149165  0.63980408  0.12042327  1
  V  V25  1  0.25648281  0.02442759  0.74987258  1
  V  V26  1  -0.00828534  0.49152848  -0.00505025  1
  V  V27  1  0.24722553  0.74776971  0.48962542  1
  V  V28  1  0.13088360  0.62440726  -0.01603677  1
  V  V29  1  0.36119069  0.59910781  0.80628413  1
  V  V30  1  0.01205964  0.64684808  0.62993831  1
  V  V31  1  0.12437495  0.49683567  0.12191255  1
  V  V32  1  0.88805769  0.12940884  0.25526537  1
  V  V33  1  0.76028331  0.36055449  0.10444938  1
  V  V34  1  0.24203740  0.86986739  0.63157951  1
  V  V35  1  0.87224496  0.14565542  0.74747232  1
  V  V36  1  0.37865243  0.23821209  0.11149644  1
  V  V37  1  -0.00090766  0.35945242  0.36477703  1
  V  V38  1  0.75205226  -0.00965526  0.73895522  1
  V  V39  1  -0.01026893  -0.00820840  0.49827157  1
  V  V40  1  0.38685516  -0.00024889  0.37518617  1
  V  V41  1  0.37791354  0.38626630  -0.00441520  1
  V  V42  1  0.61588947  0.01334801  0.61252059  1
  V  V43  1  0.11692062  0.27958932  0.84949686  1
  V  V44  1  0.13805953  0.61795513  0.48488424  1
  V  V45  1  0.74508731  0.76829324  0.54775484  1
  V  V46  1  0.01078248  -0.01005410  0.01706059  1
  V  V47  1  0.13905781  0.11468897  -0.01435730  1
  V  V48  1  0.24331807  0.11229917  0.37049452  1
  V  V49  1  0.61970968  0.37898763  0.75056146  1
  V  V50  1  0.88029398  0.63473688  0.23778954  1
  V  V51  1  0.12141042  0.77168332  0.85895737  1
  V  V52  1  0.37511802  0.62207564  0.22994844  1
  V  V53  1  0.51585160  0.36961846  0.36568777  1
  V  V54  1  0.73440876  0.00580449  0.25208454  1
  V  V55  1  0.26559181  0.86244064  0.14845127  1
  V  V56  1  0.36944811  0.50141219  0.36630047  1
  V  V57  1  0.75051198  0.48680519  0.23972350  1
  V  V58  1  0.37868205  0.23993046  0.63067808  1
  V  V59  1  0.87164424  0.48171968  0.87707904  1
  V  V60  1  0.74320156  0.50679565  0.75479966  1
  V  V61  1  0.61681260  0.47962178  0.12014120  1
  V  V62  1  0.41893576  -0.00625543  0.91112207  1
  V  V63  1  0.26057513  0.76328670  -0.00859898  1
  V  V64  1  0.75237953  0.12486498  0.88924407  1
  V  V65  1  0.59641007  0.87223378  0.74558619  1
  V  V66  1  0.49821580  0.51379970  0.50259480  1
  V  V67  1  0.62875060  0.24364572  0.88972514  1
  V  V68  1  0.62072093  0.84599646  0.25566242  1
  V  V69  1  0.13839069  -0.01430527  0.15539982  1
  Zn  Zn70  1  0.61975186  0.76417675  0.87257545  1
  Zn  Zn71  1  0.91084269  0.82463012  0.06107792  1
  Zn  Zn72  1  0.51573544  0.86100942  0.38026023  1
  Zn  Zn73  1  0.61107512  0.51909799  0.62529201  1
  Zn  Zn74  1  0.74074919  0.87352422  0.11264233  1
  Zn  Zn75  1  0.12169546  0.24020693  0.35602363  1
  Zn  Zn76  1  0.15555609  0.19412928  0.14575327  1
  Zn  Zn77  1  0.17897679  0.20416724  0.68715405  1
  Zn  Zn78  1  0.18824932  0.68691005  0.18160059  1
  Zn  Zn79  1  0.19210002  0.67430021  0.69252634  1
  Zn  Zn80  1  0.73813636  0.14473998  0.14230896  1
  Zn  Zn81  1  0.68760492  0.19337578  0.68232949  1
  Zn  Zn82  1  0.69019463  0.68243019  0.18077339  1
  Zn  Zn83  1  0.65862449  0.68867401  0.69405027  1
  Zn  Zn84  1  0.30739242  0.31081455  0.30933187  1
  Zn  Zn85  1  0.30619203  0.30198484  0.81820662  1
  Zn  Zn86  1  0.34243820  0.79966030  0.31802278  1
  Zn  Zn87  1  0.31572450  0.83020128  0.81435293  1
  Zn  Zn88  1  0.81888868  0.31101541  0.29957130  1
  Zn  Zn89  1  0.80665599  0.31387523  0.81109493  1
  Zn  Zn90  1  0.79848023  0.81031540  0.30222051  1
  Zn  Zn91  1  0.78172978  0.82567887  0.94121187  1
  Zn  Zn92  1  0.18532868  0.42839577  0.42531822  1
  Zn  Zn93  1  0.17937253  0.42834727  0.93868859  1
  Zn  Zn94  1  0.18130633  0.92680024  0.43423190  1
  Zn  Zn95  1  0.19774105  0.93788251  0.92936712  1
  Zn  Zn96  1  0.69088212  0.45736162  0.44278676  1
  Zn  Zn97  1  0.68086229  0.43621610  0.93825054  1
  Zn  Zn98  1  0.69360460  0.92492359  0.44220251  1
  Zn  Zn99  1  0.60532639  0.91983164  0.94430430  1
  Zn  Zn100  1  0.31140364  0.04434175  0.07063591  1
  Zn  Zn101  1  0.30964292  0.06307150  0.56323869  1
  Zn  Zn102  1  0.34615125  0.59670410  0.01057744  1
  Zn  Zn103  1  0.32147542  0.56604835  0.56976592  1
  Zn  Zn104  1  0.83511461  0.02203096  0.07981615  1
  Zn  Zn105  1  0.81112836  0.06703531  0.56109144  1
  Zn  Zn106  1  0.81171012  0.56344478  0.05866000  1
  Zn  Zn107  1  0.83864313  0.59339843  0.54326325  1
  Zn  Zn108  1  0.43548896  0.42164337  0.18363327  1
  Zn  Zn109  1  0.42659986  0.43431044  0.68915587  1
  Zn  Zn110  1  0.44083288  0.93310817  0.19702496  1
  Zn  Zn111  1  0.43471003  0.95493469  0.67796643  1
  Zn  Zn112  1  0.93761309  0.43441370  0.17873976  1
  Zn  Zn113  1  0.92976773  0.48130356  0.67804792  1
  Zn  Zn114  1  0.93568864  0.92715897  0.20030022  1
  Zn  Zn115  1  0.93971878  0.95684320  0.69272491  1
  Zn  Zn116  1  0.05590708  0.05454166  0.31393445  1
  Zn  Zn117  1  0.06360601  0.06791072  0.81074366  1
  Zn  Zn118  1  0.05556566  0.79807685  0.31720712  1
  Zn  Zn119  1  0.04691295  0.56866573  0.80174381  1
  Zn  Zn120  1  0.58787575  0.12131266  0.25174146  1
  Zn  Zn121  1  0.57017412  0.05550292  0.81441691  1
  Zn  Zn122  1  0.55822156  0.54723008  0.30439569  1
  Zn  Zn123  1  0.53985362  0.59035371  0.79678493  1
  Zn  Zn124  1  0.43447903  0.19542359  0.42872901  1
  Zn  Zn125  1  0.43631191  0.17183536  0.93447133  1
  Zn  Zn126  1  0.43137943  0.69462812  0.43814514  1
  Zn  Zn127  1  0.45776980  0.72324114  0.92907929  1
  Zn  Zn128  1  0.93450791  0.18001737  0.43603101  1
  Zn  Zn129  1  0.95213670  0.17102319  0.93621791  1
  Zn  Zn130  1  0.88463631  0.72085648  0.42257616  1
  Zn  Zn131  1  0.94075532  0.69788660  0.93221057  1
  Zn  Zn132  1  0.04530951  0.28783497  0.02030874  1
  Zn  Zn133  1  0.04680840  0.34161723  0.57838572  1
  Zn  Zn134  1  0.08340872  0.81524111  0.05482524  1
  Zn  Zn135  1  0.03937162  0.79316542  0.48958138  1
  Zn  Zn136  1  0.56522210  0.18900360  0.07620029  1
  Zn  Zn137  1  0.55510296  0.32841411  0.56863564  1
  Zn  Zn138  1  0.57848938  0.80680600  0.06057461  1
  Zn  Zn139  1  0.57122420  0.81573325  0.56494840  1
  O  O140  1  0.13945392  0.08476005  0.12341163  1
  O  O141  1  0.11104163  0.12461448  0.61830923  1
  O  O142  1  0.11247925  0.61576839  0.11750969  1
  O  O143  1  0.11867997  0.62250984  0.61828116  1
  O  O144  1  0.63120921  0.16808330  0.16075689  1
  O  O145  1  0.63658549  0.11371291  0.62246414  1
  O  O146  1  0.61327394  0.60437199  0.12678674  1
  O  O147  1  0.58392961  0.60549927  0.69177953  1
  O  O148  1  0.37518428  0.38013268  0.37878762  1
  O  O149  1  0.38041196  0.36903657  0.88352541  1
  O  O150  1  0.35533494  0.89536313  0.39041295  1
  O  O151  1  0.37676074  0.91067457  0.86812150  1
  O  O152  1  0.89162149  0.38231216  0.35934181  1
  O  O153  1  0.87331632  0.38345763  0.87636254  1
  O  O154  1  0.87117402  0.88239197  0.37042153  1
  O  O155  1  0.85832292  0.89717757  0.87793053  1
  O  O156  1  0.24537944  0.01196774  0.38864533  1
  O  O157  1  0.24231472  0.00200619  0.84708178  1
  O  O158  1  0.25536961  0.48821153  0.35351957  1
  O  O159  1  0.22355222  0.48746218  0.82215694  1
  O  O160  1  0.76476740  -0.00363513  0.37346913  1
  O  O161  1  0.76100043  0.02226350  0.85852093  1
  O  O162  1  0.76437808  0.49528533  0.35182410  1
  O  O163  1  0.75958679  0.50009844  0.87717808  1
  O  O164  1  0.23792134  0.48143390  0.12513320  1
  O  O165  1  0.26232377  0.48390615  0.62023239  1
  O  O166  1  0.24840012  0.97552878  0.14175790  1
  O  O167  1  0.23189406  1.00069333  0.62243933  1
  O  O168  1  0.75525756  0.49079388  0.12917475  1
  O  O169  1  0.73697889  0.50440296  0.65143535  1
  O  O170  1  0.73803414  1.00721943  0.14386106  1
  O  O171  1  0.75404270  1.00579198  0.63532470  1
  O  O172  1  0.00997056  0.37677175  0.25196219  1
  O  O173  1  0.02421973  0.47558015  0.74238047  1
  O  O174  1  -0.00359293  0.84308991  0.23373524  1
  O  O175  1  -0.02520083  0.85344622  0.74643366  1
  O  O176  1  0.50332505  0.38512240  0.26635930  1
  O  O177  1  0.50098975  0.36865052  0.76287411  1
  O  O178  1  0.51789571  0.87481842  0.25725678  1
  O  O179  1  0.50040287  0.89821475  0.75345169  1
  O  O180  1  0.47547017  0.12865681  0.26503720  1
  O  O181  1  0.50978023  0.13635249  0.74977575  1
  O  O182  1  0.48766286  0.60613122  0.23236985  1
  O  O183  1  0.44943422  0.65846038  0.83303739  1
  O  O184  1  0.98799487  0.11419189  0.24351411  1
  O  O185  1  0.99097800  0.12815151  0.73674999  1
  O  O186  1  0.98939994  0.62936196  0.22685923  1
  O  O187  1  1.01288065  0.65330488  0.73126443  1
  O  O188  1  0.37149802  0.23815486  0.00928634  1
  O  O189  1  0.36822310  0.25683159  0.50428159  1
  O  O190  1  0.35738806  0.72397203  -0.01205827  1
  O  O191  1  0.36116054  0.76281467  0.51567714  1
  O  O192  1  0.88368965  0.23200862  0.00914170  1
  O  O193  1  0.83562477  0.22083647  0.49624916  1
  O  O194  1  0.86383209  0.75789829  -0.01337964  1
  O  O195  1  0.83094080  0.70888893  0.52139710  1
  O  O196  1  0.13245007  0.23872992  0.49856098  1
  O  O197  1  0.13109738  0.21133737  1.03054275  1
  O  O198  1  0.14201032  0.73359352  0.50318730  1
  O  O199  1  0.13806842  0.73994926  0.98389380  1
  O  O200  1  0.59278599  0.22292766  0.50623725  1
  O  O201  1  0.62316557  0.24860717  0.98670810  1
  O  O202  1  0.64865590  0.74714080  0.51535682  1
  O  O203  1  0.64508351  0.71370789  1.02718257  1
  O  O204  1  0.47570001  0.24704835  0.12964062  1
  O  O205  1  0.48789870  0.25898615  0.63754784  1
  O  O206  1  0.50689988  0.73243750  0.12830146  1
  O  O207  1  0.48610013  0.76278338  0.62011966  1
  O  O208  1  0.99135689  0.25021019  0.11929604  1
  O  O209  1  0.99858821  0.24398018  0.61426505  1
  O  O210  1  1.00197941  0.74000437  0.10473710  1
  O  O211  1  0.99961779  0.73772810  0.59023756  1
  O  O212  1  -0.00211625  0.25635270  0.37377674  1
  O  O213  1  0.02985843  0.25147577  0.90728849  1
  O  O214  1  -0.01257668  0.74549503  0.39766007  1
  O  O215  1  0.02437914  0.74297849  0.87430808  1
  O  O216  1  0.49855427  0.26929640  0.37486527  1
  O  O217  1  0.50758786  0.24755158  0.86229343  1
  O  O218  1  0.44633870  0.77158595  0.36321871  1
  O  O219  1  0.53944940  0.80006058  0.94880392  1
  O  O220  1  0.23930439  0.13163601  0.49577877  1
  O  O221  1  0.23786629  0.09408559  0.99736702  1
  O  O222  1  0.24841057  0.63487493  0.50697290  1
  O  O223  1  0.23001016  0.62597661  1.00927475  1
  O  O224  1  0.77933487  0.16902680  0.50148054  1
  O  O225  1  0.75624660  0.11511278  0.98594723  1
  O  O226  1  0.74828591  0.58429921  0.46884737  1
  O  O227  1  0.73946783  0.61006818  0.98311239  1
  O  O228  1  0.26244811  0.38013377  0.00074273  1
  O  O229  1  0.25637979  0.36471450  0.49685415  1
  O  O230  1  0.25971930  0.86507691  0.00104469  1
  O  O231  1  0.25152657  0.86549208  0.50899856  1
  O  O232  1  0.75598804  0.37869671  0.00634492  1
  O  O233  1  0.74301611  0.39869279  0.52442970  1
  O  O234  1  0.70174552  0.88184547  -0.00091169  1
  O  O235  1  0.76175676  0.86345192  0.51588492  1
  O  O236  1  0.13178620  0.48398764  0.23119025  1
  O  O237  1  0.17593877  0.50638575  0.76946686  1
  O  O238  1  0.12401441  0.98596262  0.25423721  1
  O  O239  1  0.12473539  1.00747467  0.73109102  1
  O  O240  1  0.64335955  0.49600363  0.23375360  1
  O  O241  1  0.63436974  0.48357331  0.77770628  1
  O  O242  1  0.63724922  1.01794032  0.27089914  1
  O  O243  1  0.63896475  1.00023324  0.73790420  1
  O  O244  1  0.37440326  0.00930959  0.26818984  1
  O  O245  1  0.35408126  0.01629344  0.72481144  1
  O  O246  1  0.36416199  0.49065104  0.24710248  1
  O  O247  1  0.40155170  0.52019469  0.75550035  1
  O  O248  1  0.87559187  0.00141886  0.26496384  1
  O  O249  1  0.86746446  0.01516924  0.75722503  1
  O  O250  1  0.87299406  0.50310041  0.24776878  1
  O  O251  1  0.85395673  0.50104059  0.76930959  1
  O  O252  1  0.11894896  0.36327001  0.35292301  1
  O  O253  1  0.11127729  0.38107186  0.86415256  1
  O  O254  1  0.10005514  0.85903832  0.40469021  1
  O  O255  1  0.12315424  0.87134864  0.86904727  1
  O  O256  1  0.61391990  0.38749633  0.38593590  1
  O  O257  1  0.61360343  0.35958834  0.87368396  1
  O  O258  1  0.62960170  0.86916208  0.36575856  1
  O  O259  1  0.64138524  0.88396863  0.84051954  1
  O  O260  1  0.36163455  0.12804591  0.14044425  1
  O  O261  1  0.37756483  0.14290560  0.61118246  1
  O  O262  1  0.39376185  0.60889456  0.12018492  1
  O  O263  1  0.37524779  0.64732092  0.62825776  1
  O  O264  1  0.86177291  0.13111852  0.13316776  1
  O  O265  1  0.88601788  0.12761231  0.63447024  1
  O  O266  1  0.88670225  0.62127021  0.12493959  1
  O  O267  1  0.91853100  0.58660101  0.62278834  1
  O  O268  1  0.25588543  0.26009929  0.12454393  1
  O  O269  1  0.26221875  0.25416316  0.61492680  1
  O  O270  1  0.24401854  0.75913364  0.10665211  1
  O  O271  1  0.25126225  0.76617230  0.62526447  1
  O  O272  1  0.76274093  0.25912367  0.11435485  1
  O  O273  1  0.74272603  0.27800804  0.63154879  1
  O  O274  1  0.76070559  0.75806185  0.13535679  1
  O  O275  1  0.73914859  0.75135091  0.64898388  1
  O  O276  1  0.24789268  0.23798077  0.38465570  1
  O  O277  1  0.21648064  0.26147414  0.87338871  1
  O  O278  1  0.26145701  0.74989835  0.39273659  1
  O  O279  1  0.24340566  0.76422391  0.88442508  1
  O  O280  1  0.73987522  0.26175350  0.37305202  1
  O  O281  1  0.73738920  0.24299853  0.87331057  1
  O  O282  1  0.76852084  0.72022482  0.37269895  1
  O  O283  1  0.73742324  0.73608898  0.87416798  1
  O  O284  1  0.01995124  0.09904024  -0.00115163  1
  O  O285  1  0.00128661  0.12288007  0.51165282  1
  O  O286  1  0.00924349  0.61723152  0.00512750  1
  O  O287  1  0.02241109  0.60206838  0.50680419  1
  O  O288  1  0.51302117  0.12748127  0.00244179  1
  O  O289  1  0.54238885  0.16750198  0.49700789  1
  O  O290  1  0.51080556  0.62361753  0.01277000  1
  O  O291  1  0.47987529  0.61193006  0.49198536  1
  O  O292  1  0.48717181  0.38263175  0.48982463  1
  O  O293  1  0.48471718  0.36280955  0.98469863  1
  O  O294  1  0.48004980  0.87096069  0.49859217  1
  O  O295  1  0.52926118  0.93277604  1.05061448  1
  O  O296  1  1.01805588  0.37965114  0.46647362  1
  O  O297  1  1.00531729  0.39413869  1.00014001  1
  O  O298  1  0.98941188  0.89641464  0.51898812  1
  O  O299  1  1.00214377  0.88454929  1.00458088  1
  O  O300  1  0.48880023  0.49062850  0.38318160  1
  O  O301  1  0.50697488  0.48130323  0.87681287  1
  O  O302  1  0.48338906  0.99159094  0.38426554  1
  O  O303  1  0.52694082  0.99333972  0.89918751  1
  O  O304  1  0.99663807  0.48994269  0.36856644  1
  O  O305  1  0.97997416  0.51136355  0.88638358  1
  O  O306  1  0.99039909  0.99925399  0.39166871  1
  O  O307  1  0.98488628  0.99731428  0.85855978  1
  O  O308  1  0.01806775  -0.01238213  0.12055278  1
  O  O309  1  0.00596943  0.01339964  0.61814300  1
  O  O310  1  0.00554804  0.50541706  0.11110281  1
  O  O311  1  0.00495131  0.45464668  0.58654540  1
  O  O312  1  0.51147178  0.01834760  0.14980660  1
  O  O313  1  0.51444359  0.00959984  0.61801634  1
  O  O314  1  0.51630914  0.47999225  0.12516311  1
  O  O315  1  0.48185914  0.49304354  0.60268863  1
  O  O316  1  0.24069555  0.37625251  0.23490444  1
  O  O317  1  0.26728731  0.36780753  0.73190357  1
  O  O318  1  0.26063142  0.84663407  0.24679714  1
  O  O319  1  0.25068294  0.89293681  0.72995084  1
  O  O320  1  0.75902819  0.38347742  0.23263236  1
  O  O321  1  0.73745312  0.38455140  0.74949225  1
  O  O322  1  0.73355091  0.88996232  0.25358393  1
  O  O323  1  0.76214354  0.89546220  0.74651132  1
  O  O324  1  0.25509657  0.12120522  0.27143536  1
  O  O325  1  0.23922751  0.12327529  0.73852842  1
  O  O326  1  0.26263976  0.60269085  0.22299661  1
  O  O327  1  0.27746763  0.63446094  0.75903097  1
  O  O328  1  0.76968629  0.10655471  0.25594769  1
  O  O329  1  0.76636800  0.13086012  0.74720352  1
  O  O330  1  0.76346625  0.60834698  0.24644496  1
  O  O331  1  0.73260055  0.61082006  0.77513017  1
  O  O332  1  0.36358764  0.11574113  0.37980080  1
  O  O333  1  0.39276631  0.08545162  0.87259718  1
  O  O334  1  0.37805402  0.60516620  0.34764110  1
  O  O335  1  0.33106172  0.57000386  0.89788906  1
  O  O336  1  0.88042105  0.11615045  0.36027916  1
  O  O337  1  0.87032284  0.12688017  0.86362072  1
  O  O338  1  0.87638756  0.60864092  0.35228950  1
  O  O339  1  0.86056115  0.62614705  0.87856565  1
  O  O340  1  0.12829228  0.37718702  0.11915697  1
  O  O341  1  0.14891416  0.36542438  0.61920282  1
  O  O342  1  0.14242195  0.88016416  0.12663238  1
  O  O343  1  0.13233002  0.89130625  0.61788584  1
  O  O344  1  0.64715247  0.38206510  0.11841978  1
  O  O345  1  0.61999868  0.39235525  0.64066949  1
  O  O346  1  0.62793880  0.86152559  0.14938061  1
  O  O347  1  0.61981491  0.89026322  0.64152606  1
  O  O348  1  0.12710368  0.25657912  0.23651355  1
  O  O349  1  0.10454023  0.25905697  0.75029524  1
  O  O350  1  0.13386234  0.73811618  0.26337971  1
  O  O351  1  0.14263950  0.74975063  0.76314691  1
  O  O352  1  0.67731577  0.23925333  0.32786880  1
  O  O353  1  0.61159502  0.26041335  0.75027726  1
  O  O354  1  0.62884691  0.74643971  0.25817254  1
  O  O355  1  0.59687354  0.76697136  0.75447583  1
  O  O356  1  0.36267948  0.23501595  0.24427752  1
  O  O357  1  0.38478573  0.24638823  0.74076360  1
  O  O358  1  0.36572381  0.71850134  0.23358964  1
  O  O359  1  0.37333977  0.77365431  0.73380132  1
  O  O360  1  0.87655928  0.23331136  0.24144769  1
  O  O361  1  0.87787904  0.24410230  0.75499902  1
  O  O362  1  0.86771446  0.73276770  0.24556688  1
  O  O363  1  0.92203073  0.80928880  0.70601386  1
  O  O364  1  0.37155387  0.49220598  0.48461801  1
  O  O365  1  0.38578333  0.48145021  1.01176134  1
  O  O366  1  0.36865514  0.99132414  0.49683406  1
  O  O367  1  0.39075983  0.99510928  1.00871847  1
  O  O368  1  0.89603361  0.50590563  0.47267434  1
  O  O369  1  0.88347319  0.50003198  0.99277492  1
  O  O370  1  0.88109987  1.01075589  0.48863486  1
  O  O371  1  0.89913502  1.01002696  0.98495204  1
  O  O372  1  0.11673422  -0.00476468  -0.00795043  1
  O  O373  1  0.11002170  0.01349552  0.50791559  1
  O  O374  1  0.11698941  0.50730121  0.00224539  1
  O  O375  1  0.12446327  0.50254338  0.48578522  1
  O  O376  1  0.55636634  -0.00403683  0.08948241  1
  O  O377  1  0.63899663  -0.00799548  0.51606569  1
  O  O378  1  0.62937798  0.50680077  0.01426464  1
  O  O379  1  0.60225547  0.50807693  0.50610609  1
  O  O380  1  0.36821482  0.35850266  0.11042388  1
  O  O381  1  0.36883777  0.36360258  0.61075857  1
  O  O382  1  0.36598440  0.87309152  0.13521282  1
  O  O383  1  0.36006364  0.88211251  0.61227715  1
  O  O384  1  0.87172303  0.35653446  0.12294634  1
  O  O385  1  0.85790739  0.39520238  0.63933642  1
  O  O386  1  0.85792035  0.90750406  0.11578229  1
  O  O387  1  0.88645332  0.85099194  0.64964300  1
  O  O388  1  0.12919737  0.12405819  0.38097848  1
  O  O389  1  0.12655645  0.12678065  0.88480575  1
  O  O390  1  0.13370823  0.62513293  0.38989971  1
  O  O391  1  0.12215635  0.61374740  0.88439455  1
  O  O392  1  0.64147360  0.17494897  0.35211738  1
  O  O393  1  0.64075458  0.13528094  0.86886322  1
  O  O394  1  0.64118424  0.61052176  0.35479312  1
  O  O395  1  0.61573678  0.63078872  0.89044134  1
