# generated using pymatgen
data_V35Zn35O128
_symmetry_space_group_name_H-M   'P 1'
_cell_length_a   16.80942251
_cell_length_b   16.93560116
_cell_length_c   16.90700659
_cell_angle_alpha   89.85076100
_cell_angle_beta   89.67110101
_cell_angle_gamma   88.67341409
_symmetry_Int_Tables_number   1
_chemical_formula_structural   V35Zn35O128
_chemical_formula_sum   'V70 Zn70 O256'
_cell_volume   4811.66332833
_cell_formula_units_Z   2
loop_
 _symmetry_equiv_pos_site_id
 _symmetry_equiv_pos_as_xyz
  1  'x, y, z'
loop_
 _atom_site_type_symbol
 _atom_site_label
 _atom_site_symmetry_multiplicity
 _atom_site_fract_x
 _atom_site_fract_y
 _atom_site_fract_z
 _atom_site_occupancy
  V  V0  1  0.62244974  0.37290408  0.24079447  1
  V  V1  1  0.22977954  0.38631239  0.62807257  1
  V  V2  1  -0.01099261  0.13270520  0.12270046  1
  V  V3  1  0.35849989  0.12807592  0.26270992  1
  V  V4  1  0.49854304  0.24130885  0.25607903  1
  V  V5  1  0.72372303  0.53243613  0.73844595  1
  V  V6  1  0.64185560  0.36366396  0.74612675  1
  V  V7  1  0.25067104  0.00115395  0.26159814  1
  V  V8  1  0.49249424  0.09653916  0.61306605  1
  V  V9  1  0.37476857  0.24559729  0.11847468  1
  V  V10  1  0.86418137  0.39312292  0.01617891  1
  V  V11  1  0.61865790  0.24780847  0.87854300  1
  V  V12  1  0.75198924  -0.00964045  0.25289913  1
  V  V13  1  0.12559893  0.00753484  0.12324440  1
  V  V14  1  0.01520960  0.76158385  0.73633390  1
  V  V15  1  0.13071569  0.87312912  0.25175023  1
  V  V16  1  0.23688111  0.50211594  0.76091493  1
  V  V17  1  0.26110419  0.61683826  0.37849840  1
  V  V18  1  0.74865389  0.61373043  0.37795065  1
  V  V19  1  0.87906082  0.60701974  0.24731996  1
  V  V20  1  0.38081462  0.38534418  0.50304316  1
  V  V21  1  0.52428326  0.80331430  0.74043907  1
  V  V22  1  -0.00045703  0.24269956  0.26282734  1
  V  V23  1  0.12884364  0.74713085  0.37601263  1
  V  V24  1  0.24314683  0.73295405  -0.00079752  1
  V  V25  1  0.86418268  0.34517186  0.49838527  1
  V  V26  1  0.60645515  0.11988885  0.01134182  1
  V  V27  1  0.25289885  0.75459676  0.51353517  1
  V  V28  1  0.75516122  0.24928130  0.02007112  1
  V  V29  1  0.88683507  0.63020306  0.75325758  1
  V  V30  1  0.39016229  0.25338017  0.62970757  1
  V  V31  1  0.50592148  0.74380305  0.25506498  1
  V  V32  1  0.01767995  0.13032330  0.63123434  1
  V  V33  1  0.62565949  0.50920804  0.11793806  1
  V  V34  1  0.51553996  0.52624194  0.51446861  1
  V  V35  1  0.20437749  0.92763622  0.70941191  1
  V  V36  1  0.00852605  0.26303954  0.76047848  1
  V  V37  1  0.38477652  0.74905025  0.11465268  1
  V  V38  1  0.63345581  0.74612049  0.88502847  1
  V  V39  1  0.00182144  -0.00200826  0.51224598  1
  V  V40  1  0.60868876  -0.01204911  0.12341997  1
  V  V41  1  0.87008256  0.13328987  0.74325707  1
  V  V42  1  0.49493066  0.88286884  0.91013963  1
  V  V43  1  0.13910518  0.12640822  0.47889913  1
  V  V44  1  0.38995687  0.60867607  0.73999999  1
  V  V45  1  0.12144043  0.36761456  0.25364188  1
  V  V46  1  -0.00387791  0.88319501  0.38291359  1
  V  V47  1  0.11314568  0.60705486  0.50340778  1
  V  V48  1  0.85648142  0.76535275  0.62271137  1
  V  V49  1  0.74600179  -0.00759425  0.74347966  1
  V  V50  1  0.74763297  0.77685507  0.48309309  1
  V  V51  1  0.24192308  0.50097151  0.24926669  1
  V  V52  1  0.49445415  0.37629233  0.87205015  1
  V  V53  1  0.12880162  0.72474512  0.87702265  1
  V  V54  1  0.38625619  0.61446147  0.24635625  1
  V  V55  1  0.86655797  0.12174355  0.26504815  1
  V  V56  1  0.87538858  -0.00257621  0.87923948  1
  V  V57  1  -0.00646060  0.74958445  0.24783403  1
  V  V58  1  0.86760258  0.86987316  0.01501168  1
  V  V59  1  0.74919386  0.12373092  0.88621653  1
  V  V60  1  0.49471588  0.50952253  -0.00079328  1
  V  V61  1  0.24511900  0.38073791  0.12921416  1
  V  V62  1  0.25275962  0.87559488  0.11069666  1
  V  V63  1  0.63135291  0.85682999  0.24748929  1
  V  V64  1  0.22206099  0.25703337  -0.00780307  1
  V  V65  1  0.00554049  0.00472001  0.00276438  1
  V  V66  1  0.50441392  0.38665294  0.37915472  1
  V  V67  1  0.36482694  0.11043693  0.75493170  1
  V  V68  1  0.02056736  0.87993443  0.87728249  1
  V  V69  1  -0.01168645  0.39437506  0.37662548  1
  Zn  Zn70  1  0.75527623  0.62780856  0.88615853  1
  Zn  Zn71  1  0.76192695  0.48107059  0.24284987  1
  Zn  Zn72  1  0.24725496  0.25121690  0.49435044  1
  Zn  Zn73  1  0.36831424  0.37839330  -0.00811572  1
  Zn  Zn74  1  0.43498232  -0.07263727  0.42782114  1
  Zn  Zn75  1  1.00200680  0.65492631  0.09480455  1
  Zn  Zn76  1  0.18450413  0.19039983  0.17921085  1
  Zn  Zn77  1  0.19329378  0.20525155  0.68446338  1
  Zn  Zn78  1  0.18960984  0.68480901  0.18600819  1
  Zn  Zn79  1  0.18482960  0.67076311  0.68530917  1
  Zn  Zn80  1  0.67993193  0.17457153  0.18955671  1
  Zn  Zn81  1  0.64269016  0.14167027  0.71672883  1
  Zn  Zn82  1  0.69516092  0.67145286  0.17398125  1
  Zn  Zn83  1  0.65880149  0.70755955  0.67176364  1
  Zn  Zn84  1  0.31348401  0.31402310  0.32149091  1
  Zn  Zn85  1  0.30533201  0.31372155  0.80859894  1
  Zn  Zn86  1  0.31949664  0.80656153  0.31991646  1
  Zn  Zn87  1  0.33390404  0.79114725  0.80539386  1
  Zn  Zn88  1  0.82028721  0.31494060  0.29818766  1
  Zn  Zn89  1  0.82143503  0.31238756  0.83810186  1
  Zn  Zn90  1  0.81295893  0.81672088  0.31838538  1
  Zn  Zn91  1  0.81463011  0.81135790  0.81801431  1
  Zn  Zn92  1  0.19321530  0.42095820  0.42937048  1
  Zn  Zn93  1  0.18577964  0.45445474  0.95019024  1
  Zn  Zn94  1  0.23107119  0.96149196  0.47920885  1
  Zn  Zn95  1  0.31731140  0.95352966  0.86813670  1
  Zn  Zn96  1  0.68938087  0.43922871  0.42929286  1
  Zn  Zn97  1  0.69991400  0.44733127  0.93764522  1
  Zn  Zn98  1  0.64259130  0.94772641  0.41540178  1
  Zn  Zn99  1  0.68363269  0.93550692  0.93805364  1
  Zn  Zn100  1  0.29909083  0.06921478  0.05313196  1
  Zn  Zn101  1  0.34706210  0.07635774  0.52999809  1
  Zn  Zn102  1  0.32179622  0.56133389  0.06631767  1
  Zn  Zn103  1  0.31938432  0.56143483  0.57028603  1
  Zn  Zn104  1  0.80682037  0.05483507  0.07199736  1
  Zn  Zn105  1  0.81575636  0.06102431  0.56344308  1
  Zn  Zn106  1  0.86411618  0.57842712  0.04486886  1
  Zn  Zn107  1  0.78089946  0.59314424  0.58946966  1
  Zn  Zn108  1  0.43982104  0.43202618  0.18035095  1
  Zn  Zn109  1  0.45163952  0.44180207  0.68955754  1
  Zn  Zn110  1  0.42433878  0.92177496  0.21873995  1
  Zn  Zn111  1  0.40813075  0.92633937  0.68434804  1
  Zn  Zn112  1  0.93049662  0.41398420  0.17083151  1
  Zn  Zn113  1  0.89964184  0.42799457  0.69056938  1
  Zn  Zn114  1  0.93887810  0.93873810  0.19087549  1
  Zn  Zn115  1  0.93778861  0.93895476  0.69061586  1
  Zn  Zn116  1  0.06388854  0.06072321  0.31217712  1
  Zn  Zn117  1  0.06403107  0.05526562  0.80567280  1
  Zn  Zn118  1  0.06315092  0.56368522  0.32197789  1
  Zn  Zn119  1  0.03771960  0.54667565  0.78382836  1
  Zn  Zn120  1  0.53760635  0.04112830  0.29870496  1
  Zn  Zn121  1  0.53306958  0.01570980  0.78290418  1
  Zn  Zn122  1  0.56961019  0.56017548  0.31872302  1
  Zn  Zn123  1  0.56682667  0.55895626  0.81856483  1
  Zn  Zn124  1  0.43712747  0.19686659  0.43956402  1
  Zn  Zn125  1  0.42978733  0.18626190  0.93440194  1
  Zn  Zn126  1  0.46377599  0.73026427  0.46894079  1
  Zn  Zn127  1  0.43932487  0.69421731  0.91334967  1
  Zn  Zn128  1  0.93967857  0.17569815  0.44181379  1
  Zn  Zn129  1  0.93595046  0.19466325  0.93697069  1
  Zn  Zn130  1  0.92881461  0.68714195  0.43578241  1
  Zn  Zn131  1  0.94511136  0.69388317  0.93340902  1
  Zn  Zn132  1  0.04898743  0.32873971  0.06745714  1
  Zn  Zn133  1  0.05299399  0.30872059  0.55853242  1
  Zn  Zn134  1  0.06678659  0.82185972  0.05904323  1
  Zn  Zn135  1  0.10017274  0.82726736  0.56077175  1
  Zn  Zn136  1  0.55773026  0.31218405  0.05968142  1
  Zn  Zn137  1  0.57128537  0.30337120  0.56243070  1
  Zn  Zn138  1  0.56950803  0.80691767  0.06378509  1
  Zn  Zn139  1  0.57347911  0.82186372  0.55040498  1
  O  O140  1  0.10918794  0.11407820  0.13579016  1
  O  O141  1  0.11723231  0.12442730  0.63667756  1
  O  O142  1  0.10954479  0.61532124  0.12754381  1
  O  O143  1  0.12436094  0.61649227  0.60338065  1
  O  O144  1  0.61281308  0.11495055  0.11721261  1
  O  O145  1  0.59390444  0.11281560  0.61931436  1
  O  O146  1  0.61121019  0.60765316  0.13129841  1
  O  O147  1  0.68142737  0.59609885  0.65675627  1
  O  O148  1  0.38980885  0.37436451  0.39267549  1
  O  O149  1  0.39163685  0.36623193  0.87064318  1
  O  O150  1  0.38843675  0.88968757  0.32829026  1
  O  O151  1  0.39272904  0.86301242  0.88288977  1
  O  O152  1  0.88351145  0.36722775  0.37553266  1
  O  O153  1  0.88584176  0.35451815  0.92022496  1
  O  O154  1  0.89725791  0.87239156  0.37813265  1
  O  O155  1  0.88383282  0.88952904  0.88203523  1
  O  O156  1  0.23949755  -0.00654087  0.35837049  1
  O  O157  1  0.21373541  0.09325419  0.87811492  1
  O  O158  1  0.25577711  0.51116279  0.36406774  1
  O  O159  1  0.24771366  0.48357937  0.86156460  1
  O  O160  1  0.72549710  0.00132106  0.35023376  1
  O  O161  1  0.75730212  0.00956629  0.87566027  1
  O  O162  1  0.75025231  0.50855790  0.35544406  1
  O  O163  1  0.73734373  0.51464496  0.84931843  1
  O  O164  1  0.25978160  0.49090712  0.13729962  1
  O  O165  1  0.25400464  0.49003605  0.63551944  1
  O  O166  1  0.24291265  0.99452344  0.12976261  1
  O  O167  1  0.25630967  0.98663839  0.62776883  1
  O  O168  1  0.72631760  0.49867990  0.13467574  1
  O  O169  1  0.79073029  0.48337459  0.67997957  1
  O  O170  1  0.72972365  1.01058421  0.14538548  1
  O  O171  1  0.76184722  1.00214512  0.64420458  1
  O  O172  1  -0.00251276  0.36371022  0.25453929  1
  O  O173  1  -0.02562231  0.35917040  0.74871479  1
  O  O174  1  0.00998080  0.87196590  0.26085217  1
  O  O175  1  -0.00078850  0.86732025  0.76391922  1
  O  O176  1  0.49939462  0.36618852  0.26058264  1
  O  O177  1  0.51766935  0.37702119  0.76759003  1
  O  O178  1  0.51794788  0.85108640  0.23582681  1
  O  O179  1  0.53935797  0.90208826  0.73797245  1
  O  O180  1  0.48565349  0.13541740  0.25400273  1
  O  O181  1  0.48020479  0.10680662  0.72892337  1
  O  O182  1  0.49188776  0.62372264  0.25016311  1
  O  O183  1  0.49274495  0.60947123  0.74818024  1
  O  O184  1  0.99091653  0.12472138  0.24422304  1
  O  O185  1  0.99139832  0.12219610  0.74247810  1
  O  O186  1  0.99478696  0.64125507  0.26075080  1
  O  O187  1  0.99910867  0.65549962  0.75540872  1
  O  O188  1  0.37113445  0.25456257  0.01256131  1
  O  O189  1  0.37147785  0.26638764  0.51003404  1
  O  O190  1  0.36525397  0.73967393  0.01086429  1
  O  O191  1  0.35005051  0.75424213  0.48754304  1
  O  O192  1  0.85674330  0.23307308  0.01184062  1
  O  O193  1  0.86569391  0.24411462  0.49419037  1
  O  O194  1  0.88482134  0.77202883  -0.00387794  1
  O  O195  1  0.85967408  0.74780959  0.51317541  1
  O  O196  1  0.12188465  0.22754185  0.50903225  1
  O  O197  1  0.12151940  0.27667211  0.99841642  1
  O  O198  1  0.13356705  0.72931860  0.48864998  1
  O  O199  1  0.13262443  0.74716976  0.99479007  1
  O  O200  1  0.66172856  0.24172119  0.50487433  1
  O  O201  1  0.62876495  0.23631711  0.99996670  1
  O  O202  1  0.65512858  0.74582245  0.51006534  1
  O  O203  1  0.60924696  0.73718792  0.98485874  1
  O  O204  1  0.48009602  0.25781640  0.13752675  1
  O  O205  1  0.49222934  0.23618499  0.61586661  1
  O  O206  1  0.48673415  0.74423370  0.12244619  1
  O  O207  1  0.55379484  0.76294675  0.64560427  1
  O  O208  1  0.99982711  0.23510011  0.13424512  1
  O  O209  1  0.99827179  0.23388058  0.63603104  1
  O  O210  1  1.01617578  0.75748734  0.14402818  1
  O  O211  1  1.02098184  0.76492385  0.63746848  1
  O  O212  1  -0.00046052  0.24240080  0.36338568  1
  O  O213  1  0.00423272  0.23620392  0.85941549  1
  O  O214  1  0.01008038  0.76029253  0.36854326  1
  O  O215  1  0.02072930  0.76248261  0.87771496  1
  O  O216  1  0.49459396  0.25687357  0.36014366  1
  O  O217  1  0.51301929  0.25833885  0.88685282  1
  O  O218  1  0.50759794  0.73771009  0.35195782  1
  O  O219  1  0.50983567  0.77158517  0.85635566  1
  O  O220  1  0.24393337  0.12946915  0.49591253  1
  O  O221  1  0.23128188  0.15945473  1.01748160  1
  O  O222  1  0.25357235  0.62485710  0.48572953  1
  O  O223  1  0.25090476  0.63400039  1.00876326  1
  O  O224  1  0.74007682  0.13300535  0.50423369  1
  O  O225  1  0.74109524  0.12627553  1.00019496  1
  O  O226  1  0.76035684  0.60855708  0.47918558  1
  O  O227  1  0.75828806  0.63785570  1.02122724  1
  O  O228  1  0.24705225  0.37678512  0.01296032  1
  O  O229  1  0.27555676  0.39881218  0.51995741  1
  O  O230  1  0.25065286  0.86200080  0.01222339  1
  O  O231  1  0.21179410  0.85148122  0.50458426  1
  O  O232  1  0.74671664  0.35277438  -0.00330867  1
  O  O233  1  0.76793265  0.37748289  0.48237244  1
  O  O234  1  0.76843895  0.88900161  0.00066306  1
  O  O235  1  0.73757580  0.87441778  0.46758728  1
  O  O236  1  0.13560917  0.49380079  0.25600345  1
  O  O237  1  0.13541770  0.50439815  0.74964483  1
  O  O238  1  0.12985953  0.99184327  0.24183144  1
  O  O239  1  0.14799913  1.00160244  0.75356495  1
  O  O240  1  0.60948405  0.48112223  0.23907978  1
  O  O241  1  0.63109600  0.47565258  0.74899040  1
  O  O242  1  0.62496186  0.97893697  0.23966836  1
  O  O243  1  0.64621594  1.02797810  0.75710751  1
  O  O244  1  0.36605641  0.02306317  0.24234074  1
  O  O245  1  0.36319567  0.00567566  0.76599892  1
  O  O246  1  0.37269979  0.51178034  0.24265115  1
  O  O247  1  0.37255307  0.50486260  0.75122989  1
  O  O248  1  0.86069433  0.00397541  0.25032209  1
  O  O249  1  0.86983550  0.00961436  0.76159059  1
  O  O250  1  0.88270726  0.50308428  0.23718925  1
  O  O251  1  0.92544515  0.53028082  0.74636450  1
  O  O252  1  0.09872246  0.38177455  0.36042036  1
  O  O253  1  0.07154580  0.42191095  0.90441584  1
  O  O254  1  0.12030078  0.86209915  0.36257439  1
  O  O255  1  0.11750480  0.88293580  0.88096811  1
  O  O256  1  0.61044225  0.37331194  0.36188485  1
  O  O257  1  0.62464541  0.35625056  0.87482025  1
  O  O258  1  0.62999519  0.85259240  0.34551796  1
  O  O259  1  0.61001016  0.86474074  0.89383170  1
  O  O260  1  0.36224086  0.14338968  0.13047581  1
  O  O261  1  0.37522838  0.13931208  0.63067996  1
  O  O262  1  0.36673490  0.63867060  0.13979996  1
  O  O263  1  0.37388133  0.63132801  0.64190020  1
  O  O264  1  0.88658959  0.11416910  0.13894281  1
  O  O265  1  0.87853089  0.12471525  0.64121261  1
  O  O266  1  0.89267179  0.63067936  0.14582587  1
  O  O267  1  0.87029618  0.65105530  0.64089482  1
  O  O268  1  0.25319541  0.26574387  0.12137575  1
  O  O269  1  0.26005925  0.27582729  0.61678692  1
  O  O270  1  0.25022323  0.75476812  0.11616329  1
  O  O271  1  0.24533869  0.73614997  0.61179083  1
  O  O272  1  0.73672888  0.24100316  0.11798547  1
  O  O273  1  0.70801437  0.19297679  0.54805501  1
  O  O274  1  0.74298335  0.70142808  0.06482309  1
  O  O275  1  0.75419120  0.77093286  0.62343955  1
  O  O276  1  0.23327628  0.31276004  0.39943483  1
  O  O277  1  0.24782511  0.26671859  0.89431715  1
  O  O278  1  0.24380531  0.73774099  0.37181900  1
  O  O279  1  0.23736329  0.74593049  0.89167473  1
  O  O280  1  0.65938577  0.16626977  0.36790693  1
  O  O281  1  0.74243771  0.23617219  0.89150397  1
  O  O282  1  0.76182201  0.73847029  0.38452829  1
  O  O283  1  0.74025419  0.75195146  0.88244202  1
  O  O284  1  -0.00844919  0.12025266  0.01581469  1
  O  O285  1  0.01260865  0.11709270  0.51438345  1
  O  O286  1  -0.03314449  0.60713345  0.00224675  1
  O  O287  1  0.01474649  0.62585142  0.48153577  1
  O  O288  1  0.50813609  0.12741248  -0.00335880  1
  O  O289  1  0.46546805  0.11286017  0.50989510  1
  O  O290  1  0.48766887  0.60803168  -0.02223850  1
  O  O291  1  0.49646814  0.62453150  0.49713190  1
  O  O292  1  0.50522648  0.36699316  0.48734474  1
  O  O293  1  0.49612676  0.37911527  0.98788711  1
  O  O294  1  0.48859844  0.83939733  0.48373975  1
  O  O295  1  0.49106906  0.87737120  1.00994992  1
  O  O296  1  0.98681877  0.36707016  0.47980029  1
  O  O297  1  0.96906154  0.40960037  1.05578139  1
  O  O298  1  1.01962974  0.88813547  0.49424176  1
  O  O299  1  0.99489645  0.88825144  0.99425767  1
  O  O300  1  0.49895366  0.48945112  0.38149239  1
  O  O301  1  0.51319101  0.48223113  0.88768713  1
  O  O302  1  0.53224337  0.98438933  0.39317311  1
  O  O303  1  0.49910035  0.98171485  0.88570639  1
  O  O304  1  0.98590979  0.49323200  0.37114192  1
  O  O305  1  1.02105943  0.47760063  0.89065019  1
  O  O306  1  1.00877254  0.98745231  0.38337498  1
  O  O307  1  0.99579570  0.99979078  0.88257956  1
  O  O308  1  0.00649849  0.00745040  0.12245378  1
  O  O309  1  0.00399529  0.00717794  0.61937532  1
  O  O310  1  0.12409735  0.53760408  0.09336359  1
  O  O311  1  -0.04158430  0.50869217  0.57793893  1
  O  O312  1  0.51030595  -0.00871402  0.14240398  1
  O  O313  1  0.47267934  -0.00311344  0.61751776  1
  O  O314  1  0.50445291  0.49381407  0.10733762  1
  O  O315  1  0.51274522  0.50306244  0.61282809  1
  O  O316  1  0.24216153  0.38192484  0.24782871  1
  O  O317  1  0.24782451  0.38370388  0.73455634  1
  O  O318  1  0.24112829  0.87928541  0.24065618  1
  O  O319  1  0.25753937  0.88081653  0.79007760  1
  O  O320  1  0.72736721  0.36490535  0.25856129  1
  O  O321  1  0.74193707  0.35608247  0.76527686  1
  O  O322  1  0.74642866  0.87970905  0.24488120  1
  O  O323  1  0.75197308  0.89456236  0.76320680  1
  O  O324  1  0.25173361  0.12062194  0.24761459  1
  O  O325  1  0.26580743  0.13660849  0.73891471  1
  O  O326  1  0.25517598  0.61667020  0.25514066  1
  O  O327  1  0.25536170  0.60492645  0.74903225  1
  O  O328  1  0.76122179  0.12051103  0.25288282  1
  O  O329  1  0.76163251  0.12392137  0.76199112  1
  O  O330  1  0.77185159  0.62819660  0.24826665  1
  O  O331  1  0.77690120  0.62649398  0.75966806  1
  O  O332  1  0.36435063  0.13882922  0.36136270  1
  O  O333  1  0.37776508  0.14298172  0.84896851  1
  O  O334  1  0.36289958  0.63032192  0.35554570  1
  O  O335  1  0.36923345  0.68021437  0.82142503  1
  O  O336  1  0.88100036  0.11509050  0.36342977  1
  O  O337  1  0.86847658  0.11481670  0.87395057  1
  O  O338  1  0.87024418  0.62678234  0.35585389  1
  O  O339  1  0.87577893  0.64318931  0.85937708  1
  O  O340  1  0.13185676  0.37836525  0.14103805  1
  O  O341  1  0.13181496  0.37929937  0.60796168  1
  O  O342  1  0.13184419  0.88574984  0.13238090  1
  O  O343  1  0.14056427  0.86993137  0.66010221  1
  O  O344  1  0.61458484  0.37401205  0.13785137  1
  O  O345  1  0.63063550  0.34675801  0.64850572  1
  O  O346  1  0.63094464  0.88306918  0.12291692  1
  O  O347  1  0.62414595  0.93090942  0.58622427  1
  O  O348  1  0.11500176  0.25888005  0.24563463  1
  O  O349  1  0.10930283  0.25953502  0.74422212  1
  O  O350  1  0.12247244  0.75456833  0.25658649  1
  O  O351  1  0.12372441  0.74195403  0.76544158  1
  O  O352  1  0.60387829  0.25320072  0.24053765  1
  O  O353  1  0.62785668  0.24325400  0.77236773  1
  O  O354  1  0.62150896  0.74968220  0.22347839  1
  O  O355  1  0.62641125  0.76273319  0.77016591  1
  O  O356  1  0.37338367  0.24391866  0.24497782  1
  O  O357  1  0.37539376  0.25908867  0.73027012  1
  O  O358  1  0.39136360  0.73857260  0.24101741  1
  O  O359  1  0.41813536  0.81220274  0.71993257  1
  O  O360  1  0.88104524  0.23078435  0.25264612  1
  O  O361  1  0.87904003  0.23347632  0.76202940  1
  O  O362  1  0.89307110  0.76078513  0.25127234  1
  O  O363  1  0.88990486  0.75436896  0.74068031  1
  O  O364  1  0.39947017  0.48979775  0.50830389  1
  O  O365  1  0.38742412  0.49335703  1.00249020  1
  O  O366  1  0.34468242  0.97494328  0.48522615  1
  O  O367  1  0.32004818  1.02156759  0.95554187  1
  O  O368  1  0.90042312  0.52088159  0.53395164  1
  O  O369  1  0.82400447  0.48640671  0.99714547  1
  O  O370  1  0.90129335  1.00972992  0.50197817  1
  O  O371  1  0.88549005  0.99858578  0.99669589  1
  O  O372  1  0.11118163  -0.00009978  0.01326604  1
  O  O373  1  0.12414460  0.01949281  0.50042358  1
  O  O374  1  0.12154273  0.53831202  0.01536361  1
  O  O375  1  0.13356257  0.50948282  0.47926766  1
  O  O376  1  0.62530536  0.01035855  0.01297689  1
  O  O377  1  0.63397401  -0.01639210  0.53351529  1
  O  O378  1  0.61716884  0.49449450  0.01006315  1
  O  O379  1  0.61236550  0.50308479  0.48772719  1
  O  O380  1  0.36077075  0.36377899  0.12941626  1
  O  O381  1  0.39814611  0.36704302  0.61420790  1
  O  O382  1  0.36447958  0.85524629  0.13624788  1
  O  O383  1  0.29797856  0.91336905  0.63746522  1
  O  O384  1  0.84034950  0.36869678  0.11775760  1
  O  O385  1  0.88235997  0.36832996  0.59492342  1
  O  O386  1  0.88143251  0.88138036  0.11463603  1
  O  O387  1  0.88600571  0.86139467  0.62630931  1
  O  O388  1  0.12452429  0.12817451  0.37971538  1
  O  O389  1  0.14343407  0.11756238  0.88207036  1
  O  O390  1  0.14086852  0.63139605  0.37390271  1
  O  O391  1  0.11941214  0.62926964  0.87908289  1
  O  O392  1  0.60745287  0.12538977  0.39824140  1
  O  O393  1  0.63236545  0.13375458  0.89202725  1
  O  O394  1  0.64909037  0.62965674  0.35685948  1
  O  O395  1  0.63046128  0.64006372  0.86583384  1
