# generated using pymatgen
data_V35Zn35O128
_symmetry_space_group_name_H-M   'P 1'
_cell_length_a   16.83715675
_cell_length_b   16.84249273
_cell_length_c   16.83914785
_cell_angle_alpha   89.96752067
_cell_angle_beta   89.98290007
_cell_angle_gamma   90.00300487
_symmetry_Int_Tables_number   1
_chemical_formula_structural   V35Zn35O128
_chemical_formula_sum   'V70 Zn70 O256'
_cell_volume   4775.23934224
_cell_formula_units_Z   2
loop_
 _symmetry_equiv_pos_site_id
 _symmetry_equiv_pos_as_xyz
  1  'x, y, z'
loop_
 _atom_site_type_symbol
 _atom_site_label
 _atom_site_symmetry_multiplicity
 _atom_site_fract_x
 _atom_site_fract_y
 _atom_site_fract_z
 _atom_site_occupancy
  V  V0  1  0.61844479  -0.01041249  0.62304713  1
  V  V1  1  0.14242456  0.62077703  0.50573320  1
  V  V2  1  -0.02115962  0.87330138  0.37887508  1
  V  V3  1  0.37159811  0.12128036  0.75387803  1
  V  V4  1  0.88497863  0.60553614  0.75897620  1
  V  V5  1  -0.00407308  0.74963188  0.24793600  1
  V  V6  1  -0.00339901  0.37810342  0.38876087  1
  V  V7  1  0.73800399  0.62720888  0.87163841  1
  V  V8  1  0.00209510  0.25726233  0.23867210  1
  V  V9  1  0.87481115  0.50270912  0.39491166  1
  V  V10  1  0.49613695  0.25634938  0.23822066  1
  V  V11  1  0.74410649  -0.00568527  0.23118762  1
  V  V12  1  0.75311229  0.38393716  0.62556338  1
  V  V13  1  0.50568239  0.25266866  0.73605542  1
  V  V14  1  0.81632998  0.30921383  0.16909304  1
  V  V15  1  0.77398610  0.87654815  0.63722573  1
  V  V16  1  0.49723388  0.62083523  0.12890417  1
  V  V17  1  0.37380521  0.89263475  0.49437278  1
  V  V18  1  0.25485476  0.10341330  0.36841366  1
  V  V19  1  0.34983442  0.24696331  0.61674708  1
  V  V20  1  0.01256806  0.51181641  0.00947241  1
  V  V21  1  0.26714562  0.62334067  0.87689615  1
  V  V22  1  0.76063824  0.25775232  0.49740569  1
  V  V23  1  0.37458783  0.49992482  0.36211109  1
  V  V24  1  0.62789301  0.26287476  0.87419275  1
  V  V25  1  0.75603086  0.11384797  0.37739132  1
  V  V26  1  0.12089028  0.74259024  0.85792207  1
  V  V27  1  0.50088609  0.10598920  0.12008432  1
  V  V28  1  0.73666499  0.62678290  0.38633385  1
  V  V29  1  0.27674361  0.34746710  0.10254817  1
  V  V30  1  0.13299551  -0.01456841  0.62865736  1
  V  V31  1  -0.00264813  0.62205000  0.61707335  1
  V  V32  1  0.23289601  0.74627921  0.01130332  1
  V  V33  1  0.61382715  0.12184794  0.50476789  1
  V  V34  1  0.37348775  0.75517367  0.61130959  1
  V  V35  1  0.49580232  0.74572818  0.26516331  1
  V  V36  1  0.38187069  0.75401625  0.12288161  1
  V  V37  1  0.02290596  0.39014011  0.87512401  1
  V  V38  1  0.25398537  0.61860395  0.36126766  1
  V  V39  1  0.86979107  0.61699277  0.24656106  1
  V  V40  1  -0.00191379  0.12586109  0.63505186  1
  V  V41  1  -0.00936381  -0.00239225  0.49060316  1
  V  V42  1  0.76603008  0.02040472  0.75012436  1
  V  V43  1  0.50998412  0.50562183  0.51703900  1
  V  V44  1  0.13127290  0.12370824  0.49357859  1
  V  V45  1  0.62051272  0.25397695  0.36830150  1
  V  V46  1  0.00679450  0.27147665  0.75543692  1
  V  V47  1  0.85930801  0.75865838  0.11879752  1
  V  V48  1  0.63727993  0.49085049  0.13370549  1
  V  V49  1  0.37411340  0.11346256  0.24713400  1
  V  V50  1  0.12691239  0.00845709  0.13483985  1
  V  V51  1  0.36418934  0.37688687  0.50728261  1
  V  V52  1  0.62337416  0.11948332  -0.00554965  1
  V  V53  1  0.49326622  0.49571607  -0.00599742  1
  V  V54  1  0.76226558  0.24903790  -0.00895531  1
  V  V55  1  -0.00824521  0.87373720  0.89328335  1
  V  V56  1  0.62579507  0.86352963  0.24230095  1
  V  V57  1  0.48195407  0.36909610  0.87882825  1
  V  V58  1  -0.01482447  0.75557857  0.74469756  1
  V  V59  1  0.26021182  0.48819841  0.76216831  1
  V  V60  1  0.24315906  0.87481757  0.14409956  1
  V  V61  1  -0.00413006  0.00365355  0.01303349  1
  V  V62  1  0.13178946  0.75762674  0.37991746  1
  V  V63  1  0.73717969  0.49143618  0.75214065  1
  V  V64  1  0.74796189  0.76210071  0.50419203  1
  V  V65  1  0.86946870  0.38850745  -0.01546229  1
  V  V66  1  0.13561145  0.26061780  0.37092147  1
  V  V67  1  0.87735224  0.11719633  0.23768250  1
  V  V68  1  0.13406474  0.48752620  0.63532753  1
  V  V69  1  0.49743661  0.86923150  0.87643054  1
  Zn  Zn70  1  0.23769569  0.00927411  0.75964693  1
  Zn  Zn71  1  0.62761933  0.63206651  0.00071217  1
  Zn  Zn72  1  0.17917514  0.45362163  0.18158288  1
  Zn  Zn73  1  0.88306817  0.25433520  0.62161567  1
  Zn  Zn74  1  0.50748628  0.90058841  0.39037556  1
  Zn  Zn75  1  0.50272264  0.38152666  0.37254553  1
  Zn  Zn76  1  0.18784194  0.19630654  0.18427510  1
  Zn  Zn77  1  0.18122386  0.18155015  0.69081536  1
  Zn  Zn78  1  0.18292453  0.68781442  0.19412966  1
  Zn  Zn79  1  0.21503765  0.67849979  0.68093092  1
  Zn  Zn80  1  0.68263324  0.18053076  0.18316714  1
  Zn  Zn81  1  0.69113604  0.19319835  0.68053646  1
  Zn  Zn82  1  0.68569088  0.67740332  0.19295430  1
  Zn  Zn83  1  0.72204386  0.71124909  0.71509592  1
  Zn  Zn84  1  0.31567060  0.32081436  0.29653676  1
  Zn  Zn85  1  0.31008723  0.30042558  0.81489816  1
  Zn  Zn86  1  0.31971981  0.81202016  0.32375859  1
  Zn  Zn87  1  0.28924439  0.83691692  0.83325055  1
  Zn  Zn88  1  0.81760264  0.31232388  0.33098164  1
  Zn  Zn89  1  0.82411856  0.30274612  0.80864704  1
  Zn  Zn90  1  0.80528398  0.80682039  0.31352647  1
  Zn  Zn91  1  0.78771229  0.82860873  0.85487004  1
  Zn  Zn92  1  0.18608904  0.44101977  0.43890853  1
  Zn  Zn93  1  0.20971380  0.45177955  0.97279884  1
  Zn  Zn94  1  0.18894274  0.93612015  0.44359326  1
  Zn  Zn95  1  0.18131616  0.93145458  0.94162830  1
  Zn  Zn96  1  0.68885994  0.44028053  0.43283668  1
  Zn  Zn97  1  0.68431352  0.44352999  0.94509145  1
  Zn  Zn98  1  0.68333538  0.93213394  0.43626307  1
  Zn  Zn99  1  0.68978535  0.94878180  0.92496763  1
  Zn  Zn100  1  0.30291201  0.06829787  0.07063962  1
  Zn  Zn101  1  0.31394822  0.06221979  0.56401432  1
  Zn  Zn102  1  0.31388383  0.56433659  0.06757564  1
  Zn  Zn103  1  0.32243866  0.56140804  0.57440194  1
  Zn  Zn104  1  0.81674395  0.06646680  0.05179846  1
  Zn  Zn105  1  0.81238650  0.06292599  0.56307895  1
  Zn  Zn106  1  0.81522476  0.57132998  0.05819114  1
  Zn  Zn107  1  0.81077903  0.57090142  0.56523180  1
  Zn  Zn108  1  0.43216584  0.43188836  0.18000974  1
  Zn  Zn109  1  0.43567510  0.43263003  0.68965519  1
  Zn  Zn110  1  0.43678199  0.92943518  0.19234435  1
  Zn  Zn111  1  0.43232330  0.93727568  0.67640765  1
  Zn  Zn112  1  0.94322125  0.44010129  0.18904505  1
  Zn  Zn113  1  0.93961818  0.43658499  0.67338030  1
  Zn  Zn114  1  0.93651150  0.93336805  0.18983788  1
  Zn  Zn115  1  0.94659622  0.94059082  0.68639499  1
  Zn  Zn116  1  0.06106922  0.06498514  0.31016147  1
  Zn  Zn117  1  -0.06553376  0.06125635  0.82903000  1
  Zn  Zn118  1  0.05515536  0.56934217  0.32043706  1
  Zn  Zn119  1  0.07274719  0.56346572  0.81716286  1
  Zn  Zn120  1  0.56869205  0.06566745  0.30906617  1
  Zn  Zn121  1  0.58740966  0.09380381  0.78535111  1
  Zn  Zn122  1  0.55867334  0.55687961  0.31204514  1
  Zn  Zn123  1  0.56095257  0.54858640  0.81103192  1
  Zn  Zn124  1  0.43219282  0.18534184  0.43686886  1
  Zn  Zn125  1  0.43024441  0.06419267  0.93890459  1
  Zn  Zn126  1  0.43631714  0.68304382  0.44988328  1
  Zn  Zn127  1  0.43655543  0.68594556  0.94863824  1
  Zn  Zn128  1  0.94267403  0.18471169  0.42773334  1
  Zn  Zn129  1  0.98772040  0.19339215  0.94661649  1
  Zn  Zn130  1  0.92954328  0.69139968  0.44303233  1
  Zn  Zn131  1  0.93256008  0.68688425  0.93650874  1
  Zn  Zn132  1  0.07545968  0.31932030  0.05576538  1
  Zn  Zn133  1  0.07244073  0.30665536  0.55986935  1
  Zn  Zn134  1  0.06292465  0.81572029  0.07063240  1
  Zn  Zn135  1  0.05961795  0.80708543  0.55967040  1
  Zn  Zn136  1  0.56601049  0.31268231  0.06118252  1
  Zn  Zn137  1  0.56795754  0.32659590  0.55198385  1
  Zn  Zn138  1  0.68907646  0.81366052  0.05177984  1
  Zn  Zn139  1  0.55976387  0.80246347  0.56426713  1
  O  O140  1  0.14135542  0.10804980  0.12445243  1
  O  O141  1  0.11514768  0.12152834  0.60938368  1
  O  O142  1  0.11465196  0.59803373  0.16333539  1
  O  O143  1  0.12775488  0.62654489  0.61537934  1
  O  O144  1  0.61026012  0.12968071  0.11000216  1
  O  O145  1  0.63090897  0.12418115  0.60784941  1
  O  O146  1  0.61145330  0.62001913  0.12322183  1
  O  O147  1  0.57098302  0.64286125  0.68583734  1
  O  O148  1  0.37190083  0.38887985  0.38197298  1
  O  O149  1  0.38401033  0.36000355  0.88433217  1
  O  O150  1  0.38915026  0.87368352  0.38601211  1
  O  O151  1  0.39355708  0.85779179  0.89155721  1
  O  O152  1  0.88499022  0.38978026  0.37787601  1
  O  O153  1  0.87549704  0.37786219  0.88347540  1
  O  O154  1  0.88036453  0.87168561  0.38013763  1
  O  O155  1  0.89425248  0.86021105  0.87234009  1
  O  O156  1  0.24422888  0.00585383  0.36331927  1
  O  O157  1  0.16254442  0.08190390  0.89051838  1
  O  O158  1  0.25763881  0.50832915  0.37423078  1
  O  O159  1  0.25349423  0.51365128  0.87672052  1
  O  O160  1  0.75042734  0.01292962  0.37242717  1
  O  O161  1  0.74742400  0.00854458  0.84902078  1
  O  O162  1  0.76630824  0.50792687  0.38031993  1
  O  O163  1  0.74594794  0.50636382  0.85887665  1
  O  O164  1  0.24912548  0.47734454  0.08893674  1
  O  O165  1  0.24217337  0.50320848  0.64296541  1
  O  O166  1  0.24101342  0.98210649  0.12516466  1
  O  O167  1  0.23631785  1.00522133  0.62781666  1
  O  O168  1  0.73561643  0.51366501  0.11872063  1
  O  O169  1  0.75738754  0.49034006  0.63120358  1
  O  O170  1  0.75446918  1.00133408  0.13264083  1
  O  O171  1  0.75198514  0.99087258  0.62925260  1
  O  O172  1  -0.00595040  0.36229944  0.25984997  1
  O  O173  1  0.00663534  0.37874215  0.75568211  1
  O  O174  1  -0.00742867  0.86163590  0.26848774  1
  O  O175  1  -0.00332294  0.85818169  0.75182328  1
  O  O176  1  0.49484155  0.36021812  0.25347632  1
  O  O177  1  0.49213449  0.36290349  0.76509695  1
  O  O178  1  0.51022315  0.85890610  0.24833820  1
  O  O179  1  0.47580644  0.87390884  0.77221085  1
  O  O180  1  0.49562151  0.13100484  0.23734003  1
  O  O181  1  0.49158801  0.14542110  0.74497930  1
  O  O182  1  0.50674828  0.63552478  0.23868253  1
  O  O183  1  0.51011968  0.62056700  0.73290818  1
  O  O184  1  0.98171243  0.13906933  0.26159565  1
  O  O185  1  0.99872243  0.11747665  0.73424048  1
  O  O186  1  0.98073040  0.64155701  0.26710192  1
  O  O187  1  0.99401842  0.62737833  0.74881829  1
  O  O188  1  0.28868341  0.20094656  -0.05037194  1
  O  O189  1  0.37725070  0.26015704  0.50883507  1
  O  O190  1  0.36652837  0.74557994  0.01975641  1
  O  O191  1  0.36572134  0.75276970  0.50758990  1
  O  O192  1  0.86243534  0.26095982  -0.00180210  1
  O  O193  1  0.86249159  0.24604313  0.48858389  1
  O  O194  1  0.87880901  0.74239375  0.02091799  1
  O  O195  1  0.85103181  0.73500347  0.51019116  1
  O  O196  1  0.12246347  0.23818432  0.47939978  1
  O  O197  1  0.08249944  0.23727475  0.98279383  1
  O  O198  1  0.11961208  0.73455754  0.48736621  1
  O  O199  1  0.13243661  0.73569577  1.01970189  1
  O  O200  1  0.63495307  0.24012167  0.48899173  1
  O  O201  1  0.63367838  0.24889019  0.98725715  1
  O  O202  1  0.64604570  0.74452677  0.51600578  1
  O  O203  1  0.61506078  0.74547849  0.99938468  1
  O  O204  1  0.50534345  0.24655499  0.13594623  1
  O  O205  1  0.51196605  0.26463567  0.63739358  1
  O  O206  1  0.48823242  0.73852824  0.12910828  1
  O  O207  1  0.47271382  0.74667290  0.62601077  1
  O  O208  1  1.00657353  0.25684192  0.14059547  1
  O  O209  1  1.00605386  0.23946249  0.62727153  1
  O  O210  1  0.99519880  0.75349029  0.14591319  1
  O  O211  1  1.00972973  0.73436907  0.63785891  1
  O  O212  1  0.00430995  0.26395884  0.36825893  1
  O  O213  1  -0.00287863  0.27581973  0.86062277  1
  O  O214  1  0.00241388  0.76132225  0.37951367  1
  O  O215  1  0.00377520  0.74642860  0.86169845  1
  O  O216  1  0.51285965  0.24554708  0.37005185  1
  O  O217  1  0.51412047  0.26405634  0.87210486  1
  O  O218  1  0.49600945  0.73480149  0.36396119  1
  O  O219  1  0.50411605  0.76450441  0.87859087  1
  O  O220  1  0.24331707  0.11784197  0.48066428  1
  O  O221  1  0.24618560  0.15186380  0.99333337  1
  O  O222  1  0.24267051  0.62446024  0.49500141  1
  O  O223  1  0.25783672  0.63665078  0.99037217  1
  O  O224  1  0.74932045  0.13231196  0.48793471  1
  O  O225  1  0.73926158  0.14154849  1.00497902  1
  O  O226  1  0.74324846  0.62321956  0.49110139  1
  O  O227  1  0.75273542  0.62895199  0.97417591  1
  O  O228  1  0.25381632  0.35077106  0.00044631  1
  O  O229  1  0.26427583  0.37886290  0.49690949  1
  O  O230  1  0.24439655  0.85072177  0.01426530  1
  O  O231  1  0.27065165  0.87628626  0.49000058  1
  O  O232  1  0.76050426  0.36741165  -0.00610172  1
  O  O233  1  0.75164937  0.36280476  0.49960591  1
  O  O234  1  0.73693878  0.85506651  -0.04299466  1
  O  O235  1  0.75174954  0.86806169  0.50553312  1
  O  O236  1  0.11845572  0.54097532  0.22413449  1
  O  O237  1  0.13605732  0.50144845  0.74202072  1
  O  O238  1  0.11664212  0.99957597  0.23637502  1
  O  O239  1  0.11897290  0.99849562  0.72792777  1
  O  O240  1  0.61861590  0.49980225  0.23423288  1
  O  O241  1  0.63884430  0.49516860  0.74193205  1
  O  O242  1  0.64058886  1.00109478  0.24339534  1
  O  O243  1  0.64363336  1.01362073  0.72975079  1
  O  O244  1  0.38112114  0.01388400  0.25062573  1
  O  O245  1  0.37527668  0.01981066  0.73258143  1
  O  O246  1  0.38447719  0.50022459  0.26366148  1
  O  O247  1  0.35981620  0.49884436  0.74571899  1
  O  O248  1  0.86722701  0.01116850  0.24757840  1
  O  O249  1  0.87435280  0.00528780  0.74940948  1
  O  O250  1  0.88101923  0.51452898  0.25460136  1
  O  O251  1  0.88012587  0.50415976  0.75128301  1
  O  O252  1  0.11627121  0.36848925  0.37640587  1
  O  O253  1  0.11917950  0.38373516  0.88368712  1
  O  O254  1  0.12578399  0.85817940  0.38128105  1
  O  O255  1  0.10679782  0.84734497  0.88772350  1
  O  O256  1  0.62634904  0.35756562  0.37530859  1
  O  O257  1  0.62684691  0.36520083  0.87419225  1
  O  O258  1  0.61810466  0.88592835  0.35592089  1
  O  O259  1  0.59929428  0.87618605  0.85176932  1
  O  O260  1  0.38625368  0.12264847  0.13576097  1
  O  O261  1  0.37337746  0.14459554  0.62304221  1
  O  O262  1  0.38845812  0.62989810  0.12787012  1
  O  O263  1  0.32753806  0.65856884  0.63299045  1
  O  O264  1  0.87050451  0.12929215  0.13890986  1
  O  O265  1  0.89723120  0.12916199  0.60853411  1
  O  O266  1  0.86826141  0.63451182  0.14260669  1
  O  O267  1  0.89305669  0.61466073  0.63554333  1
  O  O268  1  0.26853290  0.24667687  0.12575168  1
  O  O269  1  0.25065526  0.24939336  0.62191882  1
  O  O270  1  0.25690456  0.74784074  0.12684543  1
  O  O271  1  0.26478752  0.78968372  0.67578355  1
  O  O272  1  0.74630908  0.25362144  0.11313346  1
  O  O273  1  0.75866121  0.25327124  0.60815697  1
  O  O274  1  0.75366050  0.74661407  0.12493317  1
  O  O275  1  0.75337248  0.77070203  0.62489417  1
  O  O276  1  0.23593757  0.25902891  0.36153287  1
  O  O277  1  0.24706676  0.23091324  0.88856067  1
  O  O278  1  0.23705567  0.73668716  0.36911281  1
  O  O279  1  0.23548320  0.74637090  0.88895588  1
  O  O280  1  0.74048868  0.24353368  0.38089323  1
  O  O281  1  0.74246292  0.25230014  0.88083975  1
  O  O282  1  0.74983187  0.73813021  0.38922949  1
  O  O283  1  0.74172845  0.72633997  0.83116775  1
  O  O284  1  0.00670521  0.10186226  0.01690366  1
  O  O285  1  0.01302477  0.11215329  0.48563187  1
  O  O286  1  -0.01377532  0.60890373  -0.00279907  1
  O  O287  1  0.00564144  0.62851482  0.51466019  1
  O  O288  1  0.50589416  0.11825551  0.00945455  1
  O  O289  1  0.51532076  0.12983423  0.49544344  1
  O  O290  1  0.50299365  0.61555718  0.00889069  1
  O  O291  1  0.49328467  0.60637277  0.51010211  1
  O  O292  1  0.48761429  0.38256939  0.49126646  1
  O  O293  1  0.50537499  0.38423903  0.98943069  1
  O  O294  1  0.48951376  0.86507225  0.49923556  1
  O  O295  1  0.51503940  0.87519687  0.97935359  1
  O  O296  1  1.00236299  0.36939076  0.48783918  1
  O  O297  1  0.99044024  0.38527815  0.98696220  1
  O  O298  1  1.00201760  0.88547539  0.49002986  1
  O  O299  1  0.99333708  0.86598167  0.99621940  1
  O  O300  1  0.48413397  0.50382328  0.38431444  1
  O  O301  1  0.50202639  0.48400584  0.88221895  1
  O  O302  1  0.49486708  1.01156180  0.36936688  1
  O  O303  1  0.48893048  0.97539140  0.87949088  1
  O  O304  1  0.99390281  0.48781871  0.37267752  1
  O  O305  1  1.00226821  0.49392302  0.87935313  1
  O  O306  1  1.00566292  0.98476156  0.38017700  1
  O  O307  1  1.00204904  0.98092793  0.89312127  1
  O  O308  1  0.01415451  -0.01569752  0.12300130  1
  O  O309  1  0.00938845  0.00920438  0.60901700  1
  O  O310  1  0.00106392  0.49181442  0.10930642  1
  O  O311  1  0.02031140  0.51597955  0.63397106  1
  O  O312  1  0.50045387  0.00738144  0.12999268  1
  O  O313  1  0.51928607  -0.00308995  0.63145322  1
  O  O314  1  0.50245623  0.50809624  0.11780838  1
  O  O315  1  0.50391507  0.48557099  0.61718087  1
  O  O316  1  0.26782909  0.38517822  0.21852604  1
  O  O317  1  0.24991673  0.38820301  0.77114928  1
  O  O318  1  0.25682763  0.86591979  0.24301209  1
  O  O319  1  0.24570798  0.93834040  0.84647722  1
  O  O320  1  0.76544325  0.36288009  0.23562433  1
  O  O321  1  0.76020513  0.38248320  0.73925041  1
  O  O322  1  0.74223748  0.88718695  0.25791930  1
  O  O323  1  0.76380058  0.88423529  0.74063746  1
  O  O324  1  0.26457266  0.12964215  0.25704815  1
  O  O325  1  0.26241473  0.12650671  0.75038244  1
  O  O326  1  0.25444074  0.62348870  0.26236798  1
  O  O327  1  0.24255677  0.61666928  0.77390284  1
  O  O328  1  0.75556339  0.11626987  0.25460143  1
  O  O329  1  0.76311238  0.12097810  0.73412671  1
  O  O330  1  0.76430592  0.63334979  0.26942544  1
  O  O331  1  0.76519957  0.60343337  0.74371990  1
  O  O332  1  0.36129265  0.12583365  0.36787603  1
  O  O333  1  0.38524890  0.12533393  0.85396828  1
  O  O334  1  0.36072538  0.61341128  0.38420809  1
  O  O335  1  0.36642399  0.63966443  0.87137424  1
  O  O336  1  0.85907774  0.13466592  0.36113886  1
  O  O337  1  0.90384899  0.14159688  0.89706629  1
  O  O338  1  0.87251114  0.61327925  0.37354854  1
  O  O339  1  0.86504826  0.62463718  0.85980919  1
  O  O340  1  0.15078895  0.35739135  0.12569080  1
  O  O341  1  0.12418562  0.38939463  0.61927611  1
  O  O342  1  0.13990786  0.86740754  0.13824212  1
  O  O343  1  0.12221291  0.88599409  0.61195074  1
  O  O344  1  0.62625945  0.39069483  0.11682911  1
  O  O345  1  0.65310055  0.36618261  0.61844244  1
  O  O346  1  0.63641349  0.87141954  0.14208804  1
  O  O347  1  0.63369081  0.88782413  0.62047814  1
  O  O348  1  0.11009707  0.24022963  0.26246743  1
  O  O349  1  0.10484856  0.24261322  0.74756914  1
  O  O350  1  0.10588382  0.73817940  0.27041112  1
  O  O351  1  0.12008538  0.74244858  0.75690857  1
  O  O352  1  0.61564454  0.23864143  0.26107167  1
  O  O353  1  0.61760472  0.23858503  0.76152875  1
  O  O354  1  0.61662566  0.75651937  0.24978325  1
  O  O355  1  0.60369991  0.71251925  0.70644196  1
  O  O356  1  0.39345089  0.23749902  0.25988650  1
  O  O357  1  0.38061559  0.24668699  0.73321248  1
  O  O358  1  0.39005879  0.75098151  0.24537823  1
  O  O359  1  0.32528972  0.78725938  0.73410251  1
  O  O360  1  0.87631388  0.24848059  0.24087603  1
  O  O361  1  0.89934339  0.25148127  0.74023190  1
  O  O362  1  0.87957668  0.74390880  0.24695589  1
  O  O363  1  0.88681580  0.73314357  0.74426685  1
  O  O364  1  0.38069535  0.48882745  0.50497393  1
  O  O365  1  0.39488177  0.50597584  0.99871660  1
  O  O366  1  0.38184730  0.99388315  0.50441553  1
  O  O367  1  0.34704699  1.01054835  0.98644095  1
  O  O368  1  0.88102497  0.50603949  0.49355843  1
  O  O369  1  0.87487879  0.48972682  1.00007812  1
  O  O370  1  0.89239671  1.00725547  0.49581492  1
  O  O371  1  0.89302008  0.99258128  1.01577630  1
  O  O372  1  0.11474921  -0.01856269  0.01874765  1
  O  O373  1  0.11934969  0.00835412  0.50206893  1
  O  O374  1  0.11184985  0.50719055  -0.00462180  1
  O  O375  1  0.13184682  0.51258050  0.51496405  1
  O  O376  1  0.63661351  0.02069577  -0.00806660  1
  O  O377  1  0.63316158  0.01268712  0.50890237  1
  O  O378  1  0.61426400  0.50988956  0.00770600  1
  O  O379  1  0.60837993  0.49098940  0.49303760  1
  O  O380  1  0.37937229  0.36636758  0.10682536  1
  O  O381  1  0.37394426  0.36179091  0.61538202  1
  O  O382  1  0.36608362  0.86042301  0.12968269  1
  O  O383  1  0.37517313  0.86920248  0.60821304  1
  O  O384  1  0.87518940  0.37231843  0.11297588  1
  O  O385  1  0.86482954  0.37142237  0.61693282  1
  O  O386  1  0.87106600  0.85773846  0.13396157  1
  O  O387  1  0.87274688  0.88063598  0.61989588  1
  O  O388  1  0.13925051  0.13175747  0.37279451  1
  O  O389  1  0.11070503  0.12798544  0.86809887  1
  O  O390  1  0.13608905  0.62159710  0.38722057  1
  O  O391  1  0.12670304  0.64129567  0.88351624  1
  O  O392  1  0.63849320  0.13219605  0.38202070  1
  O  O393  1  0.61377695  0.13941765  0.88806601  1
  O  O394  1  0.63954851  0.61584700  0.36893091  1
  O  O395  1  0.63461591  0.61719878  0.86929605  1
