# generated using pymatgen
data_V35Zn35O128
_symmetry_space_group_name_H-M   'P 1'
_cell_length_a   16.93783939
_cell_length_b   16.93987152
_cell_length_c   16.95752009
_cell_angle_alpha   90.45533802
_cell_angle_beta   90.03303710
_cell_angle_gamma   89.57351267
_symmetry_Int_Tables_number   1
_chemical_formula_structural   V35Zn35O128
_chemical_formula_sum   'V70 Zn70 O256'
_cell_volume   4865.24436792
_cell_formula_units_Z   2
loop_
 _symmetry_equiv_pos_site_id
 _symmetry_equiv_pos_as_xyz
  1  'x, y, z'
loop_
 _atom_site_type_symbol
 _atom_site_label
 _atom_site_symmetry_multiplicity
 _atom_site_fract_x
 _atom_site_fract_y
 _atom_site_fract_z
 _atom_site_occupancy
  V  V0  1  -0.00408279  0.87619517  0.86912578  1
  V  V1  1  0.10411700  0.88106525  0.24254002  1
  V  V2  1  0.37875984  0.75046211  0.61275940  1
  V  V3  1  0.74459822  0.25169585  0.52107507  1
  V  V4  1  0.62465942  0.10458089  0.51541223  1
  V  V5  1  0.24653759  0.24416720  0.49979804  1
  V  V6  1  0.48840602  0.87851610  0.87693608  1
  V  V7  1  0.13125607  0.02052620  0.11216044  1
  V  V8  1  0.74023130  0.49300474  0.73650507  1
  V  V9  1  0.12787347  0.87072390  0.75012850  1
  V  V10  1  0.25733132  0.87515966  0.61065043  1
  V  V11  1  0.37476354  0.50193991  0.88048540  1
  V  V12  1  0.37474321  0.74403518  0.13350168  1
  V  V13  1  0.48539214  -0.00290905  -0.00098265  1
  V  V14  1  0.12736807  0.74317001  0.87209736  1
  V  V15  1  0.12152939  0.00361970  0.62607226  1
  V  V16  1  0.75772551  0.62476605  0.87293793  1
  V  V17  1  0.25725437  0.87419890  0.11953583  1
  V  V18  1  0.26339669  0.75098860  -0.00983392  1
  V  V19  1  0.62608602  0.88604688  0.74638268  1
  V  V20  1  0.61087694  0.24839481  0.38301299  1
  V  V21  1  0.24049659  0.13857249  0.88797380  1
  V  V22  1  0.89000132  0.12344494  0.75807403  1
  V  V23  1  0.11994760  0.12484558  0.50184445  1
  V  V24  1  -0.03376534  0.39421935  0.87098769  1
  V  V25  1  0.38090797  0.62177243  0.74545325  1
  V  V26  1  0.00166146  0.01664044  -0.00521868  1
  V  V27  1  0.50399544  0.87580543  0.37441008  1
  V  V28  1  0.74336794  0.11878990  0.37236986  1
  V  V29  1  0.75435034  0.76491465  0.00213790  1
  V  V30  1  0.11475808  0.27551034  0.87396250  1
  V  V31  1  0.37545681  0.26872482  0.12557502  1
  V  V32  1  0.75867994  0.00549863  0.76055919  1
  V  V33  1  0.61357794  0.61882844  0.51513315  1
  V  V34  1  0.23867903  0.37519531  0.63241782  1
  V  V35  1  0.25288832  -0.00017887  0.76342326  1
  V  V36  1  0.24799902  0.11752249  0.37495951  1
  V  V37  1  0.50041640  0.37249809  0.88309860  1
  V  V38  1  0.74693734  0.87210731  0.61947444  1
  V  V39  1  0.88723079  0.62411442  0.74537564  1
  V  V40  1  0.53163901  0.75252026  0.24573760  1
  V  V41  1  0.52580458  0.63031364  0.11292924  1
  V  V42  1  0.24031776  0.50143173  0.74795070  1
  V  V43  1  -0.00174520  -0.00601553  0.50240902  1
  V  V44  1  0.50279684  0.74708987  0.74687157  1
  V  V45  1  0.88070548  0.87922474  0.01729805  1
  V  V46  1  0.02221126  0.49994410  0.49741659  1
  V  V47  1  0.63366715  0.11782200  -0.00208846  1
  V  V48  1  0.11912365  0.63146864  0.02093673  1
  V  V49  1  0.25570533  -0.00125048  0.25117764  1
  V  V50  1  0.75833722  0.25254631  0.02382286  1
  V  V51  1  0.37211340  0.12062088  0.76255190  1
  V  V52  1  0.62992033  -0.01210040  0.12800603  1
  V  V53  1  0.62991414  0.75136687  0.87359695  1
  V  V54  1  -0.00784612  0.24959733  0.25058389  1
  V  V55  1  0.37566802  0.12140327  0.25248540  1
  V  V56  1  0.52983923  0.50500319  -0.00278369  1
  V  V57  1  -0.05463224  0.66897603  0.17373532  1
  V  V58  1  0.87831935  -0.00334696  0.37627654  1
  V  V59  1  0.89327899  0.74945322  0.62679631  1
  V  V60  1  0.37970255  0.39041912  0.49521913  1
  V  V61  1  0.37190448  0.24618340  0.62824934  1
  V  V62  1  0.63600719  0.24968569  0.87560682  1
  V  V63  1  0.74156000  0.47713897  0.25524226  1
  V  V64  1  0.49980737  0.25033806  0.75748682  1
  V  V65  1  0.49787024  0.25552665  0.26281986  1
  V  V66  1  0.50048993  0.10955434  0.63098612  1
  V  V67  1  0.89609292  0.24137295  0.63073226  1
  V  V68  1  0.74509158  -0.01593990  0.24845431  1
  V  V69  1  0.88113987  0.38012465  0.50442772  1
  Zn  Zn70  1  0.45922646  -0.03585507  0.51250008  1
  Zn  Zn71  1  0.17062389  0.67969833  0.42484749  1
  Zn  Zn72  1  0.64852522  0.74457695  0.38610108  1
  Zn  Zn73  1  0.87319262  0.86504756  0.49864562  1
  Zn  Zn74  1  0.49911247  0.12380155  0.12837081  1
  Zn  Zn75  1  0.04254330  0.82064846  0.39154957  1
  Zn  Zn76  1  0.16990575  0.22772577  0.14442596  1
  Zn  Zn77  1  0.17956704  0.18934917  0.69793434  1
  Zn  Zn78  1  0.11615760  0.66615679  0.23363959  1
  Zn  Zn79  1  0.19707546  0.68729511  0.68484141  1
  Zn  Zn80  1  0.67683566  0.18046288  0.19058980  1
  Zn  Zn81  1  0.68476799  0.17872843  0.69544370  1
  Zn  Zn82  1  0.71854562  0.68944456  0.18434065  1
  Zn  Zn83  1  0.69159690  0.68644365  0.68247765  1
  Zn  Zn84  1  0.30645312  0.31378156  0.31696779  1
  Zn  Zn85  1  0.31160942  0.31492971  0.81842849  1
  Zn  Zn86  1  0.31800505  0.81596102  0.30852868  1
  Zn  Zn87  1  0.31167968  0.81009440  0.80661682  1
  Zn  Zn88  1  0.81055824  0.29691147  0.33117393  1
  Zn  Zn89  1  0.81517328  0.31244108  0.80517177  1
  Zn  Zn90  1  0.83477479  0.82003023  0.29669357  1
  Zn  Zn91  1  0.81376563  0.81027272  0.80274988  1
  Zn  Zn92  1  0.18883159  0.42294639  0.42300428  1
  Zn  Zn93  1  0.18496455  0.45564117  0.93694244  1
  Zn  Zn94  1  0.18416817  0.93546357  0.43175602  1
  Zn  Zn95  1  0.18845222  0.93448563  0.93766549  1
  Zn  Zn96  1  0.68028239  0.43101182  0.45001829  1
  Zn  Zn97  1  0.78658409  0.43968624  0.95540880  1
  Zn  Zn98  1  0.67949643  0.92652250  0.43424234  1
  Zn  Zn99  1  0.68830216  0.93466796  0.93288083  1
  Zn  Zn100  1  0.31204410  0.07391604  0.07027339  1
  Zn  Zn101  1  0.30813277  0.06015549  0.57042210  1
  Zn  Zn102  1  0.31129321  0.57397933  0.05750551  1
  Zn  Zn103  1  0.30449265  0.56589301  0.56586244  1
  Zn  Zn104  1  0.81686479  0.06814540  0.05994787  1
  Zn  Zn105  1  0.81151712  0.05820110  0.57307017  1
  Zn  Zn106  1  0.83202875  0.60719630  0.06830665  1
  Zn  Zn107  1  0.80602633  0.56562817  0.56716670  1
  Zn  Zn108  1  0.49081534  0.42520226  0.17441659  1
  Zn  Zn109  1  0.43359544  0.42573331  0.69091132  1
  Zn  Zn110  1  0.44215783  0.93153744  0.18613370  1
  Zn  Zn111  1  0.43349707  0.93325441  0.69671771  1
  Zn  Zn112  1  0.94119421  0.47494820  0.06754773  1
  Zn  Zn113  1  0.93366953  0.44361345  0.67608819  1
  Zn  Zn114  1  0.93129551  0.97995307  0.17672754  1
  Zn  Zn115  1  0.93580126  0.93728152  0.68824932  1
  Zn  Zn116  1  0.06725042  0.06043885  0.31039836  1
  Zn  Zn117  1  0.06719287  0.06131222  0.81555725  1
  Zn  Zn118  1  0.03605741  0.57447124  0.35028876  1
  Zn  Zn119  1  0.05658029  0.55733615  0.82140379  1
  Zn  Zn120  1  0.56307270  0.06107014  0.31657379  1
  Zn  Zn121  1  0.56261698  0.06152462  0.81817297  1
  Zn  Zn122  1  0.57336212  0.58033814  0.30683143  1
  Zn  Zn123  1  0.56775647  0.56586228  0.81535463  1
  Zn  Zn124  1  0.42402428  0.14572541  0.45354219  1
  Zn  Zn125  1  0.43672578  0.18389204  0.94538504  1
  Zn  Zn126  1  0.44294037  0.68965589  0.42863640  1
  Zn  Zn127  1  0.44334126  0.68365157  0.93048418  1
  Zn  Zn128  1  0.92930813  0.17793758  0.44520065  1
  Zn  Zn129  1  0.93635705  0.20528897  0.93196363  1
  Zn  Zn130  1  0.91877686  0.67691139  0.44181084  1
  Zn  Zn131  1  0.93968775  0.69640618  0.93306830  1
  Zn  Zn132  1  0.05557973  0.32195546  0.03673138  1
  Zn  Zn133  1  0.06061728  0.31497639  0.56441694  1
  Zn  Zn134  1  0.06354503  0.81136589  0.06576178  1
  Zn  Zn135  1  0.07355639  0.80080829  0.56132183  1
  Zn  Zn136  1  0.56827837  0.30852867  0.06247548  1
  Zn  Zn137  1  0.54902852  0.29666337  0.55688434  1
  Zn  Zn138  1  0.56358872  0.81492954  0.05711189  1
  Zn  Zn139  1  0.56946169  0.80385921  0.55953136  1
  O  O140  1  0.14442050  0.11878486  0.11712787  1
  O  O141  1  0.13469992  0.11052800  0.61931387  1
  O  O142  1  0.12809669  0.64139757  0.12105174  1
  O  O143  1  0.15438232  0.64035222  0.58759539  1
  O  O144  1  0.61944650  0.11398482  0.11302318  1
  O  O145  1  0.61553573  0.11849708  0.62361909  1
  O  O146  1  0.62363490  0.63919452  0.11147912  1
  O  O147  1  0.61672042  0.63397022  0.61700430  1
  O  O148  1  0.36972708  0.36856658  0.39855374  1
  O  O149  1  0.38814380  0.39019806  0.86875860  1
  O  O150  1  0.40261894  0.86069083  0.36806250  1
  O  O151  1  0.38956235  0.87172307  0.86575283  1
  O  O152  1  0.86735596  0.35343563  0.40693790  1
  O  O153  1  0.86431836  0.38123625  0.88645313  1
  O  O154  1  0.86425896  0.89267688  0.38486613  1
  O  O155  1  0.89608846  0.87055967  0.86328711  1
  O  O156  1  0.24814572  0.00330121  0.36148537  1
  O  O157  1  0.24605935  0.00612623  0.86637307  1
  O  O158  1  0.28227523  0.52134832  0.29896927  1
  O  O159  1  0.26780806  0.49209527  0.85907159  1
  O  O160  1  0.74275178  0.00349465  0.36760569  1
  O  O161  1  0.75212480  -0.00569808  0.85980266  1
  O  O162  1  0.73950402  0.48482602  0.36190497  1
  O  O163  1  0.75571919  0.52489909  0.88031873  1
  O  O164  1  0.26146076  0.46823617  0.09818700  1
  O  O165  1  0.25218714  0.48503619  0.63648106  1
  O  O166  1  0.24547676  0.99395536  0.12583504  1
  O  O167  1  0.24391568  0.98874409  0.63482328  1
  O  O168  1  0.73810225  0.44735612  0.15737952  1
  O  O169  1  0.74254289  0.50113062  0.63721567  1
  O  O170  1  0.74107674  1.00444825  0.14027113  1
  O  O171  1  0.75786126  0.98186151  0.64168335  1
  O  O172  1  0.00995923  0.34775359  0.26520685  1
  O  O173  1  -0.02655882  0.39102030  0.76946425  1
  O  O174  1  0.00749239  0.90515582  0.22966255  1
  O  O175  1  0.01582033  0.88554915  0.76015995  1
  O  O176  1  0.49757630  0.35230719  0.27235595  1
  O  O177  1  0.49662250  0.35613653  0.76056706  1
  O  O178  1  0.50742293  0.85763777  0.24795848  1
  O  O179  1  0.50782718  0.87047458  0.75733891  1
  O  O180  1  0.48721998  0.12095876  0.25481945  1
  O  O181  1  0.49111119  0.12646661  0.75038505  1
  O  O182  1  0.51470783  0.64069755  0.22442260  1
  O  O183  1  0.49716883  0.63862314  0.75373159  1
  O  O184  1  0.99957671  0.13996469  0.25323887  1
  O  O185  1  0.98967908  0.11200227  0.75055304  1
  O  O186  1  1.00201027  0.62305758  0.24794688  1
  O  O187  1  0.98630120  0.61789132  0.75356203  1
  O  O188  1  0.39380432  0.24969072  0.02674780  1
  O  O189  1  0.36297790  0.23299382  0.51881772  1
  O  O190  1  0.36603092  0.74695143  -0.00732340  1
  O  O191  1  0.38439347  0.74798416  0.51547957  1
  O  O192  1  0.85698807  0.23599051  0.00692531  1
  O  O193  1  0.85898260  0.23842448  0.51778711  1
  O  O194  1  0.86977152  0.76964704  -0.00428131  1
  O  O195  1  0.87772684  0.74981064  0.51942197  1
  O  O196  1  0.13430988  0.23716714  0.51213403  1
  O  O197  1  0.11523438  0.24557344  0.97435677  1
  O  O198  1  0.11578820  0.77101233  0.46345307  1
  O  O199  1  0.13602553  0.74985994  0.98691069  1
  O  O200  1  0.63148101  0.23604912  0.50107498  1
  O  O201  1  0.62729641  0.23535186  0.99424848  1
  O  O202  1  0.63209424  0.73226640  0.49954308  1
  O  O203  1  0.64152533  0.77180298  0.98232864  1
  O  O204  1  0.49961642  0.24348786  0.15137957  1
  O  O205  1  0.49180730  0.23560695  0.63917271  1
  O  O206  1  0.49657253  0.74769130  0.12356578  1
  O  O207  1  0.48649799  0.76497137  0.63774994  1
  O  O208  1  0.97977404  0.25005231  0.14919574  1
  O  O209  1  0.99475040  0.23931388  0.62172583  1
  O  O210  1  0.99229173  0.74428327  0.12576050  1
  O  O211  1  0.99353004  0.75950064  0.62940591  1
  O  O212  1  -0.01730040  0.23503900  0.35792665  1
  O  O213  1  0.00251154  0.28538282  0.88134603  1
  O  O214  1  -0.03584939  0.74457905  0.35301047  1
  O  O215  1  0.01891053  0.76646832  0.87500504  1
  O  O216  1  0.50665549  0.22995944  0.37845842  1
  O  O217  1  0.49701918  0.25407625  0.87384323  1
  O  O218  1  0.50962803  0.74458445  0.34851841  1
  O  O219  1  0.50931743  0.75791940  0.86775195  1
  O  O220  1  0.23880607  0.12542359  0.49710476  1
  O  O221  1  0.25880235  0.12378265  0.98490215  1
  O  O222  1  0.21471765  0.63406611  0.52956096  1
  O  O223  1  0.23999751  0.64728056  1.00293337  1
  O  O224  1  0.73515180  0.12480930  0.50555112  1
  O  O225  1  0.73789545  0.12777181  1.00304948  1
  O  O226  1  0.73022250  0.61691297  0.50195535  1
  O  O227  1  0.76596523  0.65488647  0.98392500  1
  O  O228  1  0.24394159  0.41533953  0.04686054  1
  O  O229  1  0.25900769  0.36102693  0.51623396  1
  O  O230  1  0.24646619  0.86347617  0.00841759  1
  O  O231  1  0.24930072  0.88327633  0.51223269  1
  O  O232  1  0.73971072  0.34949437  0.00357128  1
  O  O233  1  0.74850700  0.35301991  0.50577602  1
  O  O234  1  0.77275715  0.87713161  -0.01155662  1
  O  O235  1  0.74965474  0.88217090  0.51659798  1
  O  O236  1  0.07993545  0.48625450  0.16681866  1
  O  O237  1  0.14306741  0.50776781  0.75932664  1
  O  O238  1  0.13555848  1.00252299  0.23029174  1
  O  O239  1  0.13416766  0.99212247  0.74260289  1
  O  O240  1  0.63402418  0.48657093  0.26493068  1
  O  O241  1  0.64141933  0.50418176  0.76060702  1
  O  O242  1  0.63269998  1.00270687  0.23817034  1
  O  O243  1  0.63347752  0.99256874  0.75486557  1
  O  O244  1  0.36497624  0.00635744  0.23710087  1
  O  O245  1  0.36433377  0.00953983  0.74922158  1
  O  O246  1  0.43834533  0.49767536  0.26732927  1
  O  O247  1  0.38112145  0.50848844  0.74995588  1
  O  O248  1  0.85669601  -0.00170616  0.27024039  1
  O  O249  1  0.86919306  0.01014139  0.75033808  1
  O  O250  1  0.84235614  0.49528695  0.25847343  1
  O  O251  1  0.86216986  0.52122788  0.73791562  1
  O  O252  1  0.21943453  0.38531229  0.32659457  1
  O  O253  1  0.13349624  0.37593000  0.87793676  1
  O  O254  1  0.11251778  0.90282791  0.34916179  1
  O  O255  1  0.12393371  0.86819234  0.86528408  1
  O  O256  1  0.61949124  0.34685649  0.39533771  1
  O  O257  1  0.61098896  0.35095219  0.87745213  1
  O  O258  1  0.61804751  0.85447275  0.37426931  1
  O  O259  1  0.61710227  0.87085750  0.86323742  1
  O  O260  1  0.37772958  0.13604630  0.14106617  1
  O  O261  1  0.37849286  0.13059508  0.64296144  1
  O  O262  1  0.38418638  0.64189076  0.11380245  1
  O  O263  1  0.37059771  0.64149288  0.63159698  1
  O  O264  1  0.88819514  0.07963604  0.14151020  1
  O  O265  1  0.87236598  0.13458041  0.63542821  1
  O  O266  1  0.83660608  0.67497006  0.16822984  1
  O  O267  1  0.87217506  0.63971413  0.63305262  1
  O  O268  1  0.27591285  0.25986003  0.14310603  1
  O  O269  1  0.25464900  0.25453729  0.62880352  1
  O  O270  1  0.26703456  0.75769125  0.11167182  1
  O  O271  1  0.26559791  0.76765785  0.62988813  1
  O  O272  1  0.74196612  0.24135449  0.12314481  1
  O  O273  1  0.73850333  0.24664233  0.62120534  1
  O  O274  1  0.73820388  0.76622728  0.09868284  1
  O  O275  1  0.75893078  0.76834581  0.63520487  1
  O  O276  1  0.25203117  0.23409971  0.39399738  1
  O  O277  1  0.24208473  0.24433994  0.87520045  1
  O  O278  1  0.28324533  0.72217616  0.37835907  1
  O  O279  1  0.24305177  0.75858114  0.88359161  1
  O  O280  1  0.73734149  0.23012117  0.38887757  1
  O  O281  1  0.73563916  0.24962306  0.87177829  1
  O  O282  1  0.77250382  0.73113531  0.35226485  1
  O  O283  1  0.74426806  0.75316927  0.87403503  1
  O  O284  1  -0.00530188  0.11329694  -0.01949553  1
  O  O285  1  0.01079370  0.11210415  0.49518053  1
  O  O286  1  0.02357156  0.64440128  -0.01135369  1
  O  O287  1  0.00155471  0.60549985  0.47078945  1
  O  O288  1  0.50917182  0.10794232  0.00247266  1
  O  O289  1  0.51735736  0.12950589  0.51825137  1
  O  O290  1  0.50750264  0.61859125  0.00010036  1
  O  O291  1  0.51323478  0.62522940  0.48677064  1
  O  O292  1  0.47833627  0.36968488  0.51062569  1
  O  O293  1  0.50726945  0.39273646  0.99129151  1
  O  O294  1  0.50728051  0.86788734  0.48560621  1
  O  O295  1  0.50421739  0.88849159  0.99125102  1
  O  O296  1  0.98939631  0.37888320  0.50332467  1
  O  O297  1  0.98607116  0.39630029  0.99887204  1
  O  O298  1  1.00041573  0.88840715  0.49116786  1
  O  O299  1  0.99220404  0.87640339  0.99029471  1
  O  O300  1  0.47534602  0.51506316  0.33097905  1
  O  O301  1  0.49784533  0.49642752  0.88307772  1
  O  O302  1  0.51074672  0.97688563  0.36922326  1
  O  O303  1  0.50250717  0.99359064  0.88990203  1
  O  O304  1  0.99385362  0.48066178  0.39478198  1
  O  O305  1  0.99504644  0.49207522  0.88621710  1
  O  O306  1  0.98153445  1.00940867  0.37751731  1
  O  O307  1  1.01573087  0.98436530  0.88777051  1
  O  O308  1  0.02241184  0.00868334  0.10558305  1
  O  O309  1  0.01352185  -0.01023825  0.61738427  1
  O  O310  1  -0.05300366  0.58682156  0.10656510  1
  O  O311  1  -0.00481849  0.49873495  0.59768853  1
  O  O312  1  0.51221491  -0.00363710  0.11456497  1
  O  O313  1  0.49058922  0.00701545  0.62746369  1
  O  O314  1  0.50508077  0.52129064  0.10649556  1
  O  O315  1  0.54320744  0.45784710  0.63554847  1
  O  O316  1  0.27647990  0.56276269  0.24028768  1
  O  O317  1  0.25844120  0.38480597  0.73985849  1
  O  O318  1  0.24828048  0.88354804  0.24081537  1
  O  O319  1  0.24506740  0.88405512  0.74633449  1
  O  O320  1  0.74732663  0.37380613  0.27347972  1
  O  O321  1  0.75883381  0.39556660  0.75519410  1
  O  O322  1  0.75128793  0.88465332  0.25114064  1
  O  O323  1  0.74306534  0.88426604  0.74618760  1
  O  O324  1  0.25528324  0.11438057  0.25963414  1
  O  O325  1  0.25537019  0.11812478  0.76009918  1
  O  O326  1  0.13756779  0.46300318  0.20402908  1
  O  O327  1  0.26354324  0.60851865  0.74081009  1
  O  O328  1  0.73920881  0.11848031  0.27036196  1
  O  O329  1  0.75547837  0.10846342  0.74800623  1
  O  O330  1  0.73209236  0.57904919  0.23313019  1
  O  O331  1  0.75505338  0.62416153  0.76097709  1
  O  O332  1  0.36007571  0.12659197  0.36143757  1
  O  O333  1  0.36454035  0.13387377  0.86691484  1
  O  O334  1  0.33891858  0.66339638  0.37819797  1
  O  O335  1  0.38281810  0.61141796  0.85952910  1
  O  O336  1  0.84972591  0.10957736  0.39066023  1
  O  O337  1  0.87635798  0.14081162  0.85554759  1
  O  O338  1  0.81168706  0.66762673  0.37578621  1
  O  O339  1  0.86661912  0.64209816  0.85948912  1
  O  O340  1  0.12110124  0.32551331  0.12279861  1
  O  O341  1  0.14059268  0.36684438  0.62855152  1
  O  O342  1  0.13756894  0.88329300  0.12902834  1
  O  O343  1  0.13937130  0.87766247  0.63152331  1
  O  O344  1  0.58973951  0.38524662  0.13748624  1
  O  O345  1  0.59238872  0.40150853  0.62632223  1
  O  O346  1  0.62817107  0.88979621  0.11816315  1
  O  O347  1  0.63547355  0.86900260  0.63542953  1
  O  O348  1  0.09844877  0.23711018  0.24757841  1
  O  O349  1  0.11899874  0.24454992  0.77393549  1
  O  O350  1  0.11261750  0.78108917  0.24818719  1
  O  O351  1  0.14080566  0.75986320  0.75873143  1
  O  O352  1  0.61098744  0.23317093  0.27280975  1
  O  O353  1  0.61189310  0.23125396  0.76882508  1
  O  O354  1  0.63290389  0.74601544  0.24289093  1
  O  O355  1  0.61793552  0.76046437  0.75487166  1
  O  O356  1  0.38379525  0.24335286  0.25614876  1
  O  O357  1  0.37973089  0.24228198  0.74708892  1
  O  O358  1  0.37765934  0.74513828  0.23307212  1
  O  O359  1  0.38361732  0.74020944  0.74797925  1
  O  O360  1  0.88595288  0.25304745  0.25590479  1
  O  O361  1  0.87293119  0.23843255  0.73734442  1
  O  O362  1  0.92689993  0.75622067  0.27695876  1
  O  O363  1  0.87719984  0.74010431  0.73754470  1
  O  O364  1  0.36441106  0.49092142  0.50553431  1
  O  O365  1  0.37197291  0.51114426  0.97984622  1
  O  O366  1  0.38429145  1.03976724  0.49277455  1
  O  O367  1  0.38820306  1.00400567  1.00997227  1
  O  O368  1  0.85971897  0.47842790  0.50935286  1
  O  O369  1  0.83315195  0.50024398  1.03768774  1
  O  O370  1  0.88317315  1.00038280  0.49680998  1
  O  O371  1  0.89313189  0.99065653  0.99838110  1
  O  O372  1  0.12117529  -0.00058945  0.00571670  1
  O  O373  1  0.11914971  0.00398424  0.50816937  1
  O  O374  1  0.13611800  0.53281281  0.00008335  1
  O  O375  1  0.12463607  0.48303752  0.49015347  1
  O  O376  1  0.63084150  0.00608884  0.00849336  1
  O  O377  1  0.62393036  0.00652094  0.50324214  1
  O  O378  1  0.62432615  0.50453872  -0.00885206  1
  O  O379  1  0.63078318  0.51525200  0.49922603  1
  O  O380  1  0.39593633  0.36700029  0.14026742  1
  O  O381  1  0.36756090  0.35988045  0.62139444  1
  O  O382  1  0.36792871  0.86342719  0.12593686  1
  O  O383  1  0.36589394  0.87086529  0.62555510  1
  O  O384  1  0.91251077  0.39756137  0.14320617  1
  O  O385  1  0.87809420  0.35016149  0.61678927  1
  O  O386  1  0.88099906  0.88565286  0.11511632  1
  O  O387  1  0.86888874  0.86461912  0.62723432  1
  O  O388  1  0.13568335  0.11371874  0.38862277  1
  O  O389  1  0.14055407  0.12337488  0.87594563  1
  O  O390  1  0.13929200  0.61935484  0.33507514  1
  O  O391  1  0.12527315  0.64392252  0.86416495  1
  O  O392  1  0.62976368  0.12250905  0.39513685  1
  O  O393  1  0.61915436  0.13147117  0.89152196  1
  O  O394  1  0.63181880  0.63135750  0.38383873  1
  O  O395  1  0.64081791  0.64317700  0.87100338  1
