# generated using pymatgen
data_V35Zn35O128
_symmetry_space_group_name_H-M   'P 1'
_cell_length_a   16.82163372
_cell_length_b   16.85458197
_cell_length_c   16.81853796
_cell_angle_alpha   89.99454102
_cell_angle_beta   89.82313648
_cell_angle_gamma   89.99623839
_symmetry_Int_Tables_number   1
_chemical_formula_structural   V35Zn35O128
_chemical_formula_sum   'V70 Zn70 O256'
_cell_volume   4768.39611506
_cell_formula_units_Z   2
loop_
 _symmetry_equiv_pos_site_id
 _symmetry_equiv_pos_as_xyz
  1  'x, y, z'
loop_
 _atom_site_type_symbol
 _atom_site_label
 _atom_site_symmetry_multiplicity
 _atom_site_fract_x
 _atom_site_fract_y
 _atom_site_fract_z
 _atom_site_occupancy
  V  V0  1  0.63855955  0.50065611  0.11314619  1
  V  V1  1  0.75777886  0.35356904  0.61953484  1
  V  V2  1  0.13791289  0.24144725  0.89179208  1
  V  V3  1  0.64026197  0.24806550  0.87978495  1
  V  V4  1  0.61787000  0.00236530  0.12157600  1
  V  V5  1  0.74653202  0.00138839  0.25193656  1
  V  V6  1  0.75603213  0.89255676  0.62442292  1
  V  V7  1  0.87356226  0.87365976  -0.01611689  1
  V  V8  1  0.12794651  0.63259940  0.49497705  1
  V  V9  1  0.75028122  0.49825169  0.73289683  1
  V  V10  1  0.87242852  0.50398712  0.36699335  1
  V  V11  1  0.50683670  0.61811607  0.11377255  1
  V  V12  1  0.49760028  0.37549318  0.87128662  1
  V  V13  1  0.74278415  0.74626100  -0.00869382  1
  V  V14  1  -0.00227913  -0.01504960  0.52374076  1
  V  V15  1  0.75227511  0.87870741  0.12060718  1
  V  V16  1  0.00272742  0.36619662  0.36901993  1
  V  V17  1  0.63170919  0.75822327  0.36487558  1
  V  V18  1  0.36740758  0.02308301  0.37444939  1
  V  V19  1  0.87338937  0.35642519  0.50003455  1
  V  V20  1  0.37775529  0.12516278  0.76945412  1
  V  V21  1  0.26916854  0.75984374  0.50198681  1
  V  V22  1  0.38747353  0.61995903  0.25852609  1
  V  V23  1  0.88120282  -0.02752374  0.37450223  1
  V  V24  1  -0.00507679  0.36747583  0.88792932  1
  V  V25  1  0.25480231  0.88718611  0.63239152  1
  V  V26  1  -0.00055772  0.62631979  0.63089669  1
  V  V27  1  0.37085747  0.37905854  -0.00488213  1
  V  V28  1  0.62055148  0.25607093  0.38049853  1
  V  V29  1  0.48187049  0.88498699  0.36905979  1
  V  V30  1  0.75904284  0.75050668  0.51327078  1
  V  V31  1  0.37240990  0.25085443  0.61230239  1
  V  V32  1  0.87752642  0.63214643  0.74343108  1
  V  V33  1  0.48713516  0.25617074  0.24835417  1
  V  V34  1  0.75173543  0.61968312  0.36842167  1
  V  V35  1  0.00846725  -0.00076430  -0.01092726  1
  V  V36  1  0.25432887  0.61691628  0.37678299  1
  V  V37  1  0.13298993  0.49011710  0.62409882  1
  V  V38  1  0.63238265  0.37916735  0.24946606  1
  V  V39  1  0.12823533  0.37234207  0.75253130  1
  V  V40  1  0.49107903  0.74959877  0.72938848  1
  V  V41  1  0.86384000  0.13045862  0.73179860  1
  V  V42  1  0.48528703  0.13741229  0.12184372  1
  V  V43  1  0.00428250  0.51561229  0.01003669  1
  V  V44  1  0.23235096  0.85951264  0.13955645  1
  V  V45  1  0.12309060  0.13240378  0.51634260  1
  V  V46  1  0.75762284  0.35665180  0.10772741  1
  V  V47  1  0.22742277  0.74122212  -0.00481520  1
  V  V48  1  0.10958485  0.35466770  0.22455695  1
  V  V49  1  0.24236512  0.02054077  0.25435365  1
  V  V50  1  0.61671192  0.61443755  0.51218829  1
  V  V51  1  0.62173217  0.89357247  0.73813937  1
  V  V52  1  0.49151385  0.89029198  0.88562336  1
  V  V53  1  0.11839179  0.00323106  0.12662178  1
  V  V54  1  0.25192519  0.00340945  0.78393109  1
  V  V55  1  0.61900314  0.74612009  0.86739817  1
  V  V56  1  0.25721081  0.35779573  0.11267114  1
  V  V57  1  0.76091029  0.13349848  0.37605542  1
  V  V58  1  0.64169234  0.13215818  0.00335445  1
  V  V59  1  0.37333099  0.61273717  0.74488160  1
  V  V60  1  0.37594929  0.74779143  0.11837710  1
  V  V61  1  -0.00156606  0.24283838  0.73449396  1
  V  V62  1  0.49547297  0.11177461  0.62308511  1
  V  V63  1  0.61750642  0.10648080  0.49686160  1
  V  V64  1  0.62550701  0.36557691  0.74361906  1
  V  V65  1  0.94063721  0.19987636  0.17008320  1
  V  V66  1  0.25435952  0.49383046  0.23682979  1
  V  V67  1  0.00115640  0.49476308  0.49783880  1
  V  V68  1  0.87203967  0.49564336  0.87909874  1
  V  V69  1  0.85543252  0.02073882  0.87814152  1
  Zn  Zn70  1  0.74286117  0.61742267  0.87292082  1
  Zn  Zn71  1  0.25588973  0.61911403  0.87273670  1
  Zn  Zn72  1  0.11013398  0.87891523  0.77048562  1
  Zn  Zn73  1  0.25542588  0.36578374  0.62916056  1
  Zn  Zn74  1  0.49943259  0.51179621  -0.02071429  1
  Zn  Zn75  1  0.52147711  0.76546507  0.23870143  1
  Zn  Zn76  1  0.12629732  0.17992071  0.20915474  1
  Zn  Zn77  1  0.19240649  0.18045144  0.69435645  1
  Zn  Zn78  1  0.18734630  0.66355291  0.17805628  1
  Zn  Zn79  1  0.19045073  0.69584178  0.68723493  1
  Zn  Zn80  1  0.68707126  0.18968379  0.19442000  1
  Zn  Zn81  1  0.68282255  0.17752947  0.68350071  1
  Zn  Zn82  1  0.71125979  0.67728556  0.17457968  1
  Zn  Zn83  1  0.68141787  0.69002113  0.68737920  1
  Zn  Zn84  1  0.28650260  0.29954733  0.30739884  1
  Zn  Zn85  1  0.31615417  0.30467289  0.81001803  1
  Zn  Zn86  1  0.31205377  0.79726670  0.31379486  1
  Zn  Zn87  1  0.31249572  0.81303047  0.81830125  1
  Zn  Zn88  1  0.81399934  0.31174473  0.30556391  1
  Zn  Zn89  1  0.81589353  0.30917118  0.81045832  1
  Zn  Zn90  1  0.80856362  0.80659690  0.30117156  1
  Zn  Zn91  1  0.80855713  0.82157900  0.80548783  1
  Zn  Zn92  1  0.19959446  0.42475559  0.42381622  1
  Zn  Zn93  1  0.17686891  0.45291274  0.94171039  1
  Zn  Zn94  1  0.20592759  0.97082363  0.46650002  1
  Zn  Zn95  1  0.19673882  0.92408132  0.94841954  1
  Zn  Zn96  1  0.68749424  0.43558410  0.44206357  1
  Zn  Zn97  1  0.68959211  0.43609702  0.93395937  1
  Zn  Zn98  1  0.69500683  0.93467829  0.43914703  1
  Zn  Zn99  1  0.67585862  0.93965588  0.93266244  1
  Zn  Zn100  1  0.32181616  0.04185361  0.05960269  1
  Zn  Zn101  1  0.30764216  0.06934384  0.56005186  1
  Zn  Zn102  1  0.32027658  0.56154475  0.05362553  1
  Zn  Zn103  1  0.30850583  0.57774637  0.57921072  1
  Zn  Zn104  1  0.81535343  0.06459284  0.06231456  1
  Zn  Zn105  1  0.81521699  0.06533256  0.54816233  1
  Zn  Zn106  1  0.84453278  0.55431989  0.08931509  1
  Zn  Zn107  1  0.81182574  0.56011025  0.55457372  1
  Zn  Zn108  1  0.43951716  0.43537934  0.18428667  1
  Zn  Zn109  1  0.43727034  0.43522428  0.68717669  1
  Zn  Zn110  1  0.42864507  0.94249913  0.18691711  1
  Zn  Zn111  1  0.42915086  0.93639132  0.69141486  1
  Zn  Zn112  1  0.93081605  0.43341209  0.18532362  1
  Zn  Zn113  1  0.93970395  0.43325788  0.68859648  1
  Zn  Zn114  1  0.94271463  1.03319934  0.19555283  1
  Zn  Zn115  1  0.93112089  0.94436172  0.70278477  1
  Zn  Zn116  1  0.06498375  0.05341709  0.31859872  1
  Zn  Zn117  1  0.06337542  0.06707206  0.81149397  1
  Zn  Zn118  1  0.07591292  0.55147725  0.30030903  1
  Zn  Zn119  1  0.07125524  0.55340079  0.81975728  1
  Zn  Zn120  1  0.55749946  0.06774186  0.30600526  1
  Zn  Zn121  1  0.56017379  0.06948692  0.81553829  1
  Zn  Zn122  1  0.57685835  0.56822702  0.30648696  1
  Zn  Zn123  1  0.56143209  0.56209239  0.79652593  1
  Zn  Zn124  1  0.43795232  0.19394721  0.43674344  1
  Zn  Zn125  1  0.44825015  0.19837494  0.94188299  1
  Zn  Zn126  1  0.44815087  0.69422485  0.43579134  1
  Zn  Zn127  1  0.43353607  0.69255658  0.92766049  1
  Zn  Zn128  1  0.96514988  0.17199435  0.42108434  1
  Zn  Zn129  1  0.94242062  0.18557749  0.96354716  1
  Zn  Zn130  1  0.93500232  0.68390598  0.44977211  1
  Zn  Zn131  1  0.93456193  0.68755578  0.92832287  1
  Zn  Zn132  1  0.04663119  0.30336854  0.06113374  1
  Zn  Zn133  1  0.06672235  0.30751305  0.55473046  1
  Zn  Zn134  1  0.05128118  0.80987292  0.06369531  1
  Zn  Zn135  1  0.04686965  0.83497149  0.61741888  1
  Zn  Zn136  1  0.56125905  0.31570656  0.05968006  1
  Zn  Zn137  1  0.55928059  0.30120140  0.57455925  1
  Zn  Zn138  1  0.56320900  0.81156116  0.05920386  1
  Zn  Zn139  1  0.56765617  0.81756483  0.54927886  1
  O  O140  1  0.13079287  0.10121829  0.11876464  1
  O  O141  1  0.12488211  0.12618611  0.61902237  1
  O  O142  1  0.09404300  0.61767316  0.20959098  1
  O  O143  1  0.11779276  0.60758377  0.61684404  1
  O  O144  1  0.62857254  0.12374940  0.11544702  1
  O  O145  1  0.61224284  0.12862383  0.60845555  1
  O  O146  1  0.61757846  0.61169187  0.13238409  1
  O  O147  1  0.62471550  0.62640391  0.61318426  1
  O  O148  1  0.45880367  0.44074531  0.37466238  1
  O  O149  1  0.39296544  0.37662390  0.86443735  1
  O  O150  1  0.38112429  0.87155140  0.37165008  1
  O  O151  1  0.39239371  0.87220518  0.87527146  1
  O  O152  1  0.87510234  0.38420899  0.38337784  1
  O  O153  1  0.88419347  0.38556452  0.86761048  1
  O  O154  1  0.86669235  0.87361327  0.37466255  1
  O  O155  1  0.86589356  0.89522194  0.87805807  1
  O  O156  1  0.25060698  -0.00487170  0.35934291  1
  O  O157  1  0.26288177  -0.00430055  0.88337693  1
  O  O158  1  0.25423699  0.50964898  0.36149565  1
  O  O159  1  0.17025661  0.54454048  0.87444922  1
  O  O160  1  0.75919383  0.00651543  0.37168509  1
  O  O161  1  0.75611224  0.01182616  0.88220353  1
  O  O162  1  0.76268368  0.50708064  0.38572276  1
  O  O163  1  0.75895792  0.49714836  0.86067849  1
  O  O164  1  0.24794514  0.51704595  0.13764621  1
  O  O165  1  0.23556460  0.49361934  0.62297278  1
  O  O166  1  0.23677032  0.97618950  0.14050339  1
  O  O167  1  0.24327650  0.98682177  0.61890772  1
  O  O168  1  0.73955556  0.49450986  0.11971374  1
  O  O169  1  0.75779100  0.48741744  0.63052841  1
  O  O170  1  0.74233386  0.99661746  0.12934785  1
  O  O171  1  0.74779628  0.99157570  0.60949939  1
  O  O172  1  0.00919697  0.39243151  0.25870271  1
  O  O173  1  0.00312107  0.36187943  0.75953273  1
  O  O174  1  -0.06090781  0.78744250  0.19106894  1
  O  O175  1  0.00879241  0.86873097  0.72132738  1
  O  O176  1  0.51363963  0.36447382  0.23842895  1
  O  O177  1  0.52076492  0.37984245  0.75033072  1
  O  O178  1  0.49832103  0.87812105  0.25846349  1
  O  O179  1  0.50729130  0.86925543  0.75224519  1
  O  O180  1  0.50554014  0.14579716  0.23715287  1
  O  O181  1  0.48984074  0.11769408  0.73443502  1
  O  O182  1  0.49553712  0.62182087  0.24326372  1
  O  O183  1  0.49420366  0.64170598  0.74892025  1
  O  O184  1  1.00843435  0.13342227  0.22909962  1
  O  O185  1  0.99201063  0.13892136  0.75265121  1
  O  O186  1  0.99725197  0.66928080  0.29804978  1
  O  O187  1  0.99102639  0.60990898  0.73997438  1
  O  O188  1  0.37486606  0.27829040  -0.01825369  1
  O  O189  1  0.37708154  0.25495336  0.51079925  1
  O  O190  1  0.37606848  0.74392636  0.01654434  1
  O  O191  1  0.36905566  0.75372779  0.49295082  1
  O  O192  1  0.94624870  0.23753534  0.06875907  1
  O  O193  1  0.88216488  0.26009330  0.49142621  1
  O  O194  1  0.85951159  0.76524763  -0.02332380  1
  O  O195  1  0.85960373  0.74837111  0.50005473  1
  O  O196  1  0.12999162  0.23407126  0.50073056  1
  O  O197  1  0.12432052  0.26086835  0.99093956  1
  O  O198  1  0.12765951  0.73031105  0.49955557  1
  O  O199  1  0.12693687  0.74001237  1.00913573  1
  O  O200  1  0.61778144  0.25953896  0.48275219  1
  O  O201  1  0.62674845  0.24572887  0.99037739  1
  O  O202  1  0.63708668  0.74123601  0.48403883  1
  O  O203  1  0.63178620  0.75706907  0.97891202  1
  O  O204  1  0.50004356  0.24831292  0.13447293  1
  O  O205  1  0.48494625  0.23466469  0.62591281  1
  O  O206  1  0.49751080  0.73998201  0.12635122  1
  O  O207  1  0.50389802  0.76075237  0.63071033  1
  O  O208  1  1.04848029  0.27205815  0.17569001  1
  O  O209  1  1.00112431  0.25503290  0.63638408  1
  O  O210  1  0.98114686  0.74404495  0.13903600  1
  O  O211  1  1.00607120  0.72354737  0.62160523  1
  O  O212  1  -0.01528505  0.26888053  0.36238674  1
  O  O213  1  -0.00562713  0.26272236  0.88539494  1
  O  O214  1  -0.00489304  0.72151759  0.35267492  1
  O  O215  1  0.01497154  0.74814324  0.86048666  1
  O  O216  1  0.51186266  0.25018459  0.36277908  1
  O  O217  1  0.51857044  0.26942850  0.87394219  1
  O  O218  1  0.51870349  0.76031750  0.36419206  1
  O  O219  1  0.51155052  0.75943191  0.86874157  1
  O  O220  1  0.21963493  0.09482571  0.49027255  1
  O  O221  1  0.25209298  0.09274920  0.99373974  1
  O  O222  1  0.24170955  0.62143952  0.49570358  1
  O  O223  1  0.25361302  0.63777694  1.00036633  1
  O  O224  1  0.73317346  0.12253667  0.48465428  1
  O  O225  1  0.74142457  0.13173628  1.00368300  1
  O  O226  1  0.74392123  0.63491088  0.49767308  1
  O  O227  1  0.75015400  0.64628094  0.98915110  1
  O  O228  1  0.25763907  0.39214732  0.00361491  1
  O  O229  1  0.31903234  0.42473371  0.50384163  1
  O  O230  1  0.24832548  0.85033712  0.02466332  1
  O  O231  1  0.24144194  0.86346687  0.51207386  1
  O  O232  1  0.74578745  0.37068014  0.00743295  1
  O  O233  1  0.76110552  0.37293254  0.50934908  1
  O  O234  1  0.75310029  0.87561722  -0.00314433  1
  O  O235  1  0.74310457  0.86200372  0.51386226  1
  O  O236  1  0.15072737  0.46081720  0.25846370  1
  O  O237  1  0.10780900  0.48469239  0.72939553  1
  O  O238  1  0.13048798  0.99519551  0.24215350  1
  O  O239  1  0.14680339  1.00186666  0.76671811  1
  O  O240  1  0.61964144  0.48478739  0.23977716  1
  O  O241  1  0.64440695  0.48609844  0.74931968  1
  O  O242  1  0.63616773  1.00770485  0.23811569  1
  O  O243  1  0.61982064  0.99279908  0.74807038  1
  O  O244  1  0.35007905  0.00360940  0.25367488  1
  O  O245  1  0.36484319  0.01506887  0.74934927  1
  O  O246  1  0.37220586  0.51143417  0.24328564  1
  O  O247  1  0.38415793  0.51116078  0.74919963  1
  O  O248  1  0.85889304  -0.00362948  0.26363389  1
  O  O249  1  0.87906291  0.02405116  0.76934526  1
  O  O250  1  0.87660495  0.49790427  0.26799741  1
  O  O251  1  0.86627497  0.50117529  0.75382218  1
  O  O252  1  0.10151944  0.37486464  0.38204810  1
  O  O253  1  0.10858518  0.37227446  0.87095598  1
  O  O254  1  0.08996153  0.84753428  0.36619268  1
  O  O255  1  0.13186517  0.86607322  0.87936972  1
  O  O256  1  0.63477670  0.36762924  0.36264549  1
  O  O257  1  0.62826054  0.36569028  0.86198456  1
  O  O258  1  0.64551275  0.85853069  0.36580630  1
  O  O259  1  0.61803891  0.87055620  0.85792474  1
  O  O260  1  0.38711525  0.12842644  0.11930247  1
  O  O261  1  0.38291721  0.13079002  0.61914933  1
  O  O262  1  0.39164153  0.62719113  0.13134723  1
  O  O263  1  0.38530147  0.62557371  0.64113831  1
  O  O264  1  0.87843189  0.11763856  0.14155535  1
  O  O265  1  0.86776777  0.12326184  0.63263602  1
  O  O266  1  0.81304303  0.65178910  0.12713865  1
  O  O267  1  0.88772268  0.61459320  0.63140376  1
  O  O268  1  0.25659498  0.26258346  0.11440973  1
  O  O269  1  0.26368229  0.24505277  0.62673491  1
  O  O270  1  0.25411925  0.73953461  0.12270349  1
  O  O271  1  0.25668497  0.73341169  0.60047076  1
  O  O272  1  0.74590256  0.25681924  0.12324292  1
  O  O273  1  0.75380702  0.25530426  0.62388712  1
  O  O274  1  0.72433403  0.77355262  0.10148454  1
  O  O275  1  0.74749844  0.75343035  0.61597906  1
  O  O276  1  0.26327183  0.33319216  0.40946181  1
  O  O277  1  0.23653642  0.25496339  0.87576914  1
  O  O278  1  0.25231038  0.73092826  0.38974227  1
  O  O279  1  0.24759219  0.74980803  0.89211373  1
  O  O280  1  0.73822749  0.23993674  0.36637191  1
  O  O281  1  0.74041217  0.25489502  0.87636912  1
  O  O282  1  0.75044210  0.73619346  0.37854186  1
  O  O283  1  0.73601917  0.75584736  0.87492176  1
  O  O284  1  0.00292649  0.09641719  0.00901898  1
  O  O285  1  0.00523815  0.11373104  0.51020720  1
  O  O286  1  -0.00269861  0.61469299  -0.01241146  1
  O  O287  1  0.01032478  0.61420443  0.50702911  1
  O  O288  1  0.51229008  0.13897410  0.01786772  1
  O  O289  1  0.51036734  0.12664845  0.50302146  1
  O  O290  1  0.50094932  0.62836018  0.01090240  1
  O  O291  1  0.51719111  0.62701687  0.49158585  1
  O  O292  1  0.50588058  0.40433602  0.53385579  1
  O  O293  1  0.49460665  0.38078930  0.98535407  1
  O  O294  1  0.51599851  0.87754539  0.46540024  1
  O  O295  1  0.50905125  0.87574306  0.98479252  1
  O  O296  1  0.98912577  0.37589231  0.49090803  1
  O  O297  1  0.99588552  0.38775345  0.99007160  1
  O  O298  1  0.99749838  0.88249109  0.52523394  1
  O  O299  1  0.97835684  0.87629148  1.00105700  1
  O  O300  1  0.50280490  0.49793853  0.39144579  1
  O  O301  1  0.52184823  0.48213824  0.86869412  1
  O  O302  1  0.47803231  0.99732435  0.35844259  1
  O  O303  1  0.50399239  0.99033860  0.87392620  1
  O  O304  1  0.99155691  0.49713511  0.37992793  1
  O  O305  1  0.98863929  0.49256604  0.88275889  1
  O  O306  1  0.98113576  0.98314192  0.35707849  1
  O  O307  1  0.99997848  0.99862520  0.88619973  1
  O  O308  1  0.01358858  -0.01784933  0.12359954  1
  O  O309  1  -0.01385766  0.00865703  0.62028981  1
  O  O310  1  -0.04343511  0.51244505  0.10550863  1
  O  O311  1  0.00548921  0.49885073  0.61274351  1
  O  O312  1  0.51697283  0.02342734  0.13927950  1
  O  O313  1  0.48811276  0.01208720  0.61869747  1
  O  O314  1  0.50747631  0.51069609  0.11988575  1
  O  O315  1  0.49608717  0.46341806  0.58185383  1
  O  O316  1  0.28155630  0.38910924  0.22158419  1
  O  O317  1  0.23159639  0.36900545  0.75374191  1
  O  O318  1  0.24277781  0.85200974  0.24149638  1
  O  O319  1  0.26276165  0.89648147  0.75114433  1
  O  O320  1  0.73664049  0.37024134  0.23724785  1
  O  O321  1  0.75169125  0.37849487  0.73615108  1
  O  O322  1  0.75164483  0.88045249  0.22828765  1
  O  O323  1  0.73235171  0.87512318  0.73683437  1
  O  O324  1  0.22909354  0.11892382  0.24915688  1
  O  O325  1  0.26226937  0.11393840  0.76117629  1
  O  O326  1  0.26533825  0.61454642  0.25775175  1
  O  O327  1  0.26577635  0.63295802  0.74842623  1
  O  O328  1  0.74361513  0.11676283  0.26732686  1
  O  O329  1  0.76457747  0.13639267  0.75117146  1
  O  O330  1  0.75003876  0.61686874  0.26998390  1
  O  O331  1  0.75958535  0.61116970  0.74103112  1
  O  O332  1  0.37428010  0.12261793  0.37111010  1
  O  O333  1  0.39455731  0.12890647  0.86757000  1
  O  O334  1  0.37733894  0.62644334  0.36403385  1
  O  O335  1  0.37355697  0.62904021  0.85847065  1
  O  O336  1  0.86125273  0.13228693  0.38033422  1
  O  O337  1  0.87534460  0.12091039  0.89355830  1
  O  O338  1  0.86648517  0.61253100  0.38495073  1
  O  O339  1  0.87278715  0.61217126  0.85695185  1
  O  O340  1  0.14665898  0.37747107  0.12794130  1
  O  O341  1  0.12963901  0.37697388  0.62737853  1
  O  O342  1  0.12906854  0.86342828  0.13314112  1
  O  O343  1  0.15826267  0.83806762  0.65792187  1
  O  O344  1  0.63197930  0.38346441  0.12832556  1
  O  O345  1  0.64092636  0.36347945  0.63509069  1
  O  O346  1  0.62742285  0.89776556  0.11206569  1
  O  O347  1  0.62693542  0.87688691  0.63307515  1
  O  O348  1  0.17048009  0.28151590  0.26523434  1
  O  O349  1  0.11057485  0.25375437  0.76199228  1
  O  O350  1  0.08260300  0.83768988  0.29440791  1
  O  O351  1  0.11268591  0.74048568  0.76844299  1
  O  O352  1  0.61738328  0.26168371  0.25837001  1
  O  O353  1  0.63381845  0.25869350  0.75863192  1
  O  O354  1  0.63787079  0.73518375  0.26044183  1
  O  O355  1  0.61451465  0.75882788  0.75424939  1
  O  O356  1  0.38799218  0.26297461  0.26317375  1
  O  O357  1  0.37106313  0.22788552  0.74299889  1
  O  O358  1  0.37727244  0.72838419  0.24052536  1
  O  O359  1  0.38991879  0.75384854  0.74890086  1
  O  O360  1  0.88500336  0.25395052  0.23371686  1
  O  O361  1  0.88722426  0.24099161  0.75241935  1
  O  O362  1  0.88099704  0.74496567  0.22749358  1
  O  O363  1  0.86741570  0.73043992  0.75403025  1
  O  O364  1  0.36114121  0.48749764  0.50849993  1
  O  O365  1  0.38247074  0.49058422  0.98810349  1
  O  O366  1  0.35820268  1.00304363  0.47363762  1
  O  O367  1  0.39871976  0.96599853  1.07627738  1
  O  O368  1  0.88705003  0.49195406  0.49337730  1
  O  O369  1  0.86544545  0.50860159  0.97902957  1
  O  O370  1  0.88758994  1.00143074  0.48091174  1
  O  O371  1  0.88144392  0.99411990  0.99079371  1
  O  O372  1  0.11404958  -0.02092290  0.01416915  1
  O  O373  1  0.09947072  -0.00111285  0.49658407  1
  O  O374  1  0.10126587  0.49766806  0.02403000  1
  O  O375  1  0.11921655  0.49076237  0.50790785  1
  O  O376  1  0.62782402  0.01956207  0.00951270  1
  O  O377  1  0.61913500  0.00827704  0.48815385  1
  O  O378  1  0.62245181  0.49748745  0.01019294  1
  O  O379  1  0.63140903  0.51387280  0.49889195  1
  O  O380  1  0.37231331  0.37998566  0.10328914  1
  O  O381  1  0.37232501  0.35521178  0.64136045  1
  O  O382  1  0.36315419  0.84650931  0.14162658  1
  O  O383  1  0.35550823  0.87098690  0.63024817  1
  O  O384  1  0.85589353  0.37654871  0.12472289  1
  O  O385  1  0.86940630  0.37132472  0.61270641  1
  O  O386  1  0.85310816  0.88100799  0.10086776  1
  O  O387  1  0.85389302  0.87966704  0.64104209  1
  O  O388  1  0.07616825  0.13099555  0.39740917  1
  O  O389  1  0.11647642  0.14384760  0.87955035  1
  O  O390  1  0.13370088  0.61079857  0.39068162  1
  O  O391  1  0.07579321  0.70404416  0.83252311  1
  O  O392  1  0.62365587  0.13587684  0.38345230  1
  O  O393  1  0.62014486  0.13931250  0.88653630  1
  O  O394  1  0.63932667  0.62678524  0.38340121  1
  O  O395  1  0.62636789  0.64079208  0.85966518  1
