# generated using pymatgen
data_V35Zn35O128
_symmetry_space_group_name_H-M   'P 1'
_cell_length_a   16.85302472
_cell_length_b   16.89211719
_cell_length_c   16.81364603
_cell_angle_alpha   89.96049069
_cell_angle_beta   89.86595932
_cell_angle_gamma   89.92767263
_symmetry_Int_Tables_number   1
_chemical_formula_structural   V35Zn35O128
_chemical_formula_sum   'V70 Zn70 O256'
_cell_volume   4786.54566691
_cell_formula_units_Z   2
loop_
 _symmetry_equiv_pos_site_id
 _symmetry_equiv_pos_as_xyz
  1  'x, y, z'
loop_
 _atom_site_type_symbol
 _atom_site_label
 _atom_site_symmetry_multiplicity
 _atom_site_fract_x
 _atom_site_fract_y
 _atom_site_fract_z
 _atom_site_occupancy
  V  V0  1  0.25358773  0.49363512  0.25188272  1
  V  V1  1  0.85632114  0.62422749  0.75936063  1
  V  V2  1  0.13688276  0.25428691  0.38628547  1
  V  V3  1  0.24798120  0.12360231  0.89329819  1
  V  V4  1  -0.00341416  0.24566520  0.26222314  1
  V  V5  1  0.37366491  0.87196747  0.02127546  1
  V  V6  1  0.62619245  0.11834378  0.50907212  1
  V  V7  1  0.00485662  0.74213699  0.74158980  1
  V  V8  1  0.74859649  0.74466083  -0.00180012  1
  V  V9  1  0.25450022  0.38901139  0.64548475  1
  V  V10  1  0.11545550  0.51577494  0.10734770  1
  V  V11  1  0.87671194  -0.00269218  0.87737980  1
  V  V12  1  0.74869463  0.27072223  0.50717995  1
  V  V13  1  0.87479044  0.74724344  0.61565737  1
  V  V14  1  0.23933394  0.01582726  0.26087988  1
  V  V15  1  0.75652329  -0.00699791  0.25842251  1
  V  V16  1  0.49763723  0.63366296  0.62085818  1
  V  V17  1  -0.01113789  0.36731305  0.87801541  1
  V  V18  1  0.87610270  0.37721012  0.00928210  1
  V  V19  1  0.11911453  0.37838096  0.75519572  1
  V  V20  1  0.37042961  0.25119036  0.62891559  1
  V  V21  1  0.35722787  0.23749541  0.11110337  1
  V  V22  1  0.88617051  0.48886403  0.39140040  1
  V  V23  1  0.61379673  0.24476065  0.36815624  1
  V  V24  1  0.89264023  0.74781519  0.13417439  1
  V  V25  1  0.12927291  0.86461111  0.25175607  1
  V  V26  1  0.00299898  0.12389055  0.61846955  1
  V  V27  1  0.12924342  0.11504089  0.49916657  1
  V  V28  1  0.74101218  -0.01299804  0.73910179  1
  V  V29  1  0.36548165  0.36800446  0.49684331  1
  V  V30  1  0.87417776  0.23677002  0.12920977  1
  V  V31  1  0.12658258  0.60427253  0.51531081  1
  V  V32  1  0.50303454  0.11089231  0.62811599  1
  V  V33  1  0.73434096  0.37654914  0.13576666  1
  V  V34  1  0.73895663  0.87815582  0.13173480  1
  V  V35  1  0.12561532  0.37266500  0.23980459  1
  V  V36  1  0.50589415  -0.00837577  0.01378507  1
  V  V37  1  0.12483084  0.24220380  0.88696271  1
  V  V38  1  0.37672396  0.61863061  0.74570013  1
  V  V39  1  0.63428781  0.48824734  0.63125856  1
  V  V40  1  0.37431180  0.12483261  0.75055371  1
  V  V41  1  0.58966816  0.76693865  0.84064828  1
  V  V42  1  0.50678748  0.26633987  0.75718505  1
  V  V43  1  0.49318595  0.49318148  0.49576694  1
  V  V44  1  0.62605017  0.61917932  0.49078596  1
  V  V45  1  0.12949913  0.88176711  0.73128516  1
  V  V46  1  0.13737993  0.75313678  0.87321936  1
  V  V47  1  0.36442652  0.76575606  0.61298102  1
  V  V48  1  0.74058583  0.75256263  0.49608234  1
  V  V49  1  0.00635837  0.88224559  0.87573488  1
  V  V50  1  -0.00018426  0.87935593  0.36370447  1
  V  V51  1  0.88575223  0.88757571  0.49934705  1
  V  V52  1  0.37861099  -0.01232512  0.87158998  1
  V  V53  1  0.74303550  0.12155337  0.87283602  1
  V  V54  1  0.37077261  0.62740730  0.24878015  1
  V  V55  1  0.25592361  0.75044399  0.00951413  1
  V  V56  1  0.49728357  0.36573434  0.36661838  1
  V  V57  1  0.88398905  0.87756548  0.00595993  1
  V  V58  1  0.62261851  0.11481381  0.01478144  1
  V  V59  1  0.76843568  0.12616211  0.37347961  1
  V  V60  1  0.50446077  0.61070930  0.11986810  1
  V  V61  1  0.90097850  0.61727557  0.24769948  1
  V  V62  1  0.38853583  0.12949838  0.25550792  1
  V  V63  1  0.26136814  0.62124604  0.87020377  1
  V  V64  1  0.00936643  0.12043844  0.11408180  1
  V  V65  1  0.74965461  0.62480862  0.35913830  1
  V  V66  1  0.24228635  0.75362422  0.48028902  1
  V  V67  1  0.25076509  -0.00257473  0.73030577  1
  V  V68  1  0.12798759  -0.00325637  0.11474684  1
  V  V69  1  0.88488633  0.13006976  0.75160247  1
  Zn  Zn70  1  0.61839301  0.63990890  -0.00326727  1
  Zn  Zn71  1  0.87323468  0.27336983  0.62841820  1
  Zn  Zn72  1  0.92291990  0.54510542  0.93387561  1
  Zn  Zn73  1  0.74827609  0.24191245  -0.00145961  1
  Zn  Zn74  1  0.50460012  0.74800705  0.27073303  1
  Zn  Zn75  1  0.62189177  0.25084546  0.87583238  1
  Zn  Zn76  1  0.18346767  0.19187986  0.18381173  1
  Zn  Zn77  1  0.18571888  0.19209562  0.69251427  1
  Zn  Zn78  1  0.18300468  0.67611528  0.18841473  1
  Zn  Zn79  1  0.19189484  0.68458672  0.67860908  1
  Zn  Zn80  1  0.69044671  0.18226659  0.19291244  1
  Zn  Zn81  1  0.68851229  0.18797277  0.69179705  1
  Zn  Zn82  1  0.67922900  0.69485745  0.18117118  1
  Zn  Zn83  1  0.68516435  0.69242399  0.67858566  1
  Zn  Zn84  1  0.31080184  0.30545373  0.30644938  1
  Zn  Zn85  1  0.31229006  0.30960608  0.82396340  1
  Zn  Zn86  1  0.30303137  0.80950525  0.30349325  1
  Zn  Zn87  1  0.32253654  0.80817826  0.79783767  1
  Zn  Zn88  1  0.80937453  0.31287998  0.31528100  1
  Zn  Zn89  1  0.80454862  0.31735248  0.80286427  1
  Zn  Zn90  1  0.81950176  0.80982834  0.31602814  1
  Zn  Zn91  1  0.81323834  0.81159954  0.81134533  1
  Zn  Zn92  1  0.18137162  0.43454841  0.43350260  1
  Zn  Zn93  1  0.16932952  0.45507060  0.91177712  1
  Zn  Zn94  1  0.18114245  0.93066276  0.44004650  1
  Zn  Zn95  1  0.19507653  0.93384894  0.93396533  1
  Zn  Zn96  1  0.68180629  0.44546185  0.40802131  1
  Zn  Zn97  1  0.69151351  0.44704735  0.98559545  1
  Zn  Zn98  1  0.73006081  0.96204108  0.47220246  1
  Zn  Zn99  1  0.68928770  0.92801020  0.93453754  1
  Zn  Zn100  1  0.31541674  0.05610301  0.07212971  1
  Zn  Zn101  1  0.29648781  0.07451424  0.43368537  1
  Zn  Zn102  1  0.30425085  0.55784887  0.06979254  1
  Zn  Zn103  1  0.30781386  0.56398274  0.55470515  1
  Zn  Zn104  1  0.81242023  0.05732906  0.06403987  1
  Zn  Zn105  1  0.81159797  0.07591142  0.57073518  1
  Zn  Zn106  1  0.80341402  0.56286851  0.08324327  1
  Zn  Zn107  1  0.81612844  0.56415171  0.56540415  1
  Zn  Zn108  1  0.44153289  0.43654033  0.17768659  1
  Zn  Zn109  1  0.44658330  0.44120877  0.68593146  1
  Zn  Zn110  1  0.42821529  0.95004261  0.19489273  1
  Zn  Zn111  1  0.40897317  0.95725336  0.54249260  1
  Zn  Zn112  1  0.94434838  0.43576102  0.19309884  1
  Zn  Zn113  1  0.92189490  0.42971090  0.70845051  1
  Zn  Zn114  1  0.93790047  0.94484793  0.19329866  1
  Zn  Zn115  1  0.93450989  0.93858357  0.68448047  1
  Zn  Zn116  1  0.05483845  0.06443698  0.31712462  1
  Zn  Zn117  1  0.06692041  0.06140684  0.81024692  1
  Zn  Zn118  1  0.07123539  0.55330156  0.32421013  1
  Zn  Zn119  1  0.05938132  0.57028043  0.84067342  1
  Zn  Zn120  1  0.57519906  0.05940271  0.30971114  1
  Zn  Zn121  1  0.56094438  0.05416284  0.81362501  1
  Zn  Zn122  1  0.55990742  0.55299098  0.30181273  1
  Zn  Zn123  1  0.58699559  0.58677247  0.80572060  1
  Zn  Zn124  1  0.43172682  0.17057380  0.44788251  1
  Zn  Zn125  1  0.44178668  0.17841453  0.93720495  1
  Zn  Zn126  1  0.41387018  0.67148176  0.42540850  1
  Zn  Zn127  1  0.44190702  0.69741047  0.93298505  1
  Zn  Zn128  1  0.93793986  0.20139107  0.45320102  1
  Zn  Zn129  1  0.93678887  0.18709974  0.93783678  1
  Zn  Zn130  1  0.95143811  0.68500734  0.42648302  1
  Zn  Zn131  1  0.94236557  0.70273868  0.93617204  1
  Zn  Zn132  1  0.06141721  0.30912056  0.06217426  1
  Zn  Zn133  1  0.06877390  0.30151025  0.58328003  1
  Zn  Zn134  1  0.07145587  0.81233300  0.06325166  1
  Zn  Zn135  1  0.06235922  0.80822027  0.55203272  1
  Zn  Zn136  1  0.55744207  0.29955969  0.06099802  1
  Zn  Zn137  1  0.56370356  0.30707834  0.56417837  1
  Zn  Zn138  1  0.55743053  0.80869568  0.07460191  1
  Zn  Zn139  1  0.52512032  0.78461438  0.48398835  1
  O  O140  1  0.11612692  0.11729818  0.12167854  1
  O  O141  1  0.11219427  0.13883202  0.61718602  1
  O  O142  1  0.11440193  0.61649562  0.12063166  1
  O  O143  1  0.12190136  0.62283059  0.61776442  1
  O  O144  1  0.63490400  0.11820998  0.11401847  1
  O  O145  1  0.61507746  0.12676857  0.62212244  1
  O  O146  1  0.61263525  0.62208861  0.12038292  1
  O  O147  1  0.61177559  0.62396335  0.60863455  1
  O  O148  1  0.38144729  0.35895095  0.39036008  1
  O  O149  1  0.36873987  0.37724556  0.90605666  1
  O  O150  1  0.39538268  0.87931537  0.33635486  1
  O  O151  1  0.36734682  0.88774019  0.87261535  1
  O  O152  1  0.86291905  0.39120312  0.37611410  1
  O  O153  1  0.88322182  0.35599167  0.88903153  1
  O  O154  1  0.88043138  0.87568246  0.39059787  1
  O  O155  1  0.88604931  0.87983658  0.88222470  1
  O  O156  1  0.24269416  0.00021780  0.36556144  1
  O  O157  1  0.25842989  0.00978814  0.87213620  1
  O  O158  1  0.23897077  0.49562901  0.35279165  1
  O  O159  1  0.25541077  0.52247462  0.87808673  1
  O  O160  1  0.75223974  0.01536022  0.37172439  1
  O  O161  1  0.75984106  0.00223194  0.87092073  1
  O  O162  1  0.76986696  0.52338079  0.38028851  1
  O  O163  1  0.74057383  0.46673267  0.86815471  1
  O  O164  1  0.22675114  0.49975037  0.13608297  1
  O  O165  1  0.25949468  0.48658188  0.63010224  1
  O  O166  1  0.23270953  1.00480860  0.13690651  1
  O  O167  1  0.26011417  0.99925735  0.63501619  1
  O  O168  1  0.72946069  0.47769708  0.10025258  1
  O  O169  1  0.73329687  0.50533404  0.61649529  1
  O  O170  1  0.76075786  0.98479380  0.13647781  1
  O  O171  1  0.75097454  1.00579866  0.63932109  1
  O  O172  1  0.01161495  0.35685910  0.24568082  1
  O  O173  1  0.01120242  0.36638124  0.76106336  1
  O  O174  1  0.00851985  0.87720764  0.25563891  1
  O  O175  1  0.01326159  0.87422564  0.75372885  1
  O  O176  1  0.48923232  0.37661853  0.26905698  1
  O  O177  1  0.49147003  0.36521861  0.75899225  1
  O  O178  1  0.45374490  0.87451085  0.28235375  1
  O  O179  1  0.55897019  0.88392043  0.67862407  1
  O  O180  1  0.48757259  0.11192249  0.25653967  1
  O  O181  1  0.49372026  0.12330687  0.74312396  1
  O  O182  1  0.49106967  0.61620634  0.23915810  1
  O  O183  1  0.49521773  0.63138546  0.72729431  1
  O  O184  1  1.00594576  0.14110296  0.23975232  1
  O  O185  1  0.98989680  0.12195927  0.74981453  1
  O  O186  1  0.99889716  0.62244350  0.25245097  1
  O  O187  1  1.00819247  0.64333205  0.75657610  1
  O  O188  1  0.37265599  0.22746630  0.01075552  1
  O  O189  1  0.38299248  0.26075867  0.51567430  1
  O  O190  1  0.36930345  0.76611254  -0.00190568  1
  O  O191  1  0.35655449  0.73147814  0.50598597  1
  O  O192  1  0.87442624  0.25227685  0.01569155  1
  O  O193  1  0.85589684  0.26136719  0.50602237  1
  O  O194  1  0.87170903  0.75776598  0.01263214  1
  O  O195  1  0.87728586  0.74960897  0.50938947  1
  O  O196  1  0.11510028  0.25622687  0.48881301  1
  O  O197  1  0.12911941  0.25172015  0.98734455  1
  O  O198  1  0.13906719  0.74344461  0.50403095  1
  O  O199  1  0.14448285  0.76172440  0.98613679  1
  O  O200  1  0.63304949  0.24093820  0.49498974  1
  O  O201  1  0.62217680  0.22388221  0.99798578  1
  O  O202  1  0.63661444  0.74431106  0.49869420  1
  O  O203  1  0.64471380  0.75805455  1.01230292  1
  O  O204  1  0.46930843  0.28073139  0.13055966  1
  O  O205  1  0.49110800  0.24971249  0.64278133  1
  O  O206  1  0.50582189  0.74145033  0.14911708  1
  O  O207  1  0.48832571  0.73350502  0.59143501  1
  O  O208  1  0.99189837  0.23841171  0.12938131  1
  O  O209  1  0.98537918  0.23803428  0.62559966  1
  O  O210  1  0.99130752  0.74900151  0.11850955  1
  O  O211  1  0.99358030  0.75436493  0.63548078  1
  O  O212  1  -0.00420260  0.24787010  0.36401255  1
  O  O213  1  0.01418341  0.25147456  0.87842471  1
  O  O214  1  -0.00533455  0.77645627  0.37859058  1
  O  O215  1  0.01295519  0.76543264  0.85997709  1
  O  O216  1  0.50467356  0.25244400  0.38338239  1
  O  O217  1  0.50067317  0.23940112  0.86075897  1
  O  O218  1  0.49590625  0.73843481  0.38514415  1
  O  O219  1  0.48829383  0.76917708  0.85560641  1
  O  O220  1  0.22693285  0.13588340  0.50419951  1
  O  O221  1  0.25098561  0.11327028  0.99122534  1
  O  O222  1  0.23537844  0.62987034  0.50062328  1
  O  O223  1  0.27071698  0.64213319  0.98193952  1
  O  O224  1  0.74191619  0.13410065  0.49369526  1
  O  O225  1  0.73983358  0.11632027  0.99295287  1
  O  O226  1  0.74225498  0.63510594  0.49586749  1
  O  O227  1  0.75094921  0.64077881  1.01207241  1
  O  O228  1  0.32428870  0.40963025  -0.03384579  1
  O  O229  1  0.26413650  0.37829050  0.50963448  1
  O  O230  1  0.26459015  0.86628631  -0.00069264  1
  O  O231  1  0.25153153  0.85680352  0.48724812  1
  O  O232  1  0.76319706  0.35835584  0.01014220  1
  O  O233  1  0.73240518  0.36697407  0.48611639  1
  O  O234  1  0.76422538  0.87203672  0.01464385  1
  O  O235  1  0.76093398  0.85544316  0.49083908  1
  O  O236  1  0.12462157  0.48310355  0.24375012  1
  O  O237  1  0.12416743  0.47786321  0.78130841  1
  O  O238  1  0.12960173  0.99798633  0.24558088  1
  O  O239  1  0.13796473  0.99212843  0.74787348  1
  O  O240  1  0.64263840  0.48068405  0.30287794  1
  O  O241  1  0.61753456  0.51127864  0.73010462  1
  O  O242  1  0.65235467  1.00567393  0.25032530  1
  O  O243  1  0.64112819  0.99831809  0.75717160  1
  O  O244  1  0.35171407  0.02057154  0.24307551  1
  O  O245  1  0.36431754  0.00621946  0.76119167  1
  O  O246  1  0.35487335  0.48413339  0.23680926  1
  O  O247  1  0.38597376  0.51924936  0.74779915  1
  O  O248  1  0.86018247  0.00251184  0.25194049  1
  O  O249  1  0.86844445  0.00635466  0.76126553  1
  O  O250  1  0.87823801  0.51588186  0.24490259  1
  O  O251  1  0.88320611  0.52836939  0.74433249  1
  O  O252  1  0.12290317  0.36028271  0.36559192  1
  O  O253  1  0.11706347  0.36011646  0.87623859  1
  O  O254  1  0.11349427  0.87682749  0.36158458  1
  O  O255  1  0.12323934  0.87168460  0.86521126  1
  O  O256  1  0.60716197  0.35402295  0.38172523  1
  O  O257  1  0.60657944  0.36787817  0.92505255  1
  O  O258  1  0.54138922  0.92938781  0.41301053  1
  O  O259  1  0.62793063  0.85457311  0.87640301  1
  O  O260  1  0.37296006  0.13070541  0.13670234  1
  O  O261  1  0.38839367  0.13621923  0.63861950  1
  O  O262  1  0.38568048  0.61144728  0.13487792  1
  O  O263  1  0.38482288  0.62240858  0.62641740  1
  O  O264  1  0.88116140  0.13272744  0.12422649  1
  O  O265  1  0.87916327  0.13446076  0.64195323  1
  O  O266  1  0.87447634  0.63634920  0.13643323  1
  O  O267  1  0.87409510  0.64291114  0.63625475  1
  O  O268  1  0.25735417  0.25169432  0.12133971  1
  O  O269  1  0.26506402  0.26210254  0.63740470  1
  O  O270  1  0.24557447  0.74003035  0.10700009  1
  O  O271  1  0.26042004  0.75615891  0.61708890  1
  O  O272  1  0.76504729  0.25073661  0.13005009  1
  O  O273  1  0.74265990  0.25110189  0.61100775  1
  O  O274  1  0.76380366  0.76538479  0.12279846  1
  O  O275  1  0.76194141  0.74898562  0.60842279  1
  O  O276  1  0.23631873  0.24856054  0.37722687  1
  O  O277  1  0.24535332  0.23137677  0.87893223  1
  O  O278  1  0.25167796  0.74173524  0.37940280  1
  O  O279  1  0.25041093  0.75199315  0.87438377  1
  O  O280  1  0.73913625  0.24131303  0.38211834  1
  O  O281  1  0.74340285  0.23616347  0.87404579  1
  O  O282  1  0.76198953  0.73557401  0.38745702  1
  O  O283  1  0.76258962  0.75780932  0.89859573  1
  O  O284  1  -0.00209812  0.12503981  0.01428501  1
  O  O285  1  0.00204408  0.12648417  0.51253747  1
  O  O286  1  0.01179517  0.61394303  -0.05782957  1
  O  O287  1  0.02070432  0.62488682  0.49149881  1
  O  O288  1  0.51263088  0.10586773  -0.00104982  1
  O  O289  1  0.51673739  0.13641944  0.51842341  1
  O  O290  1  0.49517410  0.64299674  0.01747556  1
  O  O291  1  0.50147525  0.60653547  0.49790766  1
  O  O292  1  0.49004618  0.37994662  0.50064399  1
  O  O293  1  0.53895812  0.37052884  0.96622883  1
  O  O294  1  0.50000352  0.89776878  0.48121641  1
  O  O295  1  0.48787407  0.88130271  1.00537004  1
  O  O296  1  0.99817721  0.40719655  0.55527869  1
  O  O297  1  0.98642946  0.36627378  0.99270425  1
  O  O298  1  0.99006055  0.88276800  0.49808664  1
  O  O299  1  0.99515170  0.86543769  0.98781873  1
  O  O300  1  0.50210180  0.47968750  0.38914476  1
  O  O301  1  0.55981564  0.51123433  0.89938922  1
  O  O302  1  0.50548796  0.99176743  0.38356360  1
  O  O303  1  0.48210766  1.00187068  0.88228741  1
  O  O304  1  0.98494103  0.49269699  0.36855592  1
  O  O305  1  0.99275187  0.47030928  0.87155958  1
  O  O306  1  0.99696680  0.98418076  0.37309396  1
  O  O307  1  0.99385196  0.99062283  0.86898429  1
  O  O308  1  0.00906241  0.01425449  0.13189253  1
  O  O309  1  -0.00775109  0.02325095  0.63149073  1
  O  O310  1  0.01739701  0.48676360  0.12163686  1
  O  O311  1  -0.00646648  0.46067904  0.60857419  1
  O  O312  1  0.49789136  -0.00488349  0.11365454  1
  O  O313  1  0.49252570  0.01432101  0.62266752  1
  O  O314  1  0.50449615  0.50806042  0.11750814  1
  O  O315  1  0.50745184  0.50865089  0.61113822  1
  O  O316  1  0.23584658  0.37677879  0.25106265  1
  O  O317  1  0.25233933  0.38029814  0.75047681  1
  O  O318  1  0.23419456  0.88887160  0.25403382  1
  O  O319  1  0.24041039  0.88543550  0.74901071  1
  O  O320  1  0.75566688  0.37528620  0.23374026  1
  O  O321  1  0.72070445  0.40968760  0.82158596  1
  O  O322  1  0.75555953  0.88077491  0.24598550  1
  O  O323  1  0.75955242  0.88717666  0.74854600  1
  O  O324  1  0.23612542  0.11724530  0.25583667  1
  O  O325  1  0.25700686  0.11382394  0.75040844  1
  O  O326  1  0.26031374  0.60917784  0.24148326  1
  O  O327  1  0.26775698  0.63103513  0.75297896  1
  O  O328  1  0.75571616  0.12244505  0.26798661  1
  O  O329  1  0.75873027  0.11533388  0.75851361  1
  O  O330  1  0.74863241  0.63493684  0.25843534  1
  O  O331  1  0.75624453  0.63412220  0.74975969  1
  O  O332  1  0.36620151  0.13788441  0.35921664  1
  O  O333  1  0.36339194  0.11676664  0.86898040  1
  O  O334  1  0.38024048  0.59817780  0.34720837  1
  O  O335  1  0.37389321  0.63887835  0.85529555  1
  O  O336  1  0.86559922  0.13461832  0.38625306  1
  O  O337  1  0.86877719  0.11311629  0.87481194  1
  O  O338  1  0.87360342  0.62509283  0.35821867  1
  O  O339  1  0.87191973  0.63191532  0.86314061  1
  O  O340  1  0.12684561  0.36342605  0.13795113  1
  O  O341  1  0.14169175  0.36974813  0.64543728  1
  O  O342  1  0.11304472  0.88978814  0.13906611  1
  O  O343  1  0.12055809  0.87546581  0.63340066  1
  O  O344  1  0.63798478  0.34980202  0.12493377  1
  O  O345  1  0.61749671  0.38877243  0.62406724  1
  O  O346  1  0.64139132  0.88028105  0.12117957  1
  O  O347  1  0.60929287  0.88598084  0.62629729  1
  O  O348  1  0.11646353  0.25427268  0.26082057  1
  O  O349  1  0.13757530  0.26546681  0.76942327  1
  O  O350  1  0.13442023  0.76603671  0.23988839  1
  O  O351  1  0.12202579  0.76377456  0.74993400  1
  O  O352  1  0.62226647  0.23661002  0.26840284  1
  O  O353  1  0.61225956  0.25282755  0.75276352  1
  O  O354  1  0.61120490  0.76659211  0.23547779  1
  O  O355  1  0.61567469  0.75525088  0.74162944  1
  O  O356  1  0.36825367  0.23424237  0.23773330  1
  O  O357  1  0.38254569  0.24179863  0.75246199  1
  O  O358  1  0.37134776  0.72973228  0.25184159  1
  O  O359  1  0.37806365  0.74422461  0.72001017  1
  O  O360  1  0.88654606  0.25668039  0.23934492  1
  O  O361  1  0.87405157  0.22600170  0.77248228  1
  O  O362  1  0.87992320  0.74324925  0.23953985  1
  O  O363  1  0.88836394  0.74662936  0.74454740  1
  O  O364  1  0.38513258  0.48559997  0.50489590  1
  O  O365  1  0.36431261  0.46704956  1.00456728  1
  O  O366  1  0.38446331  1.05362503  0.49731412  1
  O  O367  1  0.38099337  0.98851807  0.99524174  1
  O  O368  1  0.88143693  0.50951514  0.49143729  1
  O  O369  1  0.86353106  0.48186841  1.00583513  1
  O  O370  1  0.85392060  0.98440255  0.50903632  1
  O  O371  1  0.87429600  0.98826294  0.99148547  1
  O  O372  1  0.12942635  -0.01306824  0.01501985  1
  O  O373  1  0.12630900  0.01512440  0.49574187  1
  O  O374  1  0.13197985  0.49585191  0.00775715  1
  O  O375  1  0.13404801  0.50271564  0.50889319  1
  O  O376  1  0.61344863  -0.00143970  -0.00468463  1
  O  O377  1  0.63618916  0.01828016  0.50354398  1
  O  O378  1  0.60699123  0.52373533  -0.03790711  1
  O  O379  1  0.61589793  0.50545108  0.50199991  1
  O  O380  1  0.40866235  0.34223107  0.11491770  1
  O  O381  1  0.36897610  0.37124385  0.62312130  1
  O  O382  1  0.37074965  0.87806924  0.12020462  1
  O  O383  1  0.38452832  0.86378054  0.60223782  1
  O  O384  1  0.87515537  0.36500517  0.11749145  1
  O  O385  1  0.83912220  0.35656013  0.69887541  1
  O  O386  1  0.88195948  0.86632162  0.12066938  1
  O  O387  1  0.88059865  0.86155000  0.61318225  1
  O  O388  1  0.11161625  0.13989576  0.39045068  1
  O  O389  1  0.13636253  0.13048091  0.87185795  1
  O  O390  1  0.11043633  0.62614412  0.40006303  1
  O  O391  1  0.15199026  0.64278083  0.85885839  1
  O  O392  1  0.62258509  0.13302775  0.39165957  1
  O  O393  1  0.63451850  0.11730192  0.88186564  1
  O  O394  1  0.63877978  0.62190832  0.38120879  1
  O  O395  1  0.61387889  0.66870755  0.87936753  1
