# generated using pymatgen
data_V35Zn35O128
_symmetry_space_group_name_H-M   'P 1'
_cell_length_a   16.84785420
_cell_length_b   16.84439137
_cell_length_c   16.90652741
_cell_angle_alpha   89.97764401
_cell_angle_beta   90.10649853
_cell_angle_gamma   90.06053066
_symmetry_Int_Tables_number   1
_chemical_formula_structural   V35Zn35O128
_chemical_formula_sum   'V70 Zn70 O256'
_cell_volume   4797.92336141
_cell_formula_units_Z   2
loop_
 _symmetry_equiv_pos_site_id
 _symmetry_equiv_pos_as_xyz
  1  'x, y, z'
loop_
 _atom_site_type_symbol
 _atom_site_label
 _atom_site_symmetry_multiplicity
 _atom_site_fract_x
 _atom_site_fract_y
 _atom_site_fract_z
 _atom_site_occupancy
  V  V0  1  0.75076513  0.74031210  0.51512159  1
  V  V1  1  0.74652054  0.63299591  0.35839152  1
  V  V2  1  0.37751964  0.63003263  0.75024862  1
  V  V3  1  0.25771735  0.24475692  0.00707972  1
  V  V4  1  0.50768413  0.87080769  0.38906886  1
  V  V5  1  0.87450410  0.49795103  0.36875278  1
  V  V6  1  0.87422752  0.26038543  0.61388469  1
  V  V7  1  0.63223283  0.61781853  -0.00126205  1
  V  V8  1  0.84820964  0.38404296  0.00370056  1
  V  V9  1  0.12566783  0.50379126  0.62034554  1
  V  V10  1  0.88150837  0.87503650  0.50870527  1
  V  V11  1  0.37436360  -0.01929616  0.88106007  1
  V  V12  1  0.13550569  0.00391044  0.11873839  1
  V  V13  1  0.63902436  0.37846865  0.76049041  1
  V  V14  1  0.49585175  0.24085200  0.74884246  1
  V  V15  1  0.38186285  0.00346710  0.37650109  1
  V  V16  1  0.62660523  0.50197920  0.62294253  1
  V  V17  1  0.87641716  0.88543121  0.00651883  1
  V  V18  1  0.12063287  0.37219859  0.75659514  1
  V  V19  1  -0.00335638  0.50605242  0.50379254  1
  V  V20  1  0.87381353  0.00063042  0.86586413  1
  V  V21  1  0.37452872  0.13575923  0.24510361  1
  V  V22  1  0.24602840  0.00482340  0.26500976  1
  V  V23  1  0.50224013  0.75662732  0.26152160  1
  V  V24  1  0.00028370  0.86273133  0.36937545  1
  V  V25  1  0.88248290  0.00641402  0.36849283  1
  V  V26  1  0.62326775  0.13496491  0.00613280  1
  V  V27  1  0.74093538  0.13491992  0.87918673  1
  V  V28  1  0.37562339  0.23534475  0.61833503  1
  V  V29  1  0.50663988  0.74778529  0.73700169  1
  V  V30  1  0.49637757  0.62374931  0.13839323  1
  V  V31  1  0.75317889  0.48307176  0.24359987  1
  V  V32  1  0.50443054  -0.01509532  -0.00332815  1
  V  V33  1  0.26003789  0.37578502  0.61301563  1
  V  V34  1  0.51080567  0.37041626  0.37217007  1
  V  V35  1  0.01297470  0.11680225  0.62325465  1
  V  V36  1  0.35187698  0.75543901  0.62293575  1
  V  V37  1  0.62773310  0.88949888  0.74956007  1
  V  V38  1  0.87741527  0.75044676  0.13691987  1
  V  V39  1  0.86708652  0.25528135  0.12212104  1
  V  V40  1  0.25020494  -0.00301507  0.74162606  1
  V  V41  1  0.62241531  0.74841691  0.87261461  1
  V  V42  1  0.01423638  0.37543077  0.37919766  1
  V  V43  1  0.37336949  0.76469573  0.11666788  1
  V  V44  1  0.12452512  0.87852909  0.73060424  1
  V  V45  1  0.14026607  0.63312257  0.50006804  1
  V  V46  1  0.86817197  0.13096018  0.74675216  1
  V  V47  1  0.11647947  0.13141763  -0.01468449  1
  V  V48  1  0.47998169  0.12991199  0.11718414  1
  V  V49  1  0.74857024  0.75711049  0.00048085  1
  V  V50  1  0.73556299  0.11668567  0.39699872  1
  V  V51  1  0.25280517  0.62765610  0.88516707  1
  V  V52  1  0.74711428  0.88891175  0.62357467  1
  V  V53  1  0.25170490  0.50382151  0.75524437  1
  V  V54  1  0.62623493  0.48604113  0.12530473  1
  V  V55  1  0.12588009  0.76086329  0.88452925  1
  V  V56  1  -0.00481364  0.38390944  0.89275142  1
  V  V57  1  0.35278064  0.87452705  0.49950855  1
  V  V58  1  0.49022403  0.50279825  -0.01337024  1
  V  V59  1  0.13349629  0.12716618  0.48147818  1
  V  V60  1  -0.00049352  0.12409030  0.13387027  1
  V  V61  1  0.10790628  0.61286720  -0.00326286  1
  V  V62  1  0.00035905  0.62239530  0.14245722  1
  V  V63  1  0.24881712  0.64975153  0.35016397  1
  V  V64  1  0.12317541  0.86768360  0.24908356  1
  V  V65  1  0.01307147  0.26382864  0.24821083  1
  V  V66  1  0.26085075  0.13052783  0.87054161  1
  V  V67  1  0.24284508  0.39347980  0.12396338  1
  V  V68  1  -0.01028469  0.74077086  0.74234508  1
  V  V69  1  0.48889297  0.37333375  0.86898840  1
  Zn  Zn70  1  0.61024731  0.62469018  0.49836112  1
  Zn  Zn71  1  0.38330221  0.36149725  0.00422731  1
  Zn  Zn72  1  0.70225313  0.95546170  0.16868949  1
  Zn  Zn73  1  0.00185722  0.88482917  0.87411806  1
  Zn  Zn74  1  0.74753889  0.36506440  0.59402270  1
  Zn  Zn75  1  0.00719067  0.24647269  0.75712411  1
  Zn  Zn76  1  0.19049035  0.18928798  0.19098421  1
  Zn  Zn77  1  0.19534107  0.19028463  0.68917334  1
  Zn  Zn78  1  0.18870896  0.68721147  0.17105585  1
  Zn  Zn79  1  0.17698081  0.68726936  0.69415699  1
  Zn  Zn80  1  0.72203276  0.14055408  0.18905538  1
  Zn  Zn81  1  0.68948540  0.20166432  0.69534599  1
  Zn  Zn82  1  0.68497578  0.79105948  0.19374707  1
  Zn  Zn83  1  0.69345358  0.68105822  0.68792014  1
  Zn  Zn84  1  0.32033185  0.34238071  0.29562598  1
  Zn  Zn85  1  0.31376455  0.31418790  0.80774193  1
  Zn  Zn86  1  0.32097363  0.82116364  0.29245787  1
  Zn  Zn87  1  0.30676758  0.81077362  0.81035394  1
  Zn  Zn88  1  0.82662475  0.31059422  0.31061352  1
  Zn  Zn89  1  0.82149521  0.31168426  0.82337753  1
  Zn  Zn90  1  0.81201522  0.81706354  0.31953732  1
  Zn  Zn91  1  0.80622435  0.81067867  0.81345316  1
  Zn  Zn92  1  0.18826064  0.30750196  0.43616618  1
  Zn  Zn93  1  0.18828994  0.43293303  0.94102266  1
  Zn  Zn94  1  0.17320732  0.94107920  0.44121016  1
  Zn  Zn95  1  0.19126222  0.94302032  0.93896541  1
  Zn  Zn96  1  0.68769306  0.44526361  0.43608307  1
  Zn  Zn97  1  0.63712504  0.35164558  0.97710511  1
  Zn  Zn98  1  0.67996049  0.94620225  0.33073372  1
  Zn  Zn99  1  0.69068444  0.94219128  0.93228530  1
  Zn  Zn100  1  0.31627326  -0.06634728  0.06651957  1
  Zn  Zn101  1  0.30334365  0.06321327  0.55719519  1
  Zn  Zn102  1  0.31196243  0.56560866  0.06599590  1
  Zn  Zn103  1  0.31784482  0.56623112  0.56592615  1
  Zn  Zn104  1  0.81743641  0.06953703  0.05576196  1
  Zn  Zn105  1  0.81761134  0.06287407  0.55845461  1
  Zn  Zn106  1  0.81387551  0.56817833  0.07210078  1
  Zn  Zn107  1  0.79601214  0.53993455  0.54779130  1
  Zn  Zn108  1  0.42825771  0.43730887  0.17793602  1
  Zn  Zn109  1  0.43652765  0.44756901  0.69110408  1
  Zn  Zn110  1  0.53936316  0.94517128  0.19052036  1
  Zn  Zn111  1  0.43066909  0.92639075  0.69611444  1
  Zn  Zn112  1  0.93812302  0.43546336  0.18294265  1
  Zn  Zn113  1  0.93513361  0.44324608  0.68547634  1
  Zn  Zn114  1  0.93714575  0.94102401  0.18919689  1
  Zn  Zn115  1  0.93926875  0.93681935  0.68891191  1
  Zn  Zn116  1  0.05366889  0.05933080  0.31385861  1
  Zn  Zn117  1  0.05751934  0.05857393  0.80679165  1
  Zn  Zn118  1  0.06029510  0.57713470  0.32725432  1
  Zn  Zn119  1  0.05925476  0.56170071  0.81449536  1
  Zn  Zn120  1  0.58780209  0.11531671  0.27979232  1
  Zn  Zn121  1  0.55971606  0.06225246  0.81841926  1
  Zn  Zn122  1  0.57463986  0.56577799  0.30740940  1
  Zn  Zn123  1  0.56832102  0.56189828  0.81055562  1
  Zn  Zn124  1  0.32338307  0.19331331  0.42921552  1
  Zn  Zn125  1  0.43845568  0.18284052  0.93031196  1
  Zn  Zn126  1  0.40601055  0.69133840  0.42671659  1
  Zn  Zn127  1  0.44210321  0.69384316  0.93565561  1
  Zn  Zn128  1  0.94988059  0.19104042  0.44092802  1
  Zn  Zn129  1  0.93650650  0.19984271  0.93598723  1
  Zn  Zn130  1  0.92942979  0.68487350  0.43669539  1
  Zn  Zn131  1  0.95408826  0.71468645  0.95336162  1
  Zn  Zn132  1  0.06795518  0.30864620  0.05887998  1
  Zn  Zn133  1  0.06023534  0.30837556  0.56887263  1
  Zn  Zn134  1  0.06281706  0.81792443  0.06534862  1
  Zn  Zn135  1  0.05757004  0.80727777  0.56260969  1
  Zn  Zn136  1  0.60952727  0.26992242  0.13670606  1
  Zn  Zn137  1  0.53694487  0.35188538  0.59075199  1
  Zn  Zn138  1  0.56115519  0.80834391  0.06384379  1
  Zn  Zn139  1  0.56733587  0.81315327  0.55968350  1
  O  O140  1  0.11827933  0.11907331  0.11932339  1
  O  O141  1  0.11361008  0.12890265  0.63747959  1
  O  O142  1  0.10831991  0.63701416  0.10486913  1
  O  O143  1  0.13216800  0.61408543  0.61706259  1
  O  O144  1  0.61287490  0.11226697  0.10371488  1
  O  O145  1  0.63190490  0.12960771  0.62126752  1
  O  O146  1  0.60756474  0.61543952  0.10969895  1
  O  O147  1  0.62431652  0.60572060  0.63406645  1
  O  O148  1  0.40933298  0.37888555  0.39579757  1
  O  O149  1  0.38517697  0.37710084  0.87920738  1
  O  O150  1  0.37379356  0.87945199  0.38730813  1
  O  O151  1  0.36910993  0.88042983  0.87685040  1
  O  O152  1  0.88415351  0.39114793  0.37109548  1
  O  O153  1  0.88152641  0.37739405  0.89574473  1
  O  O154  1  0.88415778  0.88193720  0.38313788  1
  O  O155  1  0.86788610  0.89109388  0.87883234  1
  O  O156  1  0.24932578  0.00100872  0.36785689  1
  O  O157  1  0.26030166  0.00638498  0.87188049  1
  O  O158  1  0.19822233  0.48227069  0.30107381  1
  O  O159  1  0.24342076  0.51678833  0.86724326  1
  O  O160  1  0.76383736  0.01213146  0.37946587  1
  O  O161  1  0.76464391  0.01674487  0.87875608  1
  O  O162  1  0.75399894  0.50364217  0.35990377  1
  O  O163  1  0.77628399  0.51806255  0.86554440  1
  O  O164  1  0.24849887  0.49632858  0.12576373  1
  O  O165  1  0.24719639  0.49410690  0.63166962  1
  O  O166  1  0.23721256  1.00131659  0.13586324  1
  O  O167  1  0.25403149  1.00465840  0.64326540  1
  O  O168  1  0.73782397  0.50294723  0.13424584  1
  O  O169  1  0.73862062  0.48207777  0.62221965  1
  O  O170  1  0.76486372  1.04389888  0.14997885  1
  O  O171  1  0.75089360  0.98787487  0.61975928  1
  O  O172  1  0.00557509  0.37188507  0.25622415  1
  O  O173  1  0.01578475  0.38101499  0.74394158  1
  O  O174  1  0.00845967  0.87776379  0.25975731  1
  O  O175  1  0.01311495  0.87389998  0.75380980  1
  O  O176  1  0.49783731  0.36837944  0.26807911  1
  O  O177  1  0.50044398  0.37825110  0.76282068  1
  O  O178  1  0.50038913  0.86367394  0.26832228  1
  O  O179  1  0.51986495  0.86540928  0.74035190  1
  O  O180  1  0.48274369  0.11169352  0.23034284  1
  O  O181  1  0.50559432  0.14174371  0.75448050  1
  O  O182  1  0.49864579  0.62217121  0.24209457  1
  O  O183  1  0.48568235  0.63231284  0.75984044  1
  O  O184  1  1.00129609  0.13806074  0.23835307  1
  O  O185  1  0.98825929  0.12754078  0.74489476  1
  O  O186  1  1.01562458  0.63448220  0.24086200  1
  O  O187  1  1.00987187  0.64107618  0.75195778  1
  O  O188  1  0.36220500  0.24264264  -0.00739135  1
  O  O189  1  0.37836344  0.24642419  0.51862577  1
  O  O190  1  0.39604668  0.75447593  0.01694420  1
  O  O191  1  0.36514163  0.75856839  0.51403805  1
  O  O192  1  0.88099952  0.26628265  0.01291193  1
  O  O193  1  0.88390744  0.24990978  0.51524898  1
  O  O194  1  0.86330595  0.76158569  0.00023886  1
  O  O195  1  0.86347671  0.76240414  0.49387823  1
  O  O196  1  0.12532695  0.24112118  0.50394839  1
  O  O197  1  0.13740425  0.23643248  0.99549676  1
  O  O198  1  0.12051290  0.73124205  0.50701380  1
  O  O199  1  0.11731068  0.74517489  0.98721771  1
  O  O200  1  0.60053385  0.17471143  0.56068850  1
  O  O201  1  0.62216519  0.23921016  1.01238477  1
  O  O202  1  0.64088614  0.73884969  0.50824194  1
  O  O203  1  0.62819092  0.74070675  0.99475189  1
  O  O204  1  0.49741587  0.22847496  0.11914852  1
  O  O205  1  0.48590102  0.26075444  0.63700397  1
  O  O206  1  0.49901234  0.73720999  0.13545915  1
  O  O207  1  0.50122595  0.74700474  0.63466035  1
  O  O208  1  1.00481064  0.24727737  0.13443828  1
  O  O209  1  0.98850690  0.24196048  0.63562747  1
  O  O210  1  0.98511146  0.74404008  0.11416796  1
  O  O211  1  0.99616920  0.75490212  0.64224920  1
  O  O212  1  -0.01035082  0.26724995  0.36198157  1
  O  O213  1  -0.00456201  0.27464941  0.86866725  1
  O  O214  1  -0.00943816  0.76256101  0.37235819  1
  O  O215  1  0.01531675  0.75547042  0.86521716  1
  O  O216  1  0.51115566  0.26658076  0.36726892  1
  O  O217  1  0.49367986  0.26279610  0.86381442  1
  O  O218  1  0.48710853  0.75531919  0.37041262  1
  O  O219  1  0.51524276  0.74997495  0.86345791  1
  O  O220  1  0.24289540  0.13407884  0.49009066  1
  O  O221  1  0.23943775  0.13299974  0.98139308  1
  O  O222  1  0.24261363  0.62524863  0.50380736  1
  O  O223  1  0.24433514  0.62382012  0.98731766  1
  O  O224  1  0.75450892  0.13230645  0.49511011  1
  O  O225  1  0.73409766  0.12075304  0.99060304  1
  O  O226  1  0.76007324  0.63473893  0.49723030  1
  O  O227  1  0.73623658  0.63330682  1.00999394  1
  O  O228  1  0.25400294  0.35647158  -0.00517574  1
  O  O229  1  0.24552235  0.37888078  0.51587078  1
  O  O230  1  0.23108666  0.87884084  0.01900363  1
  O  O231  1  0.25370818  0.87580881  0.49687646  1
  O  O232  1  0.74967229  0.37279643  -0.00499631  1
  O  O233  1  0.73651593  0.35836238  0.48173916  1
  O  O234  1  0.75962868  0.87044124  -0.00224515  1
  O  O235  1  0.75743418  0.85974554  0.51651824  1
  O  O236  1  0.13802060  0.49266384  0.26054117  1
  O  O237  1  0.13383036  0.49847316  0.74066032  1
  O  O238  1  0.13308558  1.00399785  0.24411392  1
  O  O239  1  0.13323278  0.98550694  0.75696297  1
  O  O240  1  0.63278995  0.49833113  0.23197096  1
  O  O241  1  0.62510491  0.48733557  0.74457745  1
  O  O242  1  0.62013419  1.00566547  0.24933833  1
  O  O243  1  0.62251047  0.98853572  0.75416619  1
  O  O244  1  0.35705695  -0.00445951  0.26661039  1
  O  O245  1  0.35962850  -0.01177325  0.76213869  1
  O  O246  1  0.36596560  0.44497160  0.27098595  1
  O  O247  1  0.36378731  0.51704425  0.74535655  1
  O  O248  1  0.87794091  -0.00138420  0.26761807  1
  O  O249  1  0.87409718  0.01163311  0.75893441  1
  O  O250  1  0.86034428  0.49780083  0.25037796  1
  O  O251  1  0.88028546  0.53161101  0.74087606  1
  O  O252  1  0.11281754  0.37347837  0.37478888  1
  O  O253  1  0.11695616  0.38319954  0.86198143  1
  O  O254  1  0.11140908  0.87743956  0.36482736  1
  O  O255  1  0.12559127  0.86693677  0.87704659  1
  O  O256  1  0.61711959  0.37368897  0.36415976  1
  O  O257  1  0.60949616  0.37663961  0.86633662  1
  O  O258  1  0.60660556  0.88008035  0.39343764  1
  O  O259  1  0.63729349  0.86599678  0.85557840  1
  O  O260  1  0.37685425  0.12292049  0.13290998  1
  O  O261  1  0.36543028  0.13578166  0.62692712  1
  O  O262  1  0.39518910  0.62416103  0.11862227  1
  O  O263  1  0.36647005  0.64508903  0.63847587  1
  O  O264  1  0.89690811  0.14173313  0.10851092  1
  O  O265  1  0.87828124  0.13058805  0.63685193  1
  O  O266  1  0.88635151  0.64000555  0.12550785  1
  O  O267  1  0.83840031  0.58607278  0.69822510  1
  O  O268  1  0.25038419  0.24068168  0.10684289  1
  O  O269  1  0.26522942  0.26662770  0.63718962  1
  O  O270  1  0.27495162  0.74059444  0.12243106  1
  O  O271  1  0.25422424  0.75771403  0.63594868  1
  O  O272  1  0.76942407  0.23682992  0.12940208  1
  O  O273  1  0.76899108  0.25235582  0.62992352  1
  O  O274  1  0.76506758  0.75267572  0.11406278  1
  O  O275  1  0.75860499  0.74614918  0.61740327  1
  O  O276  1  0.27540356  0.27860488  0.37429766  1
  O  O277  1  0.25462313  0.23452205  0.86944694  1
  O  O278  1  0.25654936  0.75021377  0.35821708  1
  O  O279  1  0.23403730  0.73951013  0.86756606  1
  O  O280  1  0.76049404  0.21982362  0.34762299  1
  O  O281  1  0.75815610  0.23378418  0.88181603  1
  O  O282  1  0.75471401  0.73566070  0.37981414  1
  O  O283  1  0.73801400  0.75039680  0.88813049  1
  O  O284  1  0.01367177  0.13794031  0.00596148  1
  O  O285  1  0.01566388  0.13237278  0.51754230  1
  O  O286  1  0.00499395  0.61988851  -0.00912289  1
  O  O287  1  0.01135725  0.61088461  0.48315825  1
  O  O288  1  0.50477673  0.12009829  0.00045558  1
  O  O289  1  0.54726896  0.14140671  0.51942968  1
  O  O290  1  0.50760624  0.61337456  -0.00181946  1
  O  O291  1  0.47489029  0.61253393  0.49382797  1
  O  O292  1  0.52558222  0.36589702  0.47602000  1
  O  O293  1  0.50617559  0.38873908  0.98415535  1
  O  O294  1  0.48537457  0.86242055  0.49137802  1
  O  O295  1  0.51120068  0.88575189  0.99469855  1
  O  O296  1  1.00722838  0.38877318  0.48797710  1
  O  O297  1  1.00642157  0.38190092  0.99230111  1
  O  O298  1  0.98832302  0.86718276  0.49166723  1
  O  O299  1  0.98015319  0.86531808  0.99040588  1
  O  O300  1  0.51712118  0.47643292  0.36495333  1
  O  O301  1  0.49952394  0.49610462  0.88140588  1
  O  O302  1  0.48251807  0.98194694  0.37424939  1
  O  O303  1  0.48152508  1.00355200  0.87997670  1
  O  O304  1  0.99692195  0.49277210  0.37707507  1
  O  O305  1  0.99576537  0.48300938  0.86424827  1
  O  O306  1  0.99134012  0.98403819  0.37658698  1
  O  O307  1  0.98095257  1.00259736  0.87544385  1
  O  O308  1  0.00586698  0.01922674  0.13181654  1
  O  O309  1  -0.00518216  0.01753034  0.62920792  1
  O  O310  1  -0.00691939  0.52263748  0.13282904  1
  O  O311  1  0.00616464  0.49838337  0.60967017  1
  O  O312  1  0.49482171  0.00728950  0.10183331  1
  O  O313  1  0.48836301  0.01739759  0.63071931  1
  O  O314  1  0.50716384  0.50297117  0.11995003  1
  O  O315  1  0.52218738  0.46915912  0.61996552  1
  O  O316  1  0.23849955  0.35766720  0.21917819  1
  O  O317  1  0.24155897  0.38900744  0.75186836  1
  O  O318  1  0.23290741  0.89132304  0.25303752  1
  O  O319  1  0.23568423  0.88395137  0.75223351  1
  O  O320  1  0.74942655  0.38409290  0.25223881  1
  O  O321  1  0.73818589  0.36908899  0.76914881  1
  O  O322  1  0.73713726  0.87486882  0.25657516  1
  O  O323  1  0.74139425  0.86854827  0.73426715  1
  O  O324  1  0.26099081  0.11417099  0.24695344  1
  O  O325  1  0.23673056  0.10921684  0.76405163  1
  O  O326  1  0.23691045  0.62638421  0.25298840  1
  O  O327  1  0.25368202  0.62192180  0.75860850  1
  O  O328  1  0.77999311  0.15336625  0.29761914  1
  O  O329  1  0.75985503  0.12957817  0.76125598  1
  O  O330  1  0.74503315  0.62011370  0.26047936  1
  O  O331  1  0.78334057  0.62189863  0.74334299  1
  O  O332  1  0.38071049  0.11100205  0.36395101  1
  O  O333  1  0.36292753  0.11386565  0.87260313  1
  O  O334  1  0.34159294  0.61347039  0.37697467  1
  O  O335  1  0.35894076  0.64209450  0.86718156  1
  O  O336  1  0.89201754  0.10536925  0.39184709  1
  O  O337  1  0.87130640  0.12109847  0.86880312  1
  O  O338  1  0.86238282  0.60952156  0.37513643  1
  O  O339  1  0.82619402  0.56651317  0.88597360  1
  O  O340  1  0.14346026  0.37995846  0.09951014  1
  O  O341  1  0.13611293  0.38544473  0.63410031  1
  O  O342  1  0.10673821  0.89732238  0.13802513  1
  O  O343  1  0.12261555  0.87641625  0.63199938  1
  O  O344  1  0.62043746  0.38452625  0.11122837  1
  O  O345  1  0.63723767  0.37576388  0.64304464  1
  O  O346  1  0.62286404  0.87543949  0.13397141  1
  O  O347  1  0.63779052  0.87273112  0.63272015  1
  O  O348  1  0.11232036  0.24763933  0.25088910  1
  O  O349  1  0.12924371  0.26981839  0.74617916  1
  O  O350  1  0.12911256  0.77119051  0.23202461  1
  O  O351  1  0.11926628  0.76547132  0.75741633  1
  O  O352  1  0.63637735  0.20744070  0.22597129  1
  O  O353  1  0.60709115  0.26770386  0.74602552  1
  O  O354  1  0.60228029  0.73878089  0.25335094  1
  O  O355  1  0.62285551  0.74253668  0.75640063  1
  O  O356  1  0.37239324  0.23309980  0.25196691  1
  O  O357  1  0.38796555  0.25475899  0.74278685  1
  O  O358  1  0.39313934  0.74969603  0.23546189  1
  O  O359  1  0.38277112  0.75393975  0.73890106  1
  O  O360  1  0.89357959  0.26067191  0.22932562  1
  O  O361  1  0.87739481  0.23832723  0.74937132  1
  O  O362  1  0.87402301  0.76211163  0.23443197  1
  O  O363  1  0.89140107  0.75425106  0.76573296  1
  O  O364  1  0.43350975  0.55000282  0.51728284  1
  O  O365  1  0.39042543  0.50238811  0.99960844  1
  O  O366  1  0.36438039  0.98944031  0.48735733  1
  O  O367  1  0.38345038  0.99278490  0.98856065  1
  O  O368  1  0.89018174  0.50479612  0.49263334  1
  O  O369  1  0.86381127  0.48385376  1.01457311  1
  O  O370  1  0.86994754  0.97920394  0.49291720  1
  O  O371  1  0.87328695  0.98955828  0.99455453  1
  O  O372  1  0.12756679  0.01598826  0.01281068  1
  O  O373  1  0.13206507  0.02555540  0.50321213  1
  O  O374  1  0.12555284  0.51546342  -0.00744894  1
  O  O375  1  0.11589929  0.51047329  0.51006845  1
  O  O376  1  0.60896005  0.01079122  -0.02018417  1
  O  O377  1  0.53584337  -0.00599001  0.57891606  1
  O  O378  1  0.61964126  0.50872419  0.00757070  1
  O  O379  1  0.63000187  0.50807620  0.51360402  1
  O  O380  1  0.35832006  0.37726166  0.11303202  1
  O  O381  1  0.36286411  0.38371834  0.62562723  1
  O  O382  1  0.38065628  0.86662977  0.13162687  1
  O  O383  1  0.37524438  0.86710765  0.61212549  1
  O  O384  1  0.87358666  0.36711934  0.11455205  1
  O  O385  1  0.87550422  0.36412228  0.62989955  1
  O  O386  1  0.88133947  0.87082262  0.11273522  1
  O  O387  1  0.86835798  0.87876914  0.61639198  1
  O  O388  1  0.11386800  0.12977511  0.38279779  1
  O  O389  1  0.12533724  0.11606504  0.88359431  1
  O  O390  1  0.14602878  0.61877961  0.38894248  1
  O  O391  1  0.13129954  0.63473384  0.88318640  1
  O  O392  1  0.63557861  0.11426195  0.38542695  1
  O  O393  1  0.63537970  0.12865923  0.87811896  1
  O  O394  1  0.64188432  0.61389229  0.38403532  1
  O  O395  1  0.62370294  0.62947027  0.88977892  1
