# generated using pymatgen
data_V35Zn35O128
_symmetry_space_group_name_H-M   'P 1'
_cell_length_a   16.87157578
_cell_length_b   16.89425705
_cell_length_c   16.87405740
_cell_angle_alpha   89.81555294
_cell_angle_beta   89.88940954
_cell_angle_gamma   89.90954710
_symmetry_Int_Tables_number   1
_chemical_formula_structural   V35Zn35O128
_chemical_formula_sum   'V70 Zn70 O256'
_cell_volume   4809.61895406
_cell_formula_units_Z   2
loop_
 _symmetry_equiv_pos_site_id
 _symmetry_equiv_pos_as_xyz
  1  'x, y, z'
loop_
 _atom_site_type_symbol
 _atom_site_label
 _atom_site_symmetry_multiplicity
 _atom_site_fract_x
 _atom_site_fract_y
 _atom_site_fract_z
 _atom_site_occupancy
  V  V0  1  0.37643473  0.86687972  0.00922476  1
  V  V1  1  0.12508945  0.47102040  0.62558763  1
  V  V2  1  0.87172453  0.76733483  0.12001513  1
  V  V3  1  0.13398460  0.72684746  0.36835663  1
  V  V4  1  0.75055285  0.37028937  0.11782884  1
  V  V5  1  0.36853212  -0.01116479  0.38378118  1
  V  V6  1  0.25162403  0.00676172  0.24696108  1
  V  V7  1  0.49352552  0.62941665  0.11463369  1
  V  V8  1  0.73133053  0.62533656  0.87304915  1
  V  V9  1  0.38050782  0.12120514  0.73805693  1
  V  V10  1  0.11702411  0.62951782  -0.00019629  1
  V  V11  1  0.37591021  0.50216648  0.38089258  1
  V  V12  1  0.74435821  0.13005722  0.88458881  1
  V  V13  1  0.74809209  0.73309326  0.49687857  1
  V  V14  1  0.87293079  0.12237949  0.26214604  1
  V  V15  1  0.62482849  0.25627356  0.88871436  1
  V  V16  1  0.25617343  0.13357742  0.87807134  1
  V  V17  1  0.86091663  0.25470315  0.62764030  1
  V  V18  1  0.37514928  0.01059520  0.88327044  1
  V  V19  1  0.73381633  -0.00732813  0.75403132  1
  V  V20  1  0.75142626  0.00029891  0.26269898  1
  V  V21  1  0.62542265  0.86508833  0.24328421  1
  V  V22  1  0.86979736  0.24759759  0.11550448  1
  V  V23  1  0.49575519  0.75347819  0.74491785  1
  V  V24  1  -0.03885648  0.79104007  0.26835170  1
  V  V25  1  0.25368259  0.86401200  0.12081510  1
  V  V26  1  0.88441843  0.37462604  -0.00551303  1
  V  V27  1  0.26164497  0.36238103  0.09910772  1
  V  V28  1  0.51223075  0.25097550  0.73287366  1
  V  V29  1  0.32054125  0.30916408  0.68298870  1
  V  V30  1  0.88193207  0.73196920  0.62887412  1
  V  V31  1  0.37208577  0.49865430  0.85665639  1
  V  V32  1  0.88413526  0.51306511  0.86790983  1
  V  V33  1  0.86424565  0.36488641  0.49671526  1
  V  V34  1  0.50068668  0.86332412  0.38449989  1
  V  V35  1  0.50839716  0.00189984  0.50976863  1
  V  V36  1  0.49501156  0.74334951  0.24968635  1
  V  V37  1  0.11205104  0.49038356  0.11902146  1
  V  V38  1  0.62713041  0.50782789  0.11212126  1
  V  V39  1  0.12185876  0.26008836  0.86226741  1
  V  V40  1  0.01201379  0.24711773  0.24865251  1
  V  V41  1  0.87451387  0.49998379  0.37239560  1
  V  V42  1  0.36133914  0.61941469  0.24978065  1
  V  V43  1  0.50602763  0.01221330  0.01197800  1
  V  V44  1  0.49492992  0.61183728  0.60355945  1
  V  V45  1  0.12844250  0.87279737  0.25633806  1
  V  V46  1  0.74177116  0.50079189  0.73871496  1
  V  V47  1  0.59725341  0.36364904  0.24323607  1
  V  V48  1  0.12510408  0.00180633  0.11302534  1
  V  V49  1  0.00063613  0.12221549  0.11353944  1
  V  V50  1  0.13293230  0.11251557  0.49165833  1
  V  V51  1  0.74984222  0.88124349  0.60646151  1
  V  V52  1  0.87014059  0.11973644  0.75087541  1
  V  V53  1  0.50940363  0.87814642  0.87934068  1
  V  V54  1  0.27540367  0.75761413  0.53570059  1
  V  V55  1  0.73285963  0.61702579  0.37033968  1
  V  V56  1  0.38231643  0.37334416  0.49689760  1
  V  V57  1  -0.00344624  0.37344202  0.85264180  1
  V  V58  1  0.24194153  0.26038326  0.49745018  1
  V  V59  1  0.88326812  0.61281597  0.23272184  1
  V  V60  1  0.25518212  0.64878074  0.89200201  1
  V  V61  1  0.01565329  0.36542722  0.37167712  1
  V  V62  1  0.12982843  0.13417584  -0.00019453  1
  V  V63  1  0.74393217  0.75720163  0.00081434  1
  V  V64  1  -0.02616310  0.00019696  0.48577173  1
  V  V65  1  0.00699463  0.50765755  0.49805623  1
  V  V66  1  0.00732399  0.12633476  0.62630585  1
  V  V67  1  0.38596848  0.13128530  0.24849988  1
  V  V68  1  0.49011197  0.49269221  -0.01088319  1
  V  V69  1  0.62997709  0.01113100  0.12930284  1
  Zn  Zn70  1  0.61948545  0.38548211  0.75928080  1
  Zn  Zn71  1  0.23390253  0.46324904  0.24862156  1
  Zn  Zn72  1  0.73730652  0.49463660  0.25185318  1
  Zn  Zn73  1  0.62711617  0.75903180  0.87431086  1
  Zn  Zn74  1  0.25043722  0.13373475  0.37133375  1
  Zn  Zn75  1  0.50704570  0.15038525  0.13485053  1
  Zn  Zn76  1  0.21723246  0.23028656  0.20620793  1
  Zn  Zn77  1  0.19086610  0.18321411  0.68900678  1
  Zn  Zn78  1  0.17834129  0.68246020  0.17702342  1
  Zn  Zn79  1  0.33216966  0.67946028  0.70780537  1
  Zn  Zn80  1  0.68912154  0.19924627  0.27884425  1
  Zn  Zn81  1  0.69222862  0.19085491  0.68957739  1
  Zn  Zn82  1  0.69026752  0.68288630  0.18488982  1
  Zn  Zn83  1  0.67552591  0.69106546  0.68737206  1
  Zn  Zn84  1  0.31763356  0.31899491  0.31474586  1
  Zn  Zn85  1  0.30235133  0.33254812  0.89833584  1
  Zn  Zn86  1  0.31261349  0.80682260  0.31349978  1
  Zn  Zn87  1  0.31166631  0.82555754  0.82527283  1
  Zn  Zn88  1  0.82545916  0.31665676  0.29916712  1
  Zn  Zn89  1  0.80528097  0.31553739  0.80690919  1
  Zn  Zn90  1  0.79449465  0.80183486  0.30833504  1
  Zn  Zn91  1  0.81268294  0.80201699  0.80016586  1
  Zn  Zn92  1  0.19343231  0.44536146  0.43559038  1
  Zn  Zn93  1  0.18108918  0.45049885  0.93476664  1
  Zn  Zn94  1  0.18860534  0.92310894  0.44730672  1
  Zn  Zn95  1  0.18968486  0.93346707  0.93019516  1
  Zn  Zn96  1  0.69103290  0.32344959  0.41398594  1
  Zn  Zn97  1  0.69205668  0.44021249  0.93715928  1
  Zn  Zn98  1  0.67978484  0.93023725  0.43637042  1
  Zn  Zn99  1  0.69642594  0.94485833  0.94188297  1
  Zn  Zn100  1  0.31364582  0.07223256  0.06539373  1
  Zn  Zn101  1  0.30547848  0.05087882  0.56417813  1
  Zn  Zn102  1  0.30474967  0.55112079  0.06584655  1
  Zn  Zn103  1  0.29991751  0.57054990  0.56152412  1
  Zn  Zn104  1  0.80157163  0.06927465  0.07459074  1
  Zn  Zn105  1  0.80858699  0.06253054  0.56753263  1
  Zn  Zn106  1  0.81191375  0.56047785  0.04798551  1
  Zn  Zn107  1  0.81700714  0.56040074  0.55530439  1
  Zn  Zn108  1  0.42860599  0.44211775  0.17603074  1
  Zn  Zn109  1  0.44573010  0.44461738  0.67991222  1
  Zn  Zn110  1  0.43832217  0.93836274  0.19276893  1
  Zn  Zn111  1  0.43502731  0.92749480  0.69001393  1
  Zn  Zn112  1  0.93917928  0.43052520  0.18727392  1
  Zn  Zn113  1  0.93112979  0.44653102  0.68201844  1
  Zn  Zn114  1  0.93516084  0.94521006  0.18383510  1
  Zn  Zn115  1  0.92446957  0.94043464  0.66873018  1
  Zn  Zn116  1  0.06215403  0.06167804  0.30752011  1
  Zn  Zn117  1  0.06231194  0.08120864  0.80750298  1
  Zn  Zn118  1  0.06121018  0.55287734  0.30169637  1
  Zn  Zn119  1  0.19938645  0.53883968  0.76920699  1
  Zn  Zn120  1  0.55825626  0.05328461  0.32034465  1
  Zn  Zn121  1  0.56163564  0.06834529  0.81549450  1
  Zn  Zn122  1  0.55369214  0.54675699  0.30489194  1
  Zn  Zn123  1  0.55493199  0.57221336  0.80124084  1
  Zn  Zn124  1  0.41371501  0.17050549  0.45875221  1
  Zn  Zn125  1  0.45305783  0.19435721  0.93496434  1
  Zn  Zn126  1  0.42568559  0.68658438  0.43743131  1
  Zn  Zn127  1  0.43330899  0.68781972  0.93084938  1
  Zn  Zn128  1  0.94271844  0.18766624  0.44098013  1
  Zn  Zn129  1  0.93852875  0.19081429  0.93300192  1
  Zn  Zn130  1  0.93021619  0.68839360  0.43300783  1
  Zn  Zn131  1  0.93507406  0.68743617  0.94121152  1
  Zn  Zn132  1  0.06388689  0.31287609  0.05854616  1
  Zn  Zn133  1  0.05550903  0.30605551  0.55850669  1
  Zn  Zn134  1  0.06378960  0.79928925  0.08173022  1
  Zn  Zn135  1  0.03996389  0.80392899  0.53259834  1
  Zn  Zn136  1  0.56349392  0.32022203  0.05815958  1
  Zn  Zn137  1  0.55126779  0.29223359  0.54682797  1
  Zn  Zn138  1  0.56273226  0.81417354  0.06411986  1
  Zn  Zn139  1  0.57378474  0.78962925  0.57456713  1
  O  O140  1  0.11791127  0.11887891  0.11360605  1
  O  O141  1  0.11207739  0.12317916  0.62761233  1
  O  O142  1  0.12757664  0.60576784  0.11390362  1
  O  O143  1  0.09511636  0.67769825  0.69057501  1
  O  O144  1  0.61811971  0.11034091  0.13366922  1
  O  O145  1  0.65457163  0.12908895  0.58954566  1
  O  O146  1  0.61387275  0.61286905  0.12923825  1
  O  O147  1  0.58524694  0.66992211  0.61576536  1
  O  O148  1  0.37861002  0.37903633  0.39048577  1
  O  O149  1  0.38677332  0.39802331  0.87186232  1
  O  O150  1  0.38712497  0.88267219  0.36196499  1
  O  O151  1  0.38284861  0.89211187  0.89591725  1
  O  O152  1  0.88171193  0.38241311  0.38014353  1
  O  O153  1  0.88402005  0.36787339  0.87612088  1
  O  O154  1  0.89720406  0.85395335  0.31446312  1
  O  O155  1  0.91876376  0.83316722  0.85992286  1
  O  O156  1  0.25894108  -0.01281778  0.36627685  1
  O  O157  1  0.26739850  0.01676198  0.88480875  1
  O  O158  1  0.26568373  0.48244284  0.35791136  1
  O  O159  1  0.26028914  0.49667717  0.86213936  1
  O  O160  1  0.74055698  -0.00243341  0.36194081  1
  O  O161  1  0.74487222  0.01830602  0.86532981  1
  O  O162  1  0.76201230  0.50854422  0.37267190  1
  O  O163  1  0.75593603  0.51488568  0.86945049  1
  O  O164  1  0.24328284  0.47900473  0.12907707  1
  O  O165  1  0.22234936  0.50460260  0.61686818  1
  O  O166  1  0.24406174  0.99914746  0.13283246  1
  O  O167  1  0.26627247  0.96724170  0.64340358  1
  O  O168  1  0.73532598  0.49814443  0.11617370  1
  O  O169  1  0.75575060  0.51485509  0.64055044  1
  O  O170  1  0.73594547  0.99974328  0.13597538  1
  O  O171  1  0.75271053  0.98595152  0.63690110  1
  O  O172  1  -0.00615287  0.36110102  0.26198364  1
  O  O173  1  -0.00984437  0.37211933  0.75441164  1
  O  O174  1  0.02117407  0.88045100  0.23756760  1
  O  O175  1  0.01000409  0.91898908  0.75613531  1
  O  O176  1  0.49749307  0.37260903  0.23472723  1
  O  O177  1  0.50701445  0.35792704  0.73141700  1
  O  O178  1  0.50413029  0.86188114  0.25179071  1
  O  O179  1  0.49385392  0.88338313  0.77804746  1
  O  O180  1  0.49019858  0.11761898  0.25103491  1
  O  O181  1  0.48809682  0.13752124  0.75722707  1
  O  O182  1  0.49489587  0.63018173  0.24240463  1
  O  O183  1  0.49175249  0.64836224  0.74058556  1
  O  O184  1  0.99031807  0.12584799  0.23803678  1
  O  O185  1  0.98473912  0.12171800  0.73641414  1
  O  O186  1  0.98229429  0.61688863  0.24293999  1
  O  O187  1  1.05632068  0.69178633  0.75005522  1
  O  O188  1  0.41467051  0.24798874  0.03125638  1
  O  O189  1  0.36453063  0.26225741  0.50275472  1
  O  O190  1  0.38440609  0.76940627  0.00472231  1
  O  O191  1  0.36657634  0.76770484  0.48795410  1
  O  O192  1  0.87984563  0.25740292  0.00682857  1
  O  O193  1  0.87512656  0.25834521  0.50364879  1
  O  O194  1  0.87430928  0.75019138  0.01653761  1
  O  O195  1  0.85976939  0.74902893  0.49940924  1
  O  O196  1  0.13831433  0.23571535  0.50905398  1
  O  O197  1  0.11763228  0.23831228  0.98437722  1
  O  O198  1  0.09832147  0.74254630  0.46250953  1
  O  O199  1  0.12792046  0.73096164  1.02073368  1
  O  O200  1  0.61451647  0.24309940  0.46359782  1
  O  O201  1  0.62135598  0.24946960  0.98850398  1
  O  O202  1  0.65052838  0.76042910  0.49078746  1
  O  O203  1  0.63960158  0.75357724  1.00146573  1
  O  O204  1  0.47168428  0.25354960  0.09038343  1
  O  O205  1  0.51973040  0.23054856  0.63401220  1
  O  O206  1  0.50483626  0.73620144  0.13211086  1
  O  O207  1  0.48555116  0.79419473  0.65061988  1
  O  O208  1  0.99529090  0.24158198  0.12801683  1
  O  O209  1  0.98609817  0.23044779  0.61348583  1
  O  O210  1  0.97831728  0.76140288  0.14961883  1
  O  O211  1  0.97945599  0.76508886  0.61719632  1
  O  O212  1  -0.00091950  0.25820079  0.36713279  1
  O  O213  1  0.01067139  0.25925868  0.87100642  1
  O  O214  1  0.00223428  0.73966882  0.34637412  1
  O  O215  1  -0.03104121  0.77558044  0.86361597  1
  O  O216  1  0.56885571  0.20235601  0.40327289  1
  O  O217  1  0.52007781  0.24851499  0.86130249  1
  O  O218  1  0.49540370  0.75752599  0.36569068  1
  O  O219  1  0.50262069  0.76835520  0.88234823  1
  O  O220  1  0.24447775  0.13133117  0.50612961  1
  O  O221  1  0.24236486  0.12691800  0.99142365  1
  O  O222  1  0.24434305  0.66042388  0.51728780  1
  O  O223  1  0.24882298  0.62176556  0.99731566  1
  O  O224  1  0.70687858  0.12152083  0.53409333  1
  O  O225  1  0.76144244  0.12186042  0.98281674  1
  O  O226  1  0.74675433  0.62379820  0.48478562  1
  O  O227  1  0.75872376  0.63785367  0.98033462  1
  O  O228  1  0.25225713  0.37755135  -0.00742824  1
  O  O229  1  0.25084855  0.36283223  0.50227952  1
  O  O230  1  0.26355916  0.88278357  0.01163191  1
  O  O231  1  0.21456304  0.84230599  0.51768220  1
  O  O232  1  0.76220949  0.37890530  0.00950684  1
  O  O233  1  0.76501606  0.37400429  0.48928176  1
  O  O234  1  0.75747155  0.85638481  -0.01588720  1
  O  O235  1  0.75544716  0.87490432  0.50293793  1
  O  O236  1  0.12366616  0.49519871  0.22859901  1
  O  O237  1  0.10662384  0.50000143  0.72312022  1
  O  O238  1  0.13430714  0.99395631  0.23988800  1
  O  O239  1  0.06573550  0.96715875  0.77899359  1
  O  O240  1  0.61863625  0.48654297  0.22798451  1
  O  O241  1  0.63386380  0.50291806  0.75334026  1
  O  O242  1  0.62722731  0.99277732  0.24409044  1
  O  O243  1  0.63446268  1.00800972  0.74914884  1
  O  O244  1  0.36755749  0.00593396  0.25820627  1
  O  O245  1  0.39110263  0.01676244  0.77063134  1
  O  O246  1  0.37424812  0.51096276  0.25457378  1
  O  O247  1  0.38695669  0.50725328  0.75791857  1
  O  O248  1  0.86747608  0.01380613  0.24470904  1
  O  O249  1  0.86460842  0.01617841  0.74515174  1
  O  O250  1  0.87236177  0.50214266  0.25308089  1
  O  O251  1  0.86065609  0.49518551  0.76181954  1
  O  O252  1  0.11375236  0.37614035  0.37569493  1
  O  O253  1  0.11200897  0.36792262  0.87194358  1
  O  O254  1  0.12803075  0.87758477  0.35639670  1
  O  O255  1  0.07193382  0.87740841  0.92563584  1
  O  O256  1  0.62073073  0.37744842  0.34137404  1
  O  O257  1  0.63669689  0.36114053  0.87513466  1
  O  O258  1  0.60587383  0.88070581  0.35750496  1
  O  O259  1  0.61127856  0.88298267  0.88887289  1
  O  O260  1  0.37870951  0.12295724  0.14425133  1
  O  O261  1  0.37067802  0.10858680  0.64037279  1
  O  O262  1  0.38860421  0.61536137  0.13589221  1
  O  O263  1  0.38776517  0.61882080  0.62483272  1
  O  O264  1  0.88450477  0.13035816  0.12286662  1
  O  O265  1  0.87218875  0.13750810  0.63210815  1
  O  O266  1  0.86762108  0.61619575  0.13154419  1
  O  O267  1  0.88588176  0.63188543  0.61017747  1
  O  O268  1  0.24748317  0.25948592  0.10187569  1
  O  O269  1  0.25710836  0.25035128  0.62215005  1
  O  O270  1  0.25105182  0.76662670  0.13082697  1
  O  O271  1  0.28784026  0.76034628  0.63697294  1
  O  O272  1  0.76668254  0.25705094  0.12767474  1
  O  O273  1  0.76096278  0.25417057  0.61903608  1
  O  O274  1  0.75855476  0.74317124  0.11149918  1
  O  O275  1  0.75751388  0.73910336  0.60764143  1
  O  O276  1  0.25222735  0.24918716  0.39385431  1
  O  O277  1  0.23510493  0.24440905  0.87908373  1
  O  O278  1  0.23333999  0.75072865  0.37074556  1
  O  O279  1  0.26243372  0.74767728  0.89726211  1
  O  O280  1  0.75407596  0.25188440  0.35516446  1
  O  O281  1  0.73931180  0.23907095  0.86648551  1
  O  O282  1  0.75524149  0.72539253  0.37925501  1
  O  O283  1  0.74915998  0.74005630  0.87828520  1
  O  O284  1  0.00755368  0.12594156  0.00540903  1
  O  O285  1  0.01656345  0.11860166  0.50370773  1
  O  O286  1  0.01605454  0.62674522  -0.01314323  1
  O  O287  1  -0.00366146  0.60500082  0.48347817  1
  O  O288  1  0.50545927  0.11304128  0.00678471  1
  O  O289  1  0.48895636  0.10235777  0.50381803  1
  O  O290  1  0.49601246  0.62724817  0.01261626  1
  O  O291  1  0.48873740  0.61815332  0.50212487  1
  O  O292  1  0.48137416  0.37399641  0.51040145  1
  O  O293  1  0.50344181  0.39433861  0.99219824  1
  O  O294  1  0.50783669  0.86902064  0.48455095  1
  O  O295  1  0.49081075  0.88571088  1.00152877  1
  O  O296  1  0.99322586  0.37402182  0.48285263  1
  O  O297  1  0.98826745  0.37226079  0.98836160  1
  O  O298  1  0.99527562  0.90367823  0.50825912  1
  O  O299  1  1.02529616  0.87153447  0.98537886  1
  O  O300  1  0.47669551  0.49716138  0.37193957  1
  O  O301  1  0.49040933  0.51922133  0.88398780  1
  O  O302  1  0.48683726  0.98676681  0.38577177  1
  O  O303  1  0.49914686  0.99845583  0.89386034  1
  O  O304  1  0.99549672  0.48586022  0.37759085  1
  O  O305  1  0.98511230  0.48279111  0.86556154  1
  O  O306  1  1.00255876  1.00900996  0.38831138  1
  O  O307  1  0.90691032  0.99181441  0.94523186  1
  O  O308  1  0.01236070  0.00966330  0.12637018  1
  O  O309  1  -0.01803416  0.02210598  0.60749515  1
  O  O310  1  0.01067790  0.48569931  0.11969881  1
  O  O311  1  0.00596419  0.49240818  0.60492021  1
  O  O312  1  0.50662392  -0.00040285  0.11969749  1
  O  O313  1  0.48700512  -0.02371903  0.60531616  1
  O  O314  1  0.50676590  0.50972769  0.11047309  1
  O  O315  1  0.51671775  0.51543527  0.62711597  1
  O  O316  1  0.24886805  0.34689610  0.23001597  1
  O  O317  1  0.26914001  0.35379329  0.75228488  1
  O  O318  1  0.24610339  0.88436019  0.23864585  1
  O  O319  1  0.21387491  0.88941397  0.82248909  1
  O  O320  1  0.75680527  0.38175836  0.22679845  1
  O  O321  1  0.74238491  0.39390030  0.74940979  1
  O  O322  1  0.73077774  0.87930794  0.25468859  1
  O  O323  1  0.75099512  0.89363733  0.77106095  1
  O  O324  1  0.25671669  0.11885751  0.25244168  1
  O  O325  1  0.26989588  0.13304064  0.76373394  1
  O  O326  1  0.26388661  0.62892023  0.23606191  1
  O  O327  1  0.25115515  0.63831180  0.77808401  1
  O  O328  1  0.76490211  0.11699174  0.24662795  1
  O  O329  1  0.75594703  0.11684297  0.75251415  1
  O  O330  1  0.75595574  0.61725880  0.25758176  1
  O  O331  1  0.73908450  0.62121541  0.76317833  1
  O  O332  1  0.37035228  0.10473376  0.37101467  1
  O  O333  1  0.37183526  0.12910975  0.88092494  1
  O  O334  1  0.36904174  0.61273679  0.36331398  1
  O  O335  1  0.36219896  0.61371618  0.88545110  1
  O  O336  1  0.88225339  0.13048103  0.35947938  1
  O  O337  1  0.86666573  0.13823940  0.85655906  1
  O  O338  1  0.87438440  0.61098945  0.36066897  1
  O  O339  1  0.88019883  0.61438135  0.87041144  1
  O  O340  1  0.13661985  0.38306144  0.10805294  1
  O  O341  1  0.12284898  0.37053437  0.62494037  1
  O  O342  1  0.13951934  0.88223973  0.12747555  1
  O  O343  1  0.15123122  0.84127207  0.70695446  1
  O  O344  1  0.63156404  0.38486656  0.12388273  1
  O  O345  1  0.63140842  0.37565713  0.60241264  1
  O  O346  1  0.61601407  0.88505135  0.14002768  1
  O  O347  1  0.65593593  0.85547090  0.63205448  1
  O  O348  1  0.11030069  0.23146398  0.24688657  1
  O  O349  1  0.12516544  0.24155659  0.76416391  1
  O  O350  1  0.12836330  0.76434303  0.25037579  1
  O  O351  1  0.15102201  0.83173833  0.77966161  1
  O  O352  1  0.61337328  0.26356719  0.22310545  1
  O  O353  1  0.62029561  0.25159449  0.75216417  1
  O  O354  1  0.61892481  0.75908567  0.24317477  1
  O  O355  1  0.60400641  0.75574029  0.76014827  1
  O  O356  1  0.37577361  0.22800179  0.27082773  1
  O  O357  1  0.38993736  0.24278890  0.73537636  1
  O  O358  1  0.38408135  0.73403633  0.25472096  1
  O  O359  1  0.38903871  0.76191827  0.77316007  1
  O  O360  1  0.88716118  0.23625072  0.23609226  1
  O  O361  1  0.86756150  0.24496642  0.73397869  1
  O  O362  1  0.86649473  0.73025227  0.23577444  1
  O  O363  1  0.86602116  0.73256955  0.72984489  1
  O  O364  1  0.35790212  0.48848170  0.48921522  1
  O  O365  1  0.38831598  0.50298870  0.99790118  1
  O  O366  1  0.36811807  0.98957136  0.48667324  1
  O  O367  1  0.38957214  1.00227343  1.00154370  1
  O  O368  1  0.88588884  0.48656436  0.49165573  1
  O  O369  1  0.86922256  0.48881723  0.97614631  1
  O  O370  1  0.87335121  1.01808125  0.48656824  1
  O  O371  1  0.87080164  0.97650417  1.00850025  1
  O  O372  1  0.13506559  0.00882169  0.00727145  1
  O  O373  1  0.13995115  0.01257343  0.50658630  1
  O  O374  1  0.12459741  0.51108842  0.00899024  1
  O  O375  1  0.11258339  0.49215341  0.50387830  1
  O  O376  1  0.61776385  -0.00707276  0.01813630  1
  O  O377  1  0.60817182  -0.00484890  0.49685911  1
  O  O378  1  0.61621800  0.50108513  0.00686303  1
  O  O379  1  0.64045070  0.43891178  0.56369777  1
  O  O380  1  0.36082642  0.37848063  0.11334203  1
  O  O381  1  0.36714650  0.38049713  0.61943300  1
  O  O382  1  0.36550108  0.88302068  0.11929507  1
  O  O383  1  0.31449661  0.91122964  0.66473407  1
  O  O384  1  0.87291247  0.36755868  0.11385994  1
  O  O385  1  0.88151609  0.36464506  0.60863251  1
  O  O386  1  0.86536054  0.86657689  0.13319304  1
  O  O387  1  0.85099596  0.85808021  0.63918460  1
  O  O388  1  0.13210051  0.11831773  0.38783163  1
  O  O389  1  0.13289609  0.12938804  0.87837938  1
  O  O390  1  0.12948122  0.62797187  0.35285783  1
  O  O391  1  0.14748642  0.62465128  0.89322065  1
  O  O392  1  0.61822525  0.14492370  0.36920188  1
  O  O393  1  0.63704183  0.13558891  0.87527997  1
  O  O394  1  0.63476809  0.60950471  0.36223831  1
  O  O395  1  0.63043518  0.62783818  0.87988217  1
