# generated using pymatgen
data_V35Zn35O128
_symmetry_space_group_name_H-M   'P 1'
_cell_length_a   17.05857512
_cell_length_b   16.97983825
_cell_length_c   16.94170219
_cell_angle_alpha   90.23264096
_cell_angle_beta   90.51983471
_cell_angle_gamma   90.10496520
_symmetry_Int_Tables_number   1
_chemical_formula_structural   V35Zn35O128
_chemical_formula_sum   'V70 Zn70 O256'
_cell_volume   4906.94432863
_cell_formula_units_Z   2
loop_
 _symmetry_equiv_pos_site_id
 _symmetry_equiv_pos_as_xyz
  1  'x, y, z'
loop_
 _atom_site_type_symbol
 _atom_site_label
 _atom_site_symmetry_multiplicity
 _atom_site_fract_x
 _atom_site_fract_y
 _atom_site_fract_z
 _atom_site_occupancy
  V  V0  1  0.12583019  0.11051760  0.51959445  1
  V  V1  1  0.88051108  0.63276821  0.25260101  1
  V  V2  1  0.38784369  0.02194132  0.36311470  1
  V  V3  1  0.12128861  0.50182263  0.12124683  1
  V  V4  1  0.88816040  0.10084062  0.27030685  1
  V  V5  1  0.14948423  0.37910121  0.74587739  1
  V  V6  1  0.49446746  0.74734320  0.26696684  1
  V  V7  1  0.35106502  0.11693909  0.73862753  1
  V  V8  1  0.71192795  0.00280191  0.29148872  1
  V  V9  1  0.13116272  0.38883975  0.26810403  1
  V  V10  1  0.49602737  0.63111003  0.12736146  1
  V  V11  1  0.88588907  0.61766613  0.73960997  1
  V  V12  1  0.50336544  0.24536621  0.24289702  1
  V  V13  1  -0.04505408  0.86768070  0.89787055  1
  V  V14  1  0.37908165  0.24549374  0.11364519  1
  V  V15  1  0.13210742  0.63326022  0.49636234  1
  V  V16  1  0.00222957  0.49971922  0.49694960  1
  V  V17  1  0.50311745  0.13851381  0.63438752  1
  V  V18  1  0.86654216  0.09042941  0.77504177  1
  V  V19  1  0.74581919  0.48309018  0.25324939  1
  V  V20  1  0.36169104  0.51583192  0.87115377  1
  V  V21  1  0.75006712  0.49463887  0.73607006  1
  V  V22  1  0.61898262  0.36716458  0.74583766  1
  V  V23  1  0.87675179  0.49367927  0.87141640  1
  V  V24  1  0.40850122  0.63147932  0.73901979  1
  V  V25  1  0.14060317  0.00509621  0.11356656  1
  V  V26  1  0.25072078  0.38164718  0.11007481  1
  V  V27  1  0.61646334  0.83859895  0.71840004  1
  V  V28  1  0.13833496  0.49905297  0.62597593  1
  V  V29  1  0.62646511  0.14704838  0.49473704  1
  V  V30  1  0.12852540  0.23990317  0.38288821  1
  V  V31  1  0.87916954  0.36284175  0.49148746  1
  V  V32  1  0.25840677  0.26856360  0.51142550  1
  V  V33  1  0.36179770  0.01177618  0.87964377  1
  V  V34  1  0.50439477  0.51240549  -0.01134075  1
  V  V35  1  -0.01467851  0.00931861  0.01416083  1
  V  V36  1  0.14595313  0.87933936  0.76015954  1
  V  V37  1  0.24755938  0.86248663  0.60998884  1
  V  V38  1  0.37597486  0.48332856  0.37587993  1
  V  V39  1  0.87670456  0.75833693  0.63046863  1
  V  V40  1  0.49247930  0.37479903  0.87745773  1
  V  V41  1  0.00389623  0.37204461  0.85279459  1
  V  V42  1  0.62694625  0.60616623  0.51376794  1
  V  V43  1  0.89709169  0.24713582  0.63324469  1
  V  V44  1  0.74851305  0.38342360  0.08866830  1
  V  V45  1  -0.00469514  0.63098606  0.12352864  1
  V  V46  1  0.74780113  0.35426676  0.61916620  1
  V  V47  1  0.26123011  0.87537058  0.13400544  1
  V  V48  1  0.01617059  0.26948056  0.21957288  1
  V  V49  1  0.26479084  0.63445935  0.37405555  1
  V  V50  1  0.61767570  0.49887202  0.13408234  1
  V  V51  1  0.12816225  0.88154496  0.25891783  1
  V  V52  1  0.51771446  0.87717494  0.88145088  1
  V  V53  1  0.13108183  0.23280047  0.86693302  1
  V  V54  1  0.25974093  0.50768380  0.24999548  1
  V  V55  1  0.36866240  0.86975525  -0.01007582  1
  V  V56  1  0.49649075  -0.00128953  0.50655978  1
  V  V57  1  0.88121828  0.49286430  0.37225531  1
  V  V58  1  0.52217206  0.37130061  0.36331513  1
  V  V59  1  0.23575742  0.23026963  0.00104855  1
  V  V60  1  0.74230856  0.62110633  0.37736317  1
  V  V61  1  0.50149821  0.48812802  0.50982338  1
  V  V62  1  0.89488006  0.88165512  0.46844080  1
  V  V63  1  0.62352619  0.85679101  0.29257360  1
  V  V64  1  0.74262669  0.75703051  0.50098626  1
  V  V65  1  0.62416311  -0.01158124  0.09600214  1
  V  V66  1  0.59373894  0.14305187  0.00495188  1
  V  V67  1  0.00133480  0.48227090  0.00074751  1
  V  V68  1  0.10667447  0.74970384  0.37027828  1
  V  V69  1  0.64409406  0.25555631  0.88180233  1
  Zn  Zn70  1  0.77956778  0.93426521  0.68430149  1
  Zn  Zn71  1  0.85348955  0.22581713  0.13332099  1
  Zn  Zn72  1  0.09711707  0.75093914  0.85794349  1
  Zn  Zn73  1  -0.00165049  0.09718470  0.63629815  1
  Zn  Zn74  1  0.00629516  0.63347096  0.61841861  1
  Zn  Zn75  1  0.36310653  0.73989952  0.12600720  1
  Zn  Zn76  1  0.19736163  0.19340479  0.19318430  1
  Zn  Zn77  1  0.18737832  0.18944756  0.68464489  1
  Zn  Zn78  1  0.18338045  0.69005944  0.18794384  1
  Zn  Zn79  1  0.17246640  0.70827914  0.67650307  1
  Zn  Zn80  1  0.68504862  0.18562780  0.19738474  1
  Zn  Zn81  1  0.68424581  0.07797169  0.69538445  1
  Zn  Zn82  1  0.67802502  0.67392043  0.20131570  1
  Zn  Zn83  1  0.69596304  0.67709121  0.68086504  1
  Zn  Zn84  1  0.30700583  0.29878518  0.30841299  1
  Zn  Zn85  1  0.36526582  0.27620007  0.66625996  1
  Zn  Zn86  1  0.32046739  0.81885141  0.31150003  1
  Zn  Zn87  1  0.32161704  0.80709469  0.79422842  1
  Zn  Zn88  1  0.82900166  0.29250556  0.29650921  1
  Zn  Zn89  1  0.81653596  0.30514188  0.80758117  1
  Zn  Zn90  1  0.83552915  0.84684419  0.26606998  1
  Zn  Zn91  1  0.80039425  0.80808534  0.80514722  1
  Zn  Zn92  1  0.20112217  0.44657918  0.44693377  1
  Zn  Zn93  1  0.18189763  0.44835190  0.93273503  1
  Zn  Zn94  1  0.19213678  0.93469145  0.43708956  1
  Zn  Zn95  1  0.19118626  0.93189063  0.94104152  1
  Zn  Zn96  1  0.69326429  0.43048047  0.43892316  1
  Zn  Zn97  1  0.67454681  0.47118182  0.92129054  1
  Zn  Zn98  1  0.70442711  0.97537287  0.50387396  1
  Zn  Zn99  1  0.66294499  0.99155669  0.88898721  1
  Zn  Zn100  1  0.32356078  0.05748679  0.06405102  1
  Zn  Zn101  1  0.31579358  0.07067711  0.54928357  1
  Zn  Zn102  1  0.32425159  0.55313892  0.06361397  1
  Zn  Zn103  1  0.32111136  0.56269368  0.56064184  1
  Zn  Zn104  1  0.82543242  -0.00218706  0.13276914  1
  Zn  Zn105  1  0.81700438  0.07332715  0.55862468  1
  Zn  Zn106  1  0.82748404  0.53451585  0.07472873  1
  Zn  Zn107  1  0.81456225  0.55159582  0.56207550  1
  Zn  Zn108  1  0.43382263  0.43347101  0.18734361  1
  Zn  Zn109  1  0.42947185  0.44665454  0.69664727  1
  Zn  Zn110  1  0.45578279  0.93883944  0.19155451  1
  Zn  Zn111  1  0.45217828  0.95272341  0.70090649  1
  Zn  Zn112  1  0.93201773  0.42488531  0.18615132  1
  Zn  Zn113  1  0.94371070  0.43566432  0.67463077  1
  Zn  Zn114  1  0.97046524  0.95592349  0.21491007  1
  Zn  Zn115  1  0.95095209  0.93314555  0.71309335  1
  Zn  Zn116  1  0.07810916  0.08605457  0.27410177  1
  Zn  Zn117  1  0.04234246  0.04697993  0.82613691  1
  Zn  Zn118  1  0.06463386  0.56540550  0.31271935  1
  Zn  Zn119  1  0.07018090  0.56124529  0.80795809  1
  Zn  Zn120  1  0.56050780  0.07164535  0.31671734  1
  Zn  Zn121  1  0.54182465  0.07222752  0.82063418  1
  Zn  Zn122  1  0.55638943  0.55957635  0.31153980  1
  Zn  Zn123  1  0.58102296  0.58001138  0.81077939  1
  Zn  Zn124  1  0.43937835  0.19111988  0.43678452  1
  Zn  Zn125  1  0.36867440  0.23068864  0.88589965  1
  Zn  Zn126  1  0.44532795  0.66804022  0.43840710  1
  Zn  Zn127  1  0.43961232  0.69639955  0.93378474  1
  Zn  Zn128  1  0.95713021  0.18930755  0.42907662  1
  Zn  Zn129  1  0.88259271  0.13498534  0.98152772  1
  Zn  Zn130  1  0.93273596  0.69080957  0.44235962  1
  Zn  Zn131  1  0.97434388  0.65781989  0.91957524  1
  Zn  Zn132  1  0.01290365  0.25325420  0.01410320  1
  Zn  Zn133  1  0.06842846  0.31659437  0.55573194  1
  Zn  Zn134  1  -0.04959663  0.83439314  0.10222735  1
  Zn  Zn135  1  0.06373156  0.92974697  0.56735856  1
  Zn  Zn136  1  0.56052437  0.32473598  0.05943952  1
  Zn  Zn137  1  0.54465623  0.30952167  0.56546736  1
  Zn  Zn138  1  0.54682776  0.81693482  0.06060420  1
  Zn  Zn139  1  0.57989252  0.82266484  0.50412780  1
  O  O140  1  0.13912239  0.09879053  0.16645912  1
  O  O141  1  0.11264077  0.12430397  0.62248985  1
  O  O142  1  0.10439312  0.61532576  0.13982163  1
  O  O143  1  0.12587951  0.62040456  0.61527925  1
  O  O144  1  0.63486463  0.14771859  0.09895924  1
  O  O145  1  0.60508885  0.13548745  0.63146715  1
  O  O146  1  0.60755069  0.61127567  0.13251458  1
  O  O147  1  0.63479935  0.60553183  0.61160234  1
  O  O148  1  0.36910759  0.38328888  0.36966023  1
  O  O149  1  0.39595574  0.40783675  0.86215942  1
  O  O150  1  0.34413844  0.90726688  0.38464883  1
  O  O151  1  0.36261327  0.87211946  0.88589681  1
  O  O152  1  0.86597728  0.37499059  0.38427681  1
  O  O153  1  0.89602234  0.38070806  0.85712542  1
  O  O154  1  0.88036119  0.87027658  0.36973771  1
  O  O155  1  0.85438735  0.85849526  0.89172897  1
  O  O156  1  0.28450576  -0.03179414  0.37310682  1
  O  O157  1  0.26283023  -0.00078235  0.88095176  1
  O  O158  1  0.26045804  0.50707868  0.36765678  1
  O  O159  1  0.26360929  0.50980966  0.88255650  1
  O  O160  1  0.72008484  -0.00613183  0.38943819  1
  O  O161  1  0.76516743  0.02950303  0.93639992  1
  O  O162  1  0.76057181  0.50234515  0.37146613  1
  O  O163  1  0.77638796  0.47935854  0.84964714  1
  O  O164  1  0.24536598  0.50255270  0.12878672  1
  O  O165  1  0.23530175  0.50609674  0.61495123  1
  O  O166  1  0.25035404  0.99121647  0.12402273  1
  O  O167  1  0.29321496  0.96936867  0.62436703  1
  O  O168  1  0.72887910  0.50348633  0.13632434  1
  O  O169  1  0.76036242  0.47708008  0.63178066  1
  O  O170  1  0.71334320  1.00632468  0.14939877  1
  O  O171  1  0.73634810  1.00748468  0.61369886  1
  O  O172  1  0.02842538  0.38467802  0.24655124  1
  O  O173  1  0.01188210  0.37899396  0.75148261  1
  O  O174  1  0.03211874  0.86126036  0.23530192  1
  O  O175  1  -0.01856547  0.86841784  0.79836289  1
  O  O176  1  0.50091453  0.37702031  0.26003830  1
  O  O177  1  0.51781573  0.39078102  0.76010651  1
  O  O178  1  0.51590224  0.85244991  0.24743225  1
  O  O179  1  0.52488177  0.88017341  0.75875612  1
  O  O180  1  0.49657980  0.14723474  0.25138771  1
  O  O181  1  0.48341893  0.12136035  0.73717393  1
  O  O182  1  0.50321838  0.63732814  0.24213210  1
  O  O183  1  0.50822578  0.61732555  0.73935764  1
  O  O184  1  0.99989224  0.17542343  0.25195764  1
  O  O185  1  0.96983335  0.10107550  0.75019499  1
  O  O186  1  0.98638225  0.62114369  0.24727813  1
  O  O187  1  0.98750571  0.61799117  0.73665346  1
  O  O188  1  0.34578507  0.25599075  0.00430209  1
  O  O189  1  0.35379484  0.24691560  0.49133536  1
  O  O190  1  0.37824693  0.76505754  0.00797477  1
  O  O191  1  0.40256631  0.74012069  0.52930897  1
  O  O192  1  0.90385064  0.23127162  0.03237569  1
  O  O193  1  0.88789868  0.26334216  0.49823260  1
  O  O194  1  0.78590383  0.69530984  -0.07797554  1
  O  O195  1  0.86612398  0.77063604  0.50609738  1
  O  O196  1  0.13600197  0.24335629  0.49815334  1
  O  O197  1  0.12871068  0.24810891  0.98045950  1
  O  O198  1  0.12679308  0.73495537  0.48338310  1
  O  O199  1  0.19965461  0.67974607  1.00629678  1
  O  O200  1  0.62392004  0.24746408  0.51489070  1
  O  O201  1  0.61644129  0.25708047  0.98597211  1
  O  O202  1  0.63962436  0.72186569  0.50265738  1
  O  O203  1  0.64270021  0.74913833  0.99669406  1
  O  O204  1  0.48340229  0.26816654  0.12279326  1
  O  O205  1  0.48123932  0.24247880  0.63233517  1
  O  O206  1  0.50208403  0.73580328  0.12503530  1
  O  O207  1  0.45669717  0.75865887  0.57729389  1
  O  O208  1  1.04776784  0.26132873  0.12707158  1
  O  O209  1  0.99592063  0.26051190  0.62320036  1
  O  O210  1  0.98854658  0.72931801  0.11797996  1
  O  O211  1  0.97423026  0.74767938  0.62055513  1
  O  O212  1  0.03080522  0.26902419  0.38384056  1
  O  O213  1  0.02372902  0.27137119  0.87595585  1
  O  O214  1  0.00871135  0.74374164  0.37256798  1
  O  O215  1  -0.00896274  0.77051380  0.91673725  1
  O  O216  1  0.48958729  0.26776158  0.35813222  1
  O  O217  1  0.47844231  0.27695664  0.87976734  1
  O  O218  1  0.49236839  0.74161408  0.36702254  1
  O  O219  1  0.50153921  0.77594286  0.88000229  1
  O  O220  1  0.22910316  0.13272978  0.50790378  1
  O  O221  1  0.24051361  0.13401806  1.01663864  1
  O  O222  1  0.24370531  0.61460199  0.48248040  1
  O  O223  1  0.25337731  0.63383356  0.98658721  1
  O  O224  1  0.72582241  0.12178285  0.50189191  1
  O  O225  1  0.75986224  0.09551174  0.97385074  1
  O  O226  1  0.74112715  0.60572406  0.48998685  1
  O  O227  1  0.75538510  0.63889807  1.05158003  1
  O  O228  1  0.23743214  0.38290205  0.01048376  1
  O  O229  1  0.24899132  0.36968535  0.51210488  1
  O  O230  1  0.26276982  0.87457665  0.01643202  1
  O  O231  1  0.24073704  0.86176238  0.51079488  1
  O  O232  1  0.73675220  0.40582785  -0.00772220  1
  O  O233  1  0.76641436  0.37730233  0.51070349  1
  O  O234  1  0.70541131  0.78512610  0.00694749  1
  O  O235  1  0.72814996  0.85437505  0.50021857  1
  O  O236  1  0.13693776  0.50068659  0.24595291  1
  O  O237  1  0.12562307  0.49784939  0.73300896  1
  O  O238  1  0.12861710  0.97983101  0.27892251  1
  O  O239  1  0.10489559  0.97181464  0.76475007  1
  O  O240  1  0.62987193  0.50077804  0.24303300  1
  O  O241  1  0.64759889  0.48100262  0.75001840  1
  O  O242  1  0.60808550  0.96325891  0.27835964  1
  O  O243  1  0.63808728  1.02305814  0.78380060  1
  O  O244  1  0.39751610  0.00155362  0.26363268  1
  O  O245  1  0.37427972  0.01059229  0.76576240  1
  O  O246  1  0.36515089  0.49806954  0.25749507  1
  O  O247  1  0.37767492  0.52090032  0.76352273  1
  O  O248  1  0.81867567  0.02122993  0.27251832  1
  O  O249  1  0.85400932  -0.01341679  0.76172155  1
  O  O250  1  0.86763273  0.49950807  0.26166505  1
  O  O251  1  0.87533714  0.50252320  0.74431796  1
  O  O252  1  0.13133765  0.39740066  0.36722530  1
  O  O253  1  0.12155364  0.38886164  0.85478774  1
  O  O254  1  0.13490268  0.85561664  0.37076993  1
  O  O255  1  0.14535347  0.85673629  0.86861158  1
  O  O256  1  0.62057193  0.37256299  0.36983062  1
  O  O257  1  0.61593952  0.37109382  0.87022016  1
  O  O258  1  0.61416839  0.84665053  0.38962847  1
  O  O259  1  0.61601312  0.88572410  0.89614814  1
  O  O260  1  0.37147349  0.14717513  0.11842711  1
  O  O261  1  0.37239929  0.12572241  0.63635921  1
  O  O262  1  0.38965797  0.62368564  0.12636977  1
  O  O263  1  0.37654467  0.61545317  0.64296793  1
  O  O264  1  0.88514027  0.10798872  0.16685176  1
  O  O265  1  0.89319118  0.14421270  0.60369683  1
  O  O266  1  0.88621269  0.60688340  0.14540487  1
  O  O267  1  0.87709257  0.62400171  0.62835753  1
  O  O268  1  0.24629875  0.26770399  0.11287934  1
  O  O269  1  0.25529260  0.25186597  0.61752391  1
  O  O270  1  0.24924748  0.76563514  0.13089454  1
  O  O271  1  0.26099028  0.76390269  0.63502757  1
  O  O272  1  0.75357947  0.28490001  0.09647067  1
  O  O273  1  0.77197961  0.25916905  0.61872400  1
  O  O274  1  0.75697689  0.69157032  0.10592711  1
  O  O275  1  0.76436650  0.73199400  0.60403674  1
  O  O276  1  0.23053767  0.27272373  0.39332891  1
  O  O277  1  0.23957850  0.24167777  0.89146906  1
  O  O278  1  0.26717256  0.73420506  0.37280713  1
  O  O279  1  0.23967112  0.70934158  0.83456479  1
  O  O280  1  0.79048644  0.20706737  0.23199156  1
  O  O281  1  0.74270209  0.25835568  0.88076893  1
  O  O282  1  0.75958226  0.72291569  0.39597173  1
  O  O283  1  0.74172107  0.71503345  0.86628317  1
  O  O284  1  0.00627564  0.10588835  -0.00638392  1
  O  O285  1  0.02782786  0.12633460  0.49051028  1
  O  O286  1  -0.01563537  0.60391664  0.02153185  1
  O  O287  1  0.00976403  0.61760279  0.49669031  1
  O  O288  1  0.49913294  0.14181953  0.00978112  1
  O  O289  1  0.50127907  0.13503684  0.51812673  1
  O  O290  1  0.49840132  0.62060537  0.01311568  1
  O  O291  1  0.52009784  0.60510372  0.49440736  1
  O  O292  1  0.50737501  0.38341893  0.48115678  1
  O  O293  1  0.50175772  0.39667747  0.98529806  1
  O  O294  1  0.49823072  0.89838775  0.50518744  1
  O  O295  1  0.48135028  0.87987909  0.99134556  1
  O  O296  1  0.98726281  0.38677960  0.50260573  1
  O  O297  1  1.00303761  0.38170480  0.98682094  1
  O  O298  1  0.99272728  0.88206708  0.48727401  1
  O  O299  1  0.97620832  0.89033508  1.01041721  1
  O  O300  1  0.49372857  0.48555492  0.37306206  1
  O  O301  1  0.50909305  0.50965934  0.88630876  1
  O  O302  1  0.49254028  1.01155348  0.38889390  1
  O  O303  1  0.47962359  0.98033440  0.87071644  1
  O  O304  1  0.99072272  0.50422894  0.38179130  1
  O  O305  1  0.99795310  0.48711672  0.87738224  1
  O  O306  1  0.97017156  1.03763634  0.29365634  1
  O  O307  1  0.99215009  0.97955330  0.90589485  1
  O  O308  1  0.02792415  -0.00336239  0.11809643  1
  O  O309  1  -0.01378851  -0.01438887  0.62425435  1
  O  O310  1  0.00688437  0.49385481  0.11931832  1
  O  O311  1  0.01025144  0.50494631  0.60934659  1
  O  O312  1  0.53523877  0.00301316  0.13981906  1
  O  O313  1  0.48889645  0.01969584  0.61552993  1
  O  O314  1  0.50277350  0.50596262  0.12573090  1
  O  O315  1  0.50277356  0.48532756  0.60732989  1
  O  O316  1  0.24253217  0.38994568  0.24391963  1
  O  O317  1  0.24327283  0.38779499  0.74893004  1
  O  O318  1  0.24633330  0.87258941  0.24115413  1
  O  O319  1  0.24784995  0.87891357  0.74912416  1
  O  O320  1  0.75518601  0.38452352  0.25299368  1
  O  O321  1  0.74838112  0.37170292  0.73461472  1
  O  O322  1  0.72495922  0.87985149  0.26886884  1
  O  O323  1  0.71634482  0.86501978  0.75075428  1
  O  O324  1  0.28041132  0.19394418  0.26704112  1
  O  O325  1  0.25179201  0.10952197  0.73670024  1
  O  O326  1  0.24588298  0.61725133  0.26252255  1
  O  O327  1  0.23134613  0.65655991  0.78010568  1
  O  O328  1  0.67352539  0.09589526  0.27470585  1
  O  O329  1  0.78371970  0.12753348  0.73007439  1
  O  O330  1  0.75843469  0.61143414  0.26390971  1
  O  O331  1  0.76134486  0.59909648  0.73692665  1
  O  O332  1  0.37340304  0.12094254  0.37082010  1
  O  O333  1  0.37343312  0.11273697  0.87757604  1
  O  O334  1  0.36647523  0.61160585  0.37856214  1
  O  O335  1  0.38709335  0.62048756  0.86444790  1
  O  O336  1  0.87785108  0.16746676  0.35092580  1
  O  O337  1  0.86923940  0.12179451  0.86984245  1
  O  O338  1  0.87030583  0.61337072  0.36848126  1
  O  O339  1  0.88886092  0.60309422  0.85349377  1
  O  O340  1  0.14143089  0.39587978  0.13702147  1
  O  O341  1  0.12421577  0.38949921  0.63316457  1
  O  O342  1  0.14570942  0.89653583  0.14080339  1
  O  O343  1  0.14584318  0.88475175  0.63632797  1
  O  O344  1  0.63438037  0.39273906  0.11876882  1
  O  O345  1  0.63619357  0.35898138  0.63724354  1
  O  O346  1  0.62861929  0.88830641  0.08606244  1
  O  O347  1  0.61000293  0.85141525  0.62039566  1
  O  O348  1  0.12847764  0.27410835  0.26404208  1
  O  O349  1  0.14008169  0.26708288  0.76085162  1
  O  O350  1  0.13239004  0.75221812  0.26844520  1
  O  O351  1  0.10946517  0.77770420  0.74234443  1
  O  O352  1  0.60044718  0.25896777  0.22935484  1
  O  O353  1  0.62393384  0.26658339  0.77103781  1
  O  O354  1  0.61777327  0.75295341  0.25346417  1
  O  O355  1  0.62009809  0.73961220  0.73518318  1
  O  O356  1  0.38378194  0.26828591  0.22163608  1
  O  O357  1  0.35980973  0.22034063  0.76717427  1
  O  O358  1  0.39267799  0.75898569  0.24363911  1
  O  O359  1  0.38913531  0.73039031  0.75463515  1
  O  O360  1  0.91473105  0.30347377  0.21119461  1
  O  O361  1  0.88468350  0.25193525  0.73314399  1
  O  O362  1  0.86357513  0.72984119  0.25128552  1
  O  O363  1  0.85814716  0.72617881  0.73903834  1
  O  O364  1  0.39476043  0.50552244  0.48937539  1
  O  O365  1  0.39012559  0.51054530  0.98281128  1
  O  O366  1  0.39020834  1.01648480  0.48641655  1
  O  O367  1  0.37388567  0.98741811  0.98972777  1
  O  O368  1  0.88383420  0.49263842  0.48933551  1
  O  O369  1  0.88165765  0.50187251  0.97471418  1
  O  O370  1  0.85172156  0.96715864  0.50197731  1
  O  O371  1  0.88550383  1.02045878  1.03479356  1
  O  O372  1  0.13417221  0.00447384  0.01240585  1
  O  O373  1  0.13203213  0.00646369  0.50274649  1
  O  O374  1  0.11391519  0.50130272  0.01040529  1
  O  O375  1  0.11952719  0.50807767  0.50637732  1
  O  O376  1  0.61861918  0.03077910  -0.00472253  1
  O  O377  1  0.59983981  0.02418109  0.50323820  1
  O  O378  1  0.60645098  0.50647545  0.01925125  1
  O  O379  1  0.61768792  0.49953595  0.49321003  1
  O  O380  1  0.35377101  0.38305764  0.12000750  1
  O  O381  1  0.38380118  0.37628445  0.62735791  1
  O  O382  1  0.36793779  0.88203724  0.12537415  1
  O  O383  1  0.35200199  0.91009086  0.62686846  1
  O  O384  1  0.84635946  0.42015177  0.10857869  1
  O  O385  1  0.87243965  0.36408023  0.61331664  1
  O  O386  1  0.88000136  0.89676174  0.16967373  1
  O  O387  1  0.86483667  0.85734802  0.65183288  1
  O  O388  1  0.13136373  0.14079441  0.36472731  1
  O  O389  1  0.11377730  0.13751082  0.85523797  1
  O  O390  1  0.13568748  0.63445639  0.37644561  1
  O  O391  1  0.08177953  0.64234699  0.88085464  1
  O  O392  1  0.60124229  0.14674521  0.39789783  1
  O  O393  1  0.61125240  0.15265547  0.88676933  1
  O  O394  1  0.64111914  0.61409329  0.37514238  1
  O  O395  1  0.65863208  0.57635563  0.88517535  1
