# generated using pymatgen
data_V35Zn35O128
_symmetry_space_group_name_H-M   'P 1'
_cell_length_a   16.91961078
_cell_length_b   16.88505393
_cell_length_c   16.83242227
_cell_angle_alpha   90.00726368
_cell_angle_beta   90.09991852
_cell_angle_gamma   89.93399304
_symmetry_Int_Tables_number   1
_chemical_formula_structural   V35Zn35O128
_chemical_formula_sum   'V70 Zn70 O256'
_cell_volume   4808.81961099
_cell_formula_units_Z   2
loop_
 _symmetry_equiv_pos_site_id
 _symmetry_equiv_pos_as_xyz
  1  'x, y, z'
loop_
 _atom_site_type_symbol
 _atom_site_label
 _atom_site_symmetry_multiplicity
 _atom_site_fract_x
 _atom_site_fract_y
 _atom_site_fract_z
 _atom_site_occupancy
  V  V0  1  0.87656319  0.74492955  0.11445278  1
  V  V1  1  0.50963348  0.13081029  0.62299553  1
  V  V2  1  0.25414407  0.23701186  0.49521784  1
  V  V3  1  0.46072994  0.87711118  0.89315383  1
  V  V4  1  0.47997932  0.75563456  0.76100906  1
  V  V5  1  0.70776178  0.23771042  -0.02976251  1
  V  V6  1  0.49400594  0.62403762  0.13606018  1
  V  V7  1  0.49923577  0.25068378  0.75843512  1
  V  V8  1  0.74498577  0.86545883  0.12066152  1
  V  V9  1  0.87478417  0.00884862  0.85633777  1
  V  V10  1  0.75047749  0.62073811  0.38138231  1
  V  V11  1  0.13323553  0.24285703  0.37682706  1
  V  V12  1  0.37594688  0.88500607  0.50821732  1
  V  V13  1  0.24850497  0.38306702  0.61857857  1
  V  V14  1  0.25391539  0.12776820  0.87805549  1
  V  V15  1  0.75591447  0.00272386  0.24504871  1
  V  V16  1  0.38515082  0.10337589  0.27015064  1
  V  V17  1  0.37082228  0.25765213  0.62299403  1
  V  V18  1  0.49114383  0.00650881  0.00243809  1
  V  V19  1  0.01203944  -0.01013333  0.49216088  1
  V  V20  1  0.88047557  0.63255524  0.74773806  1
  V  V21  1  0.75071934  0.13910108  0.37103776  1
  V  V22  1  0.49525062  0.25196166  0.25516938  1
  V  V23  1  0.36944545  0.11986220  0.74927417  1
  V  V24  1  0.63520807  0.48726917  0.13482543  1
  V  V25  1  0.74933775  0.62640193  0.88685871  1
  V  V26  1  0.13182315  0.63449050  -0.00487295  1
  V  V27  1  0.37066119  0.51243470  0.87404392  1
  V  V28  1  0.11820483  0.85976622  0.76028177  1
  V  V29  1  0.49126994  0.49161362  0.00632316  1
  V  V30  1  0.23527092  0.00444180  0.75121964  1
  V  V31  1  0.88197205  -0.01193568  0.37493843  1
  V  V32  1  0.48255892  0.63462589  0.64064240  1
  V  V33  1  0.50254288  0.00849772  0.50229017  1
  V  V34  1  0.62783870  0.75820967  0.36450086  1
  V  V35  1  0.88223923  0.88313035  -0.00781940  1
  V  V36  1  0.00585308  0.49038894  0.00452595  1
  V  V37  1  0.12196859  0.38354692  0.24735834  1
  V  V38  1  0.36560693  0.74986675  0.10958797  1
  V  V39  1  0.13115337  0.87213143  0.25033907  1
  V  V40  1  0.49871327  0.88524755  0.37053698  1
  V  V41  1  0.49536438  0.37447984  0.87761343  1
  V  V42  1  0.74579239  0.49336613  0.75629498  1
  V  V43  1  0.25020834  0.87804179  0.10927160  1
  V  V44  1  0.62444077  0.01220745  0.11844609  1
  V  V45  1  0.62174752  0.64943562  0.51787251  1
  V  V46  1  0.12501307  0.74727645  0.37900420  1
  V  V47  1  0.84132650  0.24359491  0.09368053  1
  V  V48  1  0.01310922  0.13687953  0.60321242  1
  V  V49  1  0.87317656  0.48177762  0.88933953  1
  V  V50  1  -0.00746960  0.75270341  0.25273301  1
  V  V51  1  0.11665462  0.12871525  0.00414706  1
  V  V52  1  0.25683332  0.74713417  0.50563696  1
  V  V53  1  0.00812375  0.23141617  0.24095147  1
  V  V54  1  0.00142450  0.25655445  0.74828694  1
  V  V55  1  0.86696420  0.13214243  0.73265583  1
  V  V56  1  0.63143027  0.36755809  0.27549493  1
  V  V57  1  0.63032705  0.76915214  0.88153183  1
  V  V58  1  0.26598769  0.62609368  0.36370264  1
  V  V59  1  0.26740949  0.25636500  0.00620829  1
  V  V60  1  0.00445357  0.61653666  0.13512660  1
  V  V61  1  0.11968194  -0.00070285  0.13018267  1
  V  V62  1  0.48245885  0.75026096  0.25617048  1
  V  V63  1  0.62190209  0.49569215  0.63510754  1
  V  V64  1  0.26646409  0.37986102  0.12765909  1
  V  V65  1  0.62581706  0.62449757  0.00482587  1
  V  V66  1  0.24860976  0.88139813  0.62937167  1
  V  V67  1  0.24994968  0.51274734  0.75644686  1
  V  V68  1  0.11509247  0.51422548  0.61456426  1
  V  V69  1  0.48807261  0.49946232  0.49596236  1
  Zn  Zn70  1  0.24941027  0.50685722  0.24963954  1
  Zn  Zn71  1  0.12535328  0.38051748  0.75840507  1
  Zn  Zn72  1  0.63553787  0.35269844  0.75638976  1
  Zn  Zn73  1  0.00434410  -0.00474984  -0.00553688  1
  Zn  Zn74  1  0.11941156  0.26271103  0.88209934  1
  Zn  Zn75  1  0.62932370  0.14088581  0.49120782  1
  Zn  Zn76  1  0.18934479  0.19278069  0.18654876  1
  Zn  Zn77  1  0.18331977  0.19121062  0.68355581  1
  Zn  Zn78  1  0.18573991  0.68758612  0.18393225  1
  Zn  Zn79  1  0.18696498  0.68830682  0.68827640  1
  Zn  Zn80  1  0.68132755  0.19161250  0.18510797  1
  Zn  Zn81  1  0.67597322  0.14977032  0.79597385  1
  Zn  Zn82  1  0.68912044  0.68224733  0.19260499  1
  Zn  Zn83  1  0.67422728  0.67925340  0.71459411  1
  Zn  Zn84  1  0.31662839  0.31814213  0.31233022  1
  Zn  Zn85  1  0.31075321  0.31935629  0.81392173  1
  Zn  Zn86  1  0.30507021  0.83864040  0.32230340  1
  Zn  Zn87  1  0.29521930  0.80588014  0.82335987  1
  Zn  Zn88  1  0.82149498  0.30859346  0.27275711  1
  Zn  Zn89  1  0.80719000  0.30129337  0.81935723  1
  Zn  Zn90  1  0.80875903  0.81593130  0.30866380  1
  Zn  Zn91  1  0.93464227  0.81009952  0.81079003  1
  Zn  Zn92  1  0.18457133  0.43987471  0.43244469  1
  Zn  Zn93  1  0.18736465  0.43623317  0.94041803  1
  Zn  Zn94  1  0.19503222  0.94390782  0.43231956  1
  Zn  Zn95  1  0.19231517  0.94462672  0.93441181  1
  Zn  Zn96  1  0.67608089  0.44388611  0.44917514  1
  Zn  Zn97  1  0.67972813  0.43063631  0.94257432  1
  Zn  Zn98  1  0.67702624  0.95326797  0.42908458  1
  Zn  Zn99  1  0.66573090  0.98782870  0.90690770  1
  Zn  Zn100  1  0.30678169  0.06716853  0.07221824  1
  Zn  Zn101  1  0.31267902  0.06162500  0.56562351  1
  Zn  Zn102  1  0.31365233  0.56258691  0.06485773  1
  Zn  Zn103  1  0.30786627  0.56673107  0.56359012  1
  Zn  Zn104  1  0.80492524  0.06991588  0.05348890  1
  Zn  Zn105  1  0.82982086  0.08025236  0.54121158  1
  Zn  Zn106  1  0.81353984  0.55883804  0.06938114  1
  Zn  Zn107  1  0.79766351  0.57659160  0.56952065  1
  Zn  Zn108  1  0.44730949  0.42688990  0.19214870  1
  Zn  Zn109  1  0.43404471  0.44084100  0.68970812  1
  Zn  Zn110  1  0.43730761  0.93413122  0.17977951  1
  Zn  Zn111  1  0.44654642  0.93584837  0.68834315  1
  Zn  Zn112  1  0.94810561  0.40151696  0.15246557  1
  Zn  Zn113  1  0.93704453  0.45337468  0.69556815  1
  Zn  Zn114  1  0.93872800  0.93458260  0.18558608  1
  Zn  Zn115  1  0.96764455  0.96088201  0.68674353  1
  Zn  Zn116  1  0.08262636  0.05886745  0.32570921  1
  Zn  Zn117  1  0.05484913  0.07485668  0.81446478  1
  Zn  Zn118  1  0.06580453  0.56107092  0.32340265  1
  Zn  Zn119  1  0.06181440  0.56150114  0.81583882  1
  Zn  Zn120  1  0.57174292  0.06508152  0.30101633  1
  Zn  Zn121  1  0.61153742  -0.01897806  0.72863759  1
  Zn  Zn122  1  0.57041447  0.56583393  0.31594652  1
  Zn  Zn123  1  0.55701485  0.56383537  0.81904005  1
  Zn  Zn124  1  0.43620692  0.19444760  0.43006565  1
  Zn  Zn125  1  0.44163382  0.18120771  0.93987190  1
  Zn  Zn126  1  0.43959355  0.69172547  0.44506831  1
  Zn  Zn127  1  0.44224798  0.68343591  0.94189508  1
  Zn  Zn128  1  0.94420094  0.17215058  0.39238438  1
  Zn  Zn129  1  0.93226589  0.18754568  0.92862758  1
  Zn  Zn130  1  0.95428759  0.65360649  0.42968811  1
  Zn  Zn131  1  0.94039859  0.67497004  0.94013618  1
  Zn  Zn132  1  0.07303340  0.31044556  0.07082475  1
  Zn  Zn133  1  0.06870462  0.31489240  0.56336615  1
  Zn  Zn134  1  0.06666845  0.80766057  -0.05592981  1
  Zn  Zn135  1  0.07384613  0.81878083  0.56469003  1
  Zn  Zn136  1  0.55739838  0.30222779  0.06833374  1
  Zn  Zn137  1  0.55496364  0.32093394  0.56466684  1
  Zn  Zn138  1  0.55691695  0.81071587  0.06314044  1
  Zn  Zn139  1  0.56302289  0.83016857  0.58504304  1
  O  O140  1  0.13929744  0.11034038  0.11567666  1
  O  O141  1  0.11359994  0.13326005  0.61271551  1
  O  O142  1  0.10819793  0.62326937  0.12240653  1
  O  O143  1  0.12991348  0.61461422  0.62459665  1
  O  O144  1  0.62492813  0.11070221  0.12268258  1
  O  O145  1  0.60732492  0.12560743  0.62829985  1
  O  O146  1  0.61512962  0.61944688  0.12380763  1
  O  O147  1  0.61371250  0.62799068  0.62709082  1
  O  O148  1  0.37224157  0.42332829  0.34227116  1
  O  O149  1  0.38737901  0.38672227  0.87303230  1
  O  O150  1  0.39737750  0.86849818  0.39243944  1
  O  O151  1  0.36173035  0.87273604  0.89303907  1
  O  O152  1  0.89763417  0.38287750  0.41233974  1
  O  O153  1  0.86943124  0.38396713  0.87449416  1
  O  O154  1  0.87445121  0.88800145  0.36995406  1
  O  O155  1  0.87902262  0.88624151  0.88577891  1
  O  O156  1  0.27358581  -0.05455804  0.35628103  1
  O  O157  1  0.25031112  0.01706173  0.86649427  1
  O  O158  1  0.24647019  0.52430492  0.37771639  1
  O  O159  1  0.26106209  0.49672568  0.86876343  1
  O  O160  1  0.75663843  -0.00609782  0.35779104  1
  O  O161  1  0.77813383  -0.00060300  0.88218157  1
  O  O162  1  0.74576543  0.52109020  0.40297755  1
  O  O163  1  0.75496916  0.50290186  0.87866269  1
  O  O164  1  0.26017388  0.48615384  0.13209412  1
  O  O165  1  0.25057030  0.49559346  0.63643564  1
  O  O166  1  0.24346292  0.98381863  0.12231597  1
  O  O167  1  0.24907359  0.99251278  0.63592555  1
  O  O168  1  0.73376634  0.50369115  0.12878347  1
  O  O169  1  0.72866473  0.50892466  0.63985844  1
  O  O170  1  0.74319289  0.99206839  0.12606938  1
  O  O171  1  0.75262803  0.97887700  0.58376779  1
  O  O172  1  0.01929557  0.36570395  0.24225160  1
  O  O173  1  -0.00923062  0.35887510  0.73765457  1
  O  O174  1  0.01314035  0.85869032  0.24024846  1
  O  O175  1  0.01264479  0.87427701  0.74560989  1
  O  O176  1  0.51451367  0.36260857  0.25520772  1
  O  O177  1  0.49401531  0.35905216  0.75228987  1
  O  O178  1  0.49702857  0.86961665  0.26603774  1
  O  O179  1  0.48023074  0.86497148  0.78002939  1
  O  O180  1  0.48912495  0.12804444  0.25303159  1
  O  O181  1  0.48457691  0.13945781  0.73620515  1
  O  O182  1  0.50479256  0.63465288  0.24383557  1
  O  O183  1  0.49756733  0.63681239  0.74949434  1
  O  O184  1  1.02078389  0.13249067  0.25685053  1
  O  O185  1  0.99685907  0.13403825  0.72955732  1
  O  O186  1  1.00645248  0.63341697  0.24235286  1
  O  O187  1  0.97929773  0.61434604  0.75944626  1
  O  O188  1  0.36619708  0.24559936  0.00032490  1
  O  O189  1  0.36519457  0.25017751  0.51025549  1
  O  O190  1  0.37550050  0.74696076  0.01107355  1
  O  O191  1  0.36218637  0.76532448  0.50013668  1
  O  O192  1  0.87670909  0.25547985  -0.00184415  1
  O  O193  1  0.93501846  0.34580850  0.46635672  1
  O  O194  1  0.87897095  0.75631148  0.01137876  1
  O  O195  1  0.94098805  0.72258902  0.53259298  1
  O  O196  1  0.14491131  0.26033086  0.48920766  1
  O  O197  1  0.13364570  0.23750385  1.00452415  1
  O  O198  1  0.13772914  0.76250816  0.48500045  1
  O  O199  1  0.12405175  0.73478536  1.00911380  1
  O  O200  1  0.63775054  0.26350710  0.50582648  1
  O  O201  1  0.60815637  0.23840703  0.98642192  1
  O  O202  1  0.61075081  0.75050405  0.51179504  1
  O  O203  1  0.61106572  0.73469925  0.99012664  1
  O  O204  1  0.50775103  0.24401288  0.14922015  1
  O  O205  1  0.48919489  0.24703224  0.62851190  1
  O  O206  1  0.48737819  0.74574893  0.13499193  1
  O  O207  1  0.50008057  0.74747498  0.65086108  1
  O  O208  1  1.00571877  0.24250899  0.13964326  1
  O  O209  1  1.00123550  0.24417014  0.62764100  1
  O  O210  1  0.98699530  0.73513977  0.13760760  1
  O  O211  1  0.99297359  0.73063096  0.58854383  1
  O  O212  1  0.03145941  0.24541967  0.38072966  1
  O  O213  1  0.00294231  0.23933052  0.85370366  1
  O  O214  1  0.01461982  0.74086822  0.36458085  1
  O  O215  1  -0.00175905  0.74685575  0.87856464  1
  O  O216  1  0.51268147  0.24061289  0.36168830  1
  O  O217  1  0.48916303  0.25550224  0.86373460  1
  O  O218  1  0.50745457  0.75731021  0.37255108  1
  O  O219  1  0.50141646  0.76153408  0.87884366  1
  O  O220  1  0.25031949  0.13835715  0.50461066  1
  O  O221  1  0.24850074  0.13597513  0.99584822  1
  O  O222  1  0.25527732  0.64445317  0.49430912  1
  O  O223  1  0.22901997  0.61258628  1.01278823  1
  O  O224  1  0.74796856  0.12838333  0.48104983  1
  O  O225  1  0.74679673  0.13950634  0.98395020  1
  O  O226  1  0.72615536  0.63876140  0.50612565  1
  O  O227  1  0.73691803  0.61817296  0.99985394  1
  O  O228  1  0.24993613  0.36574551  0.01137885  1
  O  O229  1  0.25303512  0.38205736  0.51638053  1
  O  O230  1  0.24066015  0.87126191  0.00986253  1
  O  O231  1  0.25550909  0.87535790  0.51211709  1
  O  O232  1  0.73667989  0.33885784  -0.02446216  1
  O  O233  1  0.74076910  0.35572616  0.51010195  1
  O  O234  1  0.77185195  0.87313009  0.01889559  1
  O  O235  1  0.74688900  0.92392290  0.53179850  1
  O  O236  1  0.12686884  0.48828173  0.25938421  1
  O  O237  1  0.13806796  0.50204626  0.74640748  1
  O  O238  1  0.12285580  0.98557940  0.24220380  1
  O  O239  1  0.13254306  1.00082010  0.75584914  1
  O  O240  1  0.61448807  0.48770411  0.24163065  1
  O  O241  1  0.62802406  0.50913583  0.74593077  1
  O  O242  1  0.63904674  0.99544189  0.23225080  1
  O  O243  1  0.56394526  0.91468733  0.65991731  1
  O  O244  1  0.38822846  0.00386217  0.25433465  1
  O  O245  1  0.36586228  0.01628449  0.74209393  1
  O  O246  1  0.37352605  0.47317186  0.28090062  1
  O  O247  1  0.36541823  0.50069107  0.76317452  1
  O  O248  1  0.86538897  -0.00203926  0.25119603  1
  O  O249  1  0.88134749  0.00902128  0.74931825  1
  O  O250  1  0.86624140  0.46886737  0.25734902  1
  O  O251  1  0.86339703  0.50467896  0.76897473  1
  O  O252  1  0.14328549  0.36259944  0.35661612  1
  O  O253  1  0.12107528  0.37576217  0.87324677  1
  O  O254  1  0.12978266  0.86327833  0.35673051  1
  O  O255  1  0.12686642  0.87645870  0.86657811  1
  O  O256  1  0.62215169  0.37889054  0.37498765  1
  O  O257  1  0.60103793  0.38877545  0.86419539  1
  O  O258  1  0.61061902  0.86450971  0.39041753  1
  O  O259  1  0.63480599  0.86795577  0.88632399  1
  O  O260  1  0.33937318  0.13443614  0.16448029  1
  O  O261  1  0.36757313  0.14278718  0.63290771  1
  O  O262  1  0.38364879  0.63686056  0.12569111  1
  O  O263  1  0.38487938  0.63039145  0.62962546  1
  O  O264  1  0.86165045  0.14858380  0.12361488  1
  O  O265  1  0.88948377  0.12295524  0.62784389  1
  O  O266  1  0.87993827  0.63729831  0.12176090  1
  O  O267  1  0.86497906  0.61869613  0.64741652  1
  O  O268  1  0.24989574  0.25871998  0.11181324  1
  O  O269  1  0.25126538  0.26343053  0.61590159  1
  O  O270  1  0.26147198  0.75201991  0.12302761  1
  O  O271  1  0.24361285  0.75938655  0.61166238  1
  O  O272  1  0.73597866  0.24539007  0.09705221  1
  O  O273  1  0.71711721  0.28668231  0.53431848  1
  O  O274  1  0.76526389  0.75476080  0.13818331  1
  O  O275  1  0.73338708  0.75942757  0.64126313  1
  O  O276  1  0.25823502  0.25895316  0.39193695  1
  O  O277  1  0.24678655  0.24728634  0.88822022  1
  O  O278  1  0.24569924  0.74969473  0.38268252  1
  O  O279  1  0.24077747  0.72642142  0.87620869  1
  O  O280  1  0.76514296  0.23563478  0.35529646  1
  O  O281  1  0.72118490  0.23567276  0.85904821  1
  O  O282  1  0.72976629  0.76107184  0.37396791  1
  O  O283  1  0.73088501  0.73449255  0.88026803  1
  O  O284  1  0.01622338  0.12908304  -0.00172820  1
  O  O285  1  -0.01070915  0.13524140  0.50118976  1
  O  O286  1  0.00480027  0.61161535  0.01545548  1
  O  O287  1  0.00165682  0.55610080  0.41282585  1
  O  O288  1  0.50820889  0.10467529  -0.01345753  1
  O  O289  1  0.50223680  0.13090589  0.50856221  1
  O  O290  1  0.50604009  0.61346067  0.01371648  1
  O  O291  1  0.50526075  0.62916803  0.52192537  1
  O  O292  1  0.49821409  0.39889949  0.50864186  1
  O  O293  1  0.50440085  0.38492388  0.99570501  1
  O  O294  1  0.49329080  0.88862389  0.50370178  1
  O  O295  1  0.49228840  0.87554179  0.99552867  1
  O  O296  1  1.00186343  0.38392840  0.49437308  1
  O  O297  1  0.99609330  0.39103044  1.03515787  1
  O  O298  1  1.00956890  0.89079983  0.50250251  1
  O  O299  1  0.98707600  0.87488842  1.00367647  1
  O  O300  1  0.50958540  0.51938742  0.39896129  1
  O  O301  1  0.48752776  0.49704654  0.88425249  1
  O  O302  1  0.50904839  0.98873809  0.38057675  1
  O  O303  1  0.48641116  0.97944994  0.89299837  1
  O  O304  1  0.89581801  0.51924211  0.30158879  1
  O  O305  1  0.98399995  0.49778300  0.89432095  1
  O  O306  1  0.98865170  1.00713394  0.37453125  1
  O  O307  1  0.98403581  1.00863265  0.87900933  1
  O  O308  1  0.01751485  -0.00345821  0.12280073  1
  O  O309  1  0.00644215  0.01818462  0.59862899  1
  O  O310  1  -0.01882615  0.51238532  0.12385624  1
  O  O311  1  0.01718691  0.49887035  0.63162683  1
  O  O312  1  0.51865428  -0.01486724  0.11676820  1
  O  O313  1  0.47901694  0.02976130  0.61603592  1
  O  O314  1  0.49847291  0.50698703  0.12382064  1
  O  O315  1  0.50435321  0.51808999  0.63375962  1
  O  O316  1  0.24623224  0.37284475  0.23838001  1
  O  O317  1  0.24926033  0.38620604  0.74053951  1
  O  O318  1  0.23278894  0.85791650  0.23034239  1
  O  O319  1  0.24175560  0.88414294  0.74981573  1
  O  O320  1  0.73215407  0.37603878  0.26065643  1
  O  O321  1  0.74706870  0.38756812  0.75858442  1
  O  O322  1  0.75697182  0.88707917  0.23130533  1
  O  O323  1  0.83844602  0.86342490  0.67161958  1
  O  O324  1  0.27924295  0.12618271  0.22646072  1
  O  O325  1  0.24957175  0.12415952  0.75541991  1
  O  O326  1  0.25409193  0.62728448  0.25741555  1
  O  O327  1  0.25191061  0.61178858  0.74756808  1
  O  O328  1  0.74573496  0.10989640  0.25181147  1
  O  O329  1  0.76827477  0.12910278  0.72548873  1
  O  O330  1  0.73558553  0.62529260  0.27964503  1
  O  O331  1  0.75231401  0.61290614  0.76862350  1
  O  O332  1  0.37176877  0.11905367  0.36983920  1
  O  O333  1  0.36238645  0.13551981  0.86305803  1
  O  O334  1  0.36479253  0.63727760  0.37714153  1
  O  O335  1  0.37853964  0.61180781  0.87833137  1
  O  O336  1  0.85687729  0.10451815  0.37167821  1
  O  O337  1  0.87676685  0.11801122  0.85198097  1
  O  O338  1  0.84486902  0.65036086  0.40138028  1
  O  O339  1  0.86048362  0.61412152  0.87913150  1
  O  O340  1  0.14111061  0.37296862  0.14049087  1
  O  O341  1  0.13869164  0.38470623  0.63072998  1
  O  O342  1  0.13442956  0.88754501  0.12880443  1
  O  O343  1  0.13680300  0.87290115  0.64329387  1
  O  O344  1  0.62163608  0.38788366  0.12294148  1
  O  O345  1  0.61467405  0.39273041  0.63975332  1
  O  O346  1  0.64337908  0.86379094  0.11722081  1
  O  O347  1  0.69416930  0.82328172  0.63363071  1
  O  O348  1  0.12390074  0.25602789  0.25666612  1
  O  O349  1  0.11174585  0.25450910  0.74835145  1
  O  O350  1  0.11684431  0.75627159  0.25278471  1
  O  O351  1  0.12848212  0.76073098  0.75527782  1
  O  O352  1  0.62449859  0.26203145  0.25425935  1
  O  O353  1  0.60195570  0.23978761  0.74830813  1
  O  O354  1  0.61319397  0.75160423  0.26212837  1
  O  O355  1  0.60802326  0.74784441  0.77846802  1
  O  O356  1  0.39111747  0.25028088  0.26160505  1
  O  O357  1  0.37683383  0.24511224  0.74236938  1
  O  O358  1  0.38188599  0.75972957  0.25307004  1
  O  O359  1  0.38158142  0.74651467  0.76415727  1
  O  O360  1  0.91541141  0.24622037  0.28786497  1
  O  O361  1  0.88294042  0.23887380  0.75017946  1
  O  O362  1  0.88962028  0.75492788  0.25101973  1
  O  O363  1  0.86763294  0.73269434  0.76038372  1
  O  O364  1  0.38875205  0.51346119  0.50663434  1
  O  O365  1  0.38287809  0.50256101  0.99140971  1
  O  O366  1  0.38236647  0.99397116  0.50098804  1
  O  O367  1  0.39291863  1.00841457  1.02718249  1
  O  O368  1  0.85526587  0.47157296  0.53707265  1
  O  O369  1  0.87639901  0.49660239  0.99499461  1
  O  O370  1  0.89049480  0.99892418  0.48298376  1
  O  O371  1  0.88067987  0.99027155  1.00768082  1
  O  O372  1  0.12559197  0.01110216  0.00808071  1
  O  O373  1  0.11062565  0.00862465  0.46629244  1
  O  O374  1  0.10739847  0.49988085  0.00260812  1
  O  O375  1  0.13012840  0.49713547  0.51522617  1
  O  O376  1  0.61894110  -0.00638404  0.01144739  1
  O  O377  1  0.60606087  0.01089083  0.50077276  1
  O  O378  1  0.61407579  0.50515968  0.01510420  1
  O  O379  1  0.61385491  0.51419214  0.52414146  1
  O  O380  1  0.36626518  0.37073862  0.13161517  1
  O  O381  1  0.36283080  0.36747747  0.63302680  1
  O  O382  1  0.36148049  0.86184418  0.12714167  1
  O  O383  1  0.36435150  0.87976657  0.62083691  1
  O  O384  1  0.86312640  0.32658278  0.15807116  1
  O  O385  1  0.86539838  0.42259576  0.59423128  1
  O  O386  1  0.87546596  0.86030550  0.12106875  1
  O  O387  1  0.88827919  0.87897503  0.61914612  1
  O  O388  1  0.15196269  0.14407885  0.36244791  1
  O  O389  1  0.13466245  0.12818899  0.89065374  1
  O  O390  1  0.14287290  0.64568815  0.36871198  1
  O  O391  1  0.11735694  0.61744284  0.89561856  1
  O  O392  1  0.64428235  0.11830979  0.37228481  1
  O  O393  1  0.63390004  0.04571574  0.81103962  1
  O  O394  1  0.62502586  0.64674507  0.39529273  1
  O  O395  1  0.63091335  0.61596242  0.89103987  1
