# generated using pymatgen
data_V35Zn35O128
_symmetry_space_group_name_H-M   'P 1'
_cell_length_a   16.90235953
_cell_length_b   16.88524514
_cell_length_c   16.88894499
_cell_angle_alpha   89.91909126
_cell_angle_beta   89.53459438
_cell_angle_gamma   89.75360256
_symmetry_Int_Tables_number   1
_chemical_formula_structural   V35Zn35O128
_chemical_formula_sum   'V70 Zn70 O256'
_cell_volume   4819.90491962
_cell_formula_units_Z   2
loop_
 _symmetry_equiv_pos_site_id
 _symmetry_equiv_pos_as_xyz
  1  'x, y, z'
loop_
 _atom_site_type_symbol
 _atom_site_label
 _atom_site_symmetry_multiplicity
 _atom_site_fract_x
 _atom_site_fract_y
 _atom_site_fract_z
 _atom_site_occupancy
  V  V0  1  0.00832840  0.74536209  0.76066220  1
  V  V1  1  0.87606654  0.11536169  0.25402261  1
  V  V2  1  0.62526054  0.10973055  0.51170064  1
  V  V3  1  0.38574935  0.13470936  0.79638021  1
  V  V4  1  -0.00157241  0.00935004  -0.00525297  1
  V  V5  1  0.85869961  0.49936510  0.86374821  1
  V  V6  1  0.36909626  0.14327329  0.24178679  1
  V  V7  1  0.50386328  0.12121628  0.11682745  1
  V  V8  1  0.50099962  0.49136940  0.52479998  1
  V  V9  1  0.13547566  -0.00480232  0.12661584  1
  V  V10  1  0.01036243  0.86021775  0.88772721  1
  V  V11  1  0.63960233  0.54706690  0.13138739  1
  V  V12  1  0.86813237  0.25737884  0.62616193  1
  V  V13  1  0.61360629  0.25501939  0.37459747  1
  V  V14  1  0.88453653  0.61989546  0.26288168  1
  V  V15  1  0.36691344  0.93629303  0.52376192  1
  V  V16  1  0.39289707  0.62661967  0.74443321  1
  V  V17  1  0.86958841  0.87496224  0.00614580  1
  V  V18  1  0.23618355  0.48016594  0.25298177  1
  V  V19  1  0.26060023  0.01393854  0.77393869  1
  V  V20  1  0.00466172  0.62227149  0.12237052  1
  V  V21  1  0.35468200  0.73608529  0.60011701  1
  V  V22  1  0.71514228  0.63449666  0.36790652  1
  V  V23  1  0.65733447  0.53240941  0.61211160  1
  V  V24  1  0.48398134  0.12065887  0.63585447  1
  V  V25  1  -0.00632836  0.37993723  0.37707435  1
  V  V26  1  0.64697180  0.37305055  0.71687311  1
  V  V27  1  0.24268626  0.36277734  0.63251949  1
  V  V28  1  0.49893855  0.49750529  -0.03378624  1
  V  V29  1  0.01164928  0.13763915  0.62383022  1
  V  V30  1  0.25091383  0.26802962  -0.00816038  1
  V  V31  1  0.12156977  0.47809774  0.12841149  1
  V  V32  1  0.61005526  0.37162498  0.24413747  1
  V  V33  1  0.00071221  0.88024566  0.37960147  1
  V  V34  1  0.86464786  0.63262850  0.74636785  1
  V  V35  1  0.37289955  -0.01684933  0.32670242  1
  V  V36  1  0.01235600  0.01170340  0.50281750  1
  V  V37  1  0.75988129  0.49086551  0.26035737  1
  V  V38  1  0.00959144  0.25805815  0.24711860  1
  V  V39  1  0.11950666  0.49401211  0.61704392  1
  V  V40  1  0.13808127  0.75205120  0.39846458  1
  V  V41  1  0.13080580  0.24336837  0.37544899  1
  V  V42  1  0.00590990  0.13043154  0.12112168  1
  V  V43  1  0.75728287  0.25976856  0.49487895  1
  V  V44  1  0.69055161  0.75494421  0.51426186  1
  V  V45  1  0.60000530  0.88635682  0.74196961  1
  V  V46  1  -0.00257103  0.36469829  0.86206554  1
  V  V47  1  0.64839975  0.12598577  -0.00626210  1
  V  V48  1  0.85561193  0.37494023  0.00572755  1
  V  V49  1  0.87685371  0.76149740  0.13910290  1
  V  V50  1  0.86289630  0.10626204  0.74547264  1
  V  V51  1  0.64194376  -0.00592680  0.13469132  1
  V  V52  1  0.23709267  0.61037109  0.38430076  1
  V  V53  1  0.37670011  0.35841215  0.50510807  1
  V  V54  1  -0.00517933  0.49605780  -0.00270487  1
  V  V55  1  0.86209488  0.25523609  0.12615823  1
  V  V56  1  0.47873825  0.88736605  0.89298371  1
  V  V57  1  0.12893203  0.88602508  0.74593386  1
  V  V58  1  0.24234585  0.23713165  0.50223243  1
  V  V59  1  0.02529427  0.75376635  0.24702558  1
  V  V60  1  0.14104265  0.61819495  -0.01232172  1
  V  V61  1  0.38471166  0.27851720  0.11337058  1
  V  V62  1  0.74626264  0.10976541  0.36785264  1
  V  V63  1  0.61627229  0.75228083  0.88016974  1
  V  V64  1  0.38777012  0.48743914  0.36674538  1
  V  V65  1  0.64762358  0.26876097  0.88343591  1
  V  V66  1  -0.01559467  0.49728969  0.49955202  1
  V  V67  1  0.25975828  0.75684975  -0.00791490  1
  V  V68  1  0.23389360  0.51999830  0.74833140  1
  V  V69  1  0.00661302  0.63507183  0.62114842  1
  Zn  Zn70  1  0.36253541  0.49433571  0.86128909  1
  Zn  Zn71  1  0.51073212  0.26593080  0.75910774  1
  Zn  Zn72  1  0.35297956  0.64477076  0.08625659  1
  Zn  Zn73  1  0.14752903  0.13125889  -0.02070057  1
  Zn  Zn74  1  0.73661157  0.74548012  0.01888923  1
  Zn  Zn75  1  0.73477742  0.62769486  0.89556397  1
  Zn  Zn76  1  0.19476991  0.20422344  0.17174450  1
  Zn  Zn77  1  0.19803573  0.16832536  0.70313357  1
  Zn  Zn78  1  0.20279499  0.66527497  0.18385306  1
  Zn  Zn79  1  0.18320245  0.69948424  0.67801475  1
  Zn  Zn80  1  0.68145669  0.18543909  0.19283834  1
  Zn  Zn81  1  0.69222525  0.18556111  0.69042843  1
  Zn  Zn82  1  0.70366486  0.72230458  0.22518567  1
  Zn  Zn83  1  0.67354983  0.70381940  0.69766954  1
  Zn  Zn84  1  0.31880176  0.30773084  0.31324620  1
  Zn  Zn85  1  0.32408560  0.31949539  0.81157527  1
  Zn  Zn86  1  0.33280394  0.80269248  0.40022442  1
  Zn  Zn87  1  0.30898302  0.80408697  0.80937660  1
  Zn  Zn88  1  0.81939664  0.30053715  0.32050299  1
  Zn  Zn89  1  0.80876282  0.30970933  0.80608615  1
  Zn  Zn90  1  0.82241489  0.79212858  0.41076304  1
  Zn  Zn91  1  0.81837875  0.80315186  0.83134075  1
  Zn  Zn92  1  0.17791980  0.42262202  0.44237242  1
  Zn  Zn93  1  0.18162683  0.42731231  0.92691481  1
  Zn  Zn94  1  0.19897670  0.94923106  0.42290237  1
  Zn  Zn95  1  0.19046206  0.93741629  0.94677090  1
  Zn  Zn96  1  0.68443511  0.44036438  0.43522917  1
  Zn  Zn97  1  0.66789500  0.45020130  0.96046193  1
  Zn  Zn98  1  0.67693077  0.93349179  0.42543618  1
  Zn  Zn99  1  0.67123092  0.92882353  0.95299848  1
  Zn  Zn100  1  0.32009516  0.07857927  0.04165029  1
  Zn  Zn101  1  0.29606692  0.06509641  0.59560756  1
  Zn  Zn102  1  0.31865200  0.45648010  0.05480182  1
  Zn  Zn103  1  0.31376391  0.54586218  0.56455577  1
  Zn  Zn104  1  0.81440166  0.06051800  0.07119682  1
  Zn  Zn105  1  0.83879476  0.07833683  0.53705934  1
  Zn  Zn106  1  0.81177663  0.56505920  0.07228122  1
  Zn  Zn107  1  0.82488424  0.61938092  0.53997194  1
  Zn  Zn108  1  0.44012956  0.47127984  0.17498749  1
  Zn  Zn109  1  0.43456878  0.42684555  0.70299970  1
  Zn  Zn110  1  0.41134838  0.95562062  0.12947590  1
  Zn  Zn111  1  0.43359742  0.94928939  0.70016313  1
  Zn  Zn112  1  0.93745276  0.43346227  0.18836403  1
  Zn  Zn113  1  0.92472790  0.43909870  0.68200696  1
  Zn  Zn114  1  0.95778145  0.93839884  0.19039429  1
  Zn  Zn115  1  0.97709175  0.95405028  0.69965250  1
  Zn  Zn116  1  0.07139475  0.06372719  0.30646732  1
  Zn  Zn117  1  0.02793281  0.06890905  0.81649435  1
  Zn  Zn118  1  0.06646981  0.56182059  0.31554189  1
  Zn  Zn119  1  0.05503202  0.55074440  0.81009172  1
  Zn  Zn120  1  0.54849983  0.06592699  0.30043942  1
  Zn  Zn121  1  0.56501956  0.05685644  0.82559609  1
  Zn  Zn122  1  0.55237845  0.55970377  0.28090947  1
  Zn  Zn123  1  0.57694256  0.56266899  0.78595551  1
  Zn  Zn124  1  0.43568564  0.11054829  0.43913679  1
  Zn  Zn125  1  0.46203178  0.21549978  0.94899339  1
  Zn  Zn126  1  0.42252896  0.64764075  0.45413257  1
  Zn  Zn127  1  0.44189997  0.67614724  0.92859357  1
  Zn  Zn128  1  0.94199389  0.18641736  0.43408013  1
  Zn  Zn129  1  0.90495149  0.19016062  0.92864659  1
  Zn  Zn130  1  0.95763197  0.69123089  0.43917669  1
  Zn  Zn131  1  0.90566413  0.67428345  0.95452060  1
  Zn  Zn132  1  0.05510611  0.30746429  0.04493633  1
  Zn  Zn133  1  0.05911203  0.31299304  0.55999290  1
  Zn  Zn134  1  0.07887766  0.80634503  0.06070799  1
  Zn  Zn135  1  0.06563460  0.82129990  0.56383144  1
  Zn  Zn136  1  0.57635758  0.31794952  0.06134898  1
  Zn  Zn137  1  0.56157882  0.29322098  0.56465245  1
  Zn  Zn138  1  0.56064845  0.82078087  0.05704470  1
  Zn  Zn139  1  0.52245802  0.83497226  0.56956946  1
  O  O140  1  0.11015047  0.13381890  0.11744969  1
  O  O141  1  0.10858685  0.15715781  0.63255584  1
  O  O142  1  0.11411289  0.60949809  0.11248101  1
  O  O143  1  0.11047782  0.61478549  0.63019224  1
  O  O144  1  0.62369410  0.12225158  0.12007299  1
  O  O145  1  0.64373472  0.11474284  0.60953506  1
  O  O146  1  0.64811486  0.64329240  0.15884179  1
  O  O147  1  0.62382221  0.62579802  0.62706746  1
  O  O148  1  0.36751305  0.37895832  0.39246873  1
  O  O149  1  0.39815210  0.40099414  0.80648929  1
  O  O150  1  0.38086270  0.88262621  0.33028655  1
  O  O151  1  0.38249543  0.86796061  0.86527728  1
  O  O152  1  0.89452365  0.36636590  0.37922625  1
  O  O153  1  0.86868525  0.38643043  0.88675104  1
  O  O154  1  0.90263517  0.86058285  0.36891727  1
  O  O155  1  0.88996638  0.86592040  0.90166591  1
  O  O156  1  0.27838235  0.00462578  0.35942431  1
  O  O157  1  0.22003166  0.01573295  0.86787835  1
  O  O158  1  0.22802492  0.49708196  0.36750965  1
  O  O159  1  0.24351086  0.48855878  0.84739922  1
  O  O160  1  0.74690486  0.01031568  0.36898462  1
  O  O161  1  0.75977610  -0.03499348  0.85551792  1
  O  O162  1  0.74133036  0.52227940  0.37064538  1
  O  O163  1  0.75876897  0.50922621  0.88622940  1
  O  O164  1  0.22774018  0.48734106  0.13927949  1
  O  O165  1  0.23548580  0.48885073  0.63092933  1
  O  O166  1  0.22862123  1.02141478  0.10057744  1
  O  O167  1  0.21959411  1.04487995  0.68048866  1
  O  O168  1  0.74765294  0.50946798  0.15155076  1
  O  O169  1  0.75443032  0.53939625  0.59098042  1
  O  O170  1  0.74347687  1.00127606  0.13594431  1
  O  O171  1  0.80856016  0.90431820  0.61690542  1
  O  O172  1  -0.00282297  0.36864879  0.26193316  1
  O  O173  1  -0.02112816  0.37911194  0.76351745  1
  O  O174  1  0.01391391  0.85801528  0.25508462  1
  O  O175  1  -0.00138352  0.86206496  0.76999619  1
  O  O176  1  0.51306616  0.38674248  0.23969957  1
  O  O177  1  0.53920597  0.37722432  0.73357499  1
  O  O178  1  0.44825204  0.84658518  0.18407248  1
  O  O179  1  0.49832844  0.88159256  0.76572417  1
  O  O180  1  0.49400381  0.13803628  0.22530303  1
  O  O181  1  0.48850394  0.11334543  0.75455378  1
  O  O182  1  0.47694776  0.64778879  0.24113614  1
  O  O183  1  0.49205616  0.62282760  0.73154188  1
  O  O184  1  0.99254707  0.13611480  0.24151501  1
  O  O185  1  0.98882800  0.12600588  0.72623093  1
  O  O186  1  1.00236747  0.62854134  0.24193632  1
  O  O187  1  0.99828120  0.63086499  0.74402639  1
  O  O188  1  0.37351360  0.26861949  0.00497853  1
  O  O189  1  0.35769919  0.25684181  0.49668351  1
  O  O190  1  0.36435190  0.72308833  -0.00112928  1
  O  O191  1  0.37247370  0.73888223  0.49159034  1
  O  O192  1  0.87089362  0.26261224  0.01376602  1
  O  O193  1  0.86246656  0.23887288  0.50096721  1
  O  O194  1  0.89197988  0.76593417  0.02597209  1
  O  O195  1  0.86217782  0.71894536  0.49198642  1
  O  O196  1  0.13273537  0.25239454  0.48898424  1
  O  O197  1  0.14236128  0.25145411  1.00149256  1
  O  O198  1  0.12634443  0.74758867  0.49725004  1
  O  O199  1  0.14246663  0.72670077  1.00495830  1
  O  O200  1  0.63880339  0.23597702  0.48874398  1
  O  O201  1  0.63815808  0.24513146  0.99219865  1
  O  O202  1  0.59108339  0.76271714  0.51109325  1
  O  O203  1  0.62336134  0.74958898  0.99057362  1
  O  O204  1  0.49001484  0.25726467  0.11019354  1
  O  O205  1  0.52433967  0.22219523  0.64733915  1
  O  O206  1  0.47742447  0.78728975  0.14679726  1
  O  O207  1  0.42767668  0.80083085  0.62774698  1
  O  O208  1  0.99320846  0.24726326  0.12848491  1
  O  O209  1  0.98077966  0.24321757  0.60718706  1
  O  O210  1  1.00632823  0.74299579  0.13515687  1
  O  O211  1  1.00729562  0.73900790  0.63341245  1
  O  O212  1  0.00663737  0.25694210  0.36711395  1
  O  O213  1  -0.02013415  0.26717956  0.88340581  1
  O  O214  1  0.02353035  0.75240914  0.36501282  1
  O  O215  1  -0.00011469  0.75540132  0.87796689  1
  O  O216  1  0.51865371  0.24195263  0.38419636  1
  O  O217  1  0.53759705  0.25112911  0.87127359  1
  O  O218  1  0.45685417  0.70047448  0.29892431  1
  O  O219  1  0.51182548  0.75325835  0.87549747  1
  O  O220  1  0.24584156  0.13991083  0.51426191  1
  O  O221  1  0.25866295  0.15605561  0.99094976  1
  O  O222  1  0.24674058  0.59995580  0.48404236  1
  O  O223  1  0.23670464  0.59750056  0.98773362  1
  O  O224  1  0.74480419  0.12238903  0.48272438  1
  O  O225  1  0.74992535  0.12893603  1.00578645  1
  O  O226  1  0.71528988  0.65370437  0.47346392  1
  O  O227  1  0.79338834  0.64517579  0.99519915  1
  O  O228  1  0.24793850  0.38138681  0.00539406  1
  O  O229  1  0.25478778  0.36530451  0.50989430  1
  O  O230  1  0.24891271  0.85698095  0.00268764  1
  O  O231  1  0.28719525  0.88700355  0.47565544  1
  O  O232  1  0.75853149  0.38524130  0.00892809  1
  O  O233  1  0.75118684  0.35841100  0.48624754  1
  O  O234  1  0.76801893  0.87306127  0.00457726  1
  O  O235  1  0.73009136  0.84195979  0.46741514  1
  O  O236  1  0.12118622  0.49388083  0.23763011  1
  O  O237  1  0.12700211  0.49634042  0.73495673  1
  O  O238  1  0.12752361  1.00808235  0.22735259  1
  O  O239  1  0.09128140  0.98137360  0.75901210  1
  O  O240  1  0.64643953  0.48320302  0.25334134  1
  O  O241  1  0.63939341  0.49303155  0.71027333  1
  O  O242  1  0.61802798  1.00554364  0.23411456  1
  O  O243  1  0.62922758  0.98122297  0.76297322  1
  O  O244  1  0.37829553  0.01717262  0.22700147  1
  O  O245  1  0.36423307  0.01350856  0.77437481  1
  O  O246  1  0.35510465  0.47896908  0.26685119  1
  O  O247  1  0.34677227  0.52693844  0.72447654  1
  O  O248  1  0.88785561  0.01781988  0.24011189  1
  O  O249  1  0.88257255  0.00576920  0.73209657  1
  O  O250  1  0.87478857  0.51133840  0.24764047  1
  O  O251  1  0.86739499  0.50979306  0.75882254  1
  O  O252  1  0.10696436  0.35804926  0.37914601  1
  O  O253  1  0.09674702  0.38045697  0.87205737  1
  O  O254  1  0.13103861  0.85509551  0.37753159  1
  O  O255  1  0.11211029  0.87359715  0.87517724  1
  O  O256  1  0.62722739  0.36312241  0.36780482  1
  O  O257  1  0.64994121  0.36938141  0.88106611  1
  O  O258  1  0.59692229  0.87914153  0.35413012  1
  O  O259  1  0.60477081  0.86907194  0.88251742  1
  O  O260  1  0.39280997  0.13920487  0.11790427  1
  O  O261  1  0.38414259  0.13217849  0.63503424  1
  O  O262  1  0.37428017  0.54133334  0.11123004  1
  O  O263  1  0.37196600  0.63254826  0.61608055  1
  O  O264  1  0.88341643  0.13821481  0.13283787  1
  O  O265  1  0.88230322  0.13162094  0.62661237  1
  O  O266  1  0.89089750  0.63445236  0.13660346  1
  O  O267  1  0.89363055  0.62167777  0.64176531  1
  O  O268  1  0.27078847  0.26391387  0.10935767  1
  O  O269  1  0.23727963  0.25588435  0.61732106  1
  O  O270  1  0.26357700  0.71610972  0.10551063  1
  O  O271  1  0.25635179  0.75984209  0.61482590  1
  O  O272  1  0.76532288  0.24834339  0.13828240  1
  O  O273  1  0.75904989  0.23991061  0.60418765  1
  O  O274  1  0.77356402  0.75578932  0.13754299  1
  O  O275  1  0.72652477  0.75488057  0.60710123  1
  O  O276  1  0.23826331  0.25256486  0.38539767  1
  O  O277  1  0.25797059  0.27868333  0.89043334  1
  O  O278  1  0.24262167  0.72802111  0.37772317  1
  O  O279  1  0.25171225  0.74540751  0.89129838  1
  O  O280  1  0.74828811  0.23661134  0.38332043  1
  O  O281  1  0.74835209  0.24211333  0.87502265  1
  O  O282  1  0.74357582  0.73399578  0.34072878  1
  O  O283  1  0.73783255  0.75156119  0.88997646  1
  O  O284  1  -0.01787400  0.11478153  0.00357994  1
  O  O285  1  0.00564748  0.12153184  0.50516865  1
  O  O286  1  -0.00876978  0.61151838  0.00889786  1
  O  O287  1  0.00316684  0.61546525  0.51559088  1
  O  O288  1  0.52405024  0.13909485  0.01290830  1
  O  O289  1  0.51651573  0.13247685  0.51895550  1
  O  O290  1  0.49679390  0.59571625  -0.00525969  1
  O  O291  1  0.50579539  0.58782845  0.49226831  1
  O  O292  1  0.48501669  0.37010840  0.51390157  1
  O  O293  1  0.55662671  0.42327837  1.01566820  1
  O  O294  1  0.45723300  0.89870260  0.49902826  1
  O  O295  1  0.47967221  0.86596198  0.99360169  1
  O  O296  1  0.99554302  0.38825737  0.49390934  1
  O  O297  1  0.98440482  0.38406094  0.99226892  1
  O  O298  1  1.00785348  0.88225740  0.48644779  1
  O  O299  1  1.00484710  0.88086178  0.99662717  1
  O  O300  1  0.48714114  0.49701825  0.35872653  1
  O  O301  1  0.53699098  0.49856648  0.87144541  1
  O  O302  1  0.46676968  1.01951825  0.36821169  1
  O  O303  1  0.49480250  0.98707381  0.88751390  1
  O  O304  1  1.00764857  0.49055610  0.38699229  1
  O  O305  1  0.97866447  0.49183121  0.88177154  1
  O  O306  1  1.01016279  0.98150316  0.36283971  1
  O  O307  1  0.99355031  0.98808067  0.89265585  1
  O  O308  1  0.01156826  0.01144165  0.11536086  1
  O  O309  1  0.01366143  0.01703597  0.60943270  1
  O  O310  1  0.00224309  0.50290060  0.11921118  1
  O  O311  1  0.00037722  0.50151100  0.61606289  1
  O  O312  1  0.51117836  0.01847983  0.11712276  1
  O  O313  1  0.50192485  0.02036886  0.63457413  1
  O  O314  1  0.54066297  0.52849464  0.16025081  1
  O  O315  1  0.48710606  0.49659467  0.62229605  1
  O  O316  1  0.23888009  0.38057347  0.26318437  1
  O  O317  1  0.24817162  0.36737165  0.73209558  1
  O  O318  1  0.24242662  0.86562122  0.23433072  1
  O  O319  1  0.23455278  0.89717544  0.76249374  1
  O  O320  1  0.77172750  0.39190742  0.26825665  1
  O  O321  1  0.74606048  0.38254712  0.74483809  1
  O  O322  1  0.63649846  0.85591335  0.28858488  1
  O  O323  1  0.77013012  0.91600261  0.79953203  1
  O  O324  1  0.26913963  0.13746306  0.22878624  1
  O  O325  1  0.27822131  0.13237081  0.78072250  1
  O  O326  1  0.24342620  0.59686858  0.26574107  1
  O  O327  1  0.22456065  0.61879152  0.75153753  1
  O  O328  1  0.76527558  0.13027904  0.25807958  1
  O  O329  1  0.76259393  0.11130978  0.74070445  1
  O  O330  1  0.77358086  0.61569460  0.26430972  1
  O  O331  1  0.76582907  0.64158978  0.74326693  1
  O  O332  1  0.37804382  0.14491585  0.34300389  1
  O  O333  1  0.39794625  0.13018626  0.89409142  1
  O  O334  1  0.35688129  0.59107623  0.37842169  1
  O  O335  1  0.38537422  0.61047483  0.84863814  1
  O  O336  1  0.86885006  0.12781393  0.36068902  1
  O  O337  1  0.88990472  0.11802077  0.84613200  1
  O  O338  1  0.90116814  0.62309992  0.36004181  1
  O  O339  1  0.87796723  0.61173539  0.85984250  1
  O  O340  1  0.10666088  0.38111702  0.12169189  1
  O  O341  1  0.13232603  0.37907057  0.61958082  1
  O  O342  1  0.12586552  0.89455912  0.11240610  1
  O  O343  1  0.11780818  0.87753896  0.64586940  1
  O  O344  1  0.64071595  0.36163777  0.14829850  1
  O  O345  1  0.64714504  0.35534852  0.61829799  1
  O  O346  1  0.62561732  0.89449194  0.11231186  1
  O  O347  1  0.60082229  0.87788700  0.64136272  1
  O  O348  1  0.11757666  0.24853344  0.25536420  1
  O  O349  1  0.13018817  0.20311983  0.80864973  1
  O  O350  1  0.12397646  0.73762881  0.24234547  1
  O  O351  1  0.11516644  0.76490437  0.75147170  1
  O  O352  1  0.63013273  0.26004934  0.26449440  1
  O  O353  1  0.64408872  0.26397451  0.75922393  1
  O  O354  1  0.60752745  0.79125226  0.25399084  1
  O  O355  1  0.64348229  0.78603610  0.76934171  1
  O  O356  1  0.37523719  0.25374511  0.22760924  1
  O  O357  1  0.39405296  0.23579650  0.77042239  1
  O  O358  1  0.38585512  0.72997138  0.29107614  1
  O  O359  1  0.35274806  0.72340818  0.73766462  1
  O  O360  1  0.88763019  0.24642224  0.23960551  1
  O  O361  1  0.86241565  0.23765875  0.72926689  1
  O  O362  1  0.89763602  0.73777195  0.24354156  1
  O  O363  1  0.88880063  0.73885475  0.76145652  1
  O  O364  1  0.38806217  0.48258704  0.49224940  1
  O  O365  1  0.40006682  0.46450642  0.96517800  1
  O  O366  1  0.36248492  1.03677428  0.49798433  1
  O  O367  1  0.36492945  0.97798560  1.03230180  1
  O  O368  1  0.88804401  0.51575147  0.49777438  1
  O  O369  1  0.87725549  0.48964717  1.00143100  1
  O  O370  1  0.90773199  1.00294580  0.48761854  1
  O  O371  1  0.88984422  0.98321065  1.02008473  1
  O  O372  1  0.10943405  0.01710242  -0.00101337  1
  O  O373  1  0.11318073  -0.00017068  0.47788297  1
  O  O374  1  0.11075056  0.49957088  0.01034783  1
  O  O375  1  0.11358032  0.49560313  0.51217081  1
  O  O376  1  0.63731373  0.01805297  0.01413166  1
  O  O377  1  0.62354018  0.01195477  0.48868040  1
  O  O378  1  0.65677169  0.54385681  0.03064729  1
  O  O379  1  0.61376976  0.48168990  0.52171328  1
  O  O380  1  0.38571961  0.37958724  0.12402345  1
  O  O381  1  0.35589198  0.37724059  0.61328711  1
  O  O382  1  0.28877089  0.86113561  0.17840745  1
  O  O383  1  0.34555191  0.94260767  0.62487711  1
  O  O384  1  0.87626900  0.36605043  0.11702469  1
  O  O385  1  0.87285311  0.35754212  0.62261852  1
  O  O386  1  0.89016115  0.86591867  0.12949496  1
  O  O387  1  0.87045862  0.86562694  0.61945183  1
  O  O388  1  0.11660727  0.14385844  0.37187511  1
  O  O389  1  0.10872150  0.14576620  0.85784404  1
  O  O390  1  0.13015697  0.63493574  0.37755034  1
  O  O391  1  0.11038524  0.60746022  0.89248654  1
  O  O392  1  0.63702844  0.13172999  0.36947796  1
  O  O393  1  0.63444566  0.12082153  0.89210774  1
  O  O394  1  0.61961635  0.63264110  0.34222882  1
  O  O395  1  0.62968437  0.64795701  0.84822152  1
