# generated using pymatgen
data_V35Zn35O128
_symmetry_space_group_name_H-M   'P 1'
_cell_length_a   16.89830524
_cell_length_b   16.86202817
_cell_length_c   16.89214610
_cell_angle_alpha   89.94844349
_cell_angle_beta   90.04284032
_cell_angle_gamma   89.97952316
_symmetry_Int_Tables_number   1
_chemical_formula_structural   V35Zn35O128
_chemical_formula_sum   'V70 Zn70 O256'
_cell_volume   4813.23942250
_cell_formula_units_Z   2
loop_
 _symmetry_equiv_pos_site_id
 _symmetry_equiv_pos_as_xyz
  1  'x, y, z'
loop_
 _atom_site_type_symbol
 _atom_site_label
 _atom_site_symmetry_multiplicity
 _atom_site_fract_x
 _atom_site_fract_y
 _atom_site_fract_z
 _atom_site_occupancy
  V  V0  1  -0.00383044  -0.01218771  -0.01465597  1
  V  V1  1  0.12099956  0.76534076  0.88179032  1
  V  V2  1  0.75296552  0.38785907  0.64398630  1
  V  V3  1  0.61798789  0.84971384  0.25952178  1
  V  V4  1  0.86353226  0.75180849  0.12189742  1
  V  V5  1  0.12193203  0.86637336  0.24910880  1
  V  V6  1  0.62472757  0.25822278  0.37624985  1
  V  V7  1  0.00531424  0.12079712  0.62579394  1
  V  V8  1  0.37330558  0.52332582  0.86649644  1
  V  V9  1  0.34733225  0.62153971  0.24801435  1
  V  V10  1  0.87504294  0.00409123  0.37193817  1
  V  V11  1  -0.00604101  0.49488583  0.48235581  1
  V  V12  1  0.50059380  -0.01084269  0.48985240  1
  V  V13  1  0.12010284  0.61811466  -0.01666678  1
  V  V14  1  0.37665884  0.38312300  -0.00854111  1
  V  V15  1  0.73898587  0.65207387  0.87318320  1
  V  V16  1  0.11510121  0.50289831  0.12901074  1
  V  V17  1  0.12711499  0.12357684  -0.01015417  1
  V  V18  1  0.88091131  0.73853389  0.63109023  1
  V  V19  1  0.51288789  0.49029337  0.00674992  1
  V  V20  1  0.87450466  0.62170008  0.26296601  1
  V  V21  1  0.12668239  -0.00152660  0.12699248  1
  V  V22  1  0.24945118  -0.00235872  0.24468869  1
  V  V23  1  0.26473543  0.11860055  0.86295239  1
  V  V24  1  0.61313606  0.50278889  0.63749322  1
  V  V25  1  0.37907486  -0.01144249  0.37532651  1
  V  V26  1  0.50334095  0.26459485  0.25113513  1
  V  V27  1  0.12570713  0.37436123  0.75481204  1
  V  V28  1  0.85079559  0.87530930  -0.00631654  1
  V  V29  1  0.62266146  0.61450885  0.49620970  1
  V  V30  1  0.35053897  0.50026581  0.37610541  1
  V  V31  1  -0.00164877  0.86515391  0.36691260  1
  V  V32  1  -0.00250442  0.11993020  0.12346269  1
  V  V33  1  0.00729785  0.00278937  0.50259363  1
  V  V34  1  0.37482172  0.73542861  0.61986115  1
  V  V35  1  0.87550930  0.25815386  0.10872387  1
  V  V36  1  0.74898765  0.73932339  0.49150017  1
  V  V37  1  0.00555675  0.24816209  0.75709535  1
  V  V38  1  0.87237531  0.37265545  0.49102600  1
  V  V39  1  0.48928715  0.13799997  0.62586462  1
  V  V40  1  0.12456740  0.13864165  0.50198458  1
  V  V41  1  0.60274695  0.25354280  0.86358428  1
  V  V42  1  0.86244453  0.51086203  0.87739296  1
  V  V43  1  0.86728127  0.24884843  0.62428330  1
  V  V44  1  0.25370686  0.38081059  0.62118902  1
  V  V45  1  0.11026728  0.50481217  0.62842239  1
  V  V46  1  0.87445986  0.12796647  0.24345217  1
  V  V47  1  0.74495881  0.23051635  -0.01528591  1
  V  V48  1  0.62411334  -0.00215352  0.62264101  1
  V  V49  1  0.37907784  0.13137973  0.25091188  1
  V  V50  1  0.87263595  0.11861086  0.76275814  1
  V  V51  1  0.37214194  0.25317965  0.12797521  1
  V  V52  1  0.00319090  0.37680566  0.89854037  1
  V  V53  1  0.26908555  0.25670269  0.50525380  1
  V  V54  1  0.12485285  0.88032922  0.72788337  1
  V  V55  1  0.25078296  0.13371761  0.37763854  1
  V  V56  1  0.74944645  0.13596408  0.37641791  1
  V  V57  1  0.11944763  0.62947653  0.47883467  1
  V  V58  1  0.49327884  0.38602722  0.39503726  1
  V  V59  1  0.49526421  0.62712777  0.13303477  1
  V  V60  1  0.24686041  0.24964426  -0.00575657  1
  V  V61  1  0.73112502  0.37628997  0.11526358  1
  V  V62  1  0.73894466  -0.00904907  0.24039746  1
  V  V63  1  0.62853751  0.13213228  0.49905816  1
  V  V64  1  0.25485242  0.76151203  0.00857738  1
  V  V65  1  -0.00433743  0.74611395  0.75923335  1
  V  V66  1  0.24788223  0.38919470  0.13524534  1
  V  V67  1  0.74718920  0.00131287  0.76033818  1
  V  V68  1  0.74500789  0.87793565  0.62528126  1
  V  V69  1  0.87388266  0.87669857  0.50189558  1
  Zn  Zn70  1  -0.00464050  0.63321935  0.12095536  1
  Zn  Zn71  1  0.05531532  0.30351914  0.29802910  1
  Zn  Zn72  1  0.25586141  -0.01604795  0.74870349  1
  Zn  Zn73  1  0.75885869  0.49825373  0.22307274  1
  Zn  Zn74  1  0.36453944  0.78448732  0.13889097  1
  Zn  Zn75  1  0.63210040  0.61757609  0.00502257  1
  Zn  Zn76  1  0.18708717  0.18815497  0.18784771  1
  Zn  Zn77  1  0.19015434  0.19215632  0.68424635  1
  Zn  Zn78  1  0.18104475  0.68852133  0.17862870  1
  Zn  Zn79  1  0.17780769  0.68841889  0.68465216  1
  Zn  Zn80  1  0.69598179  0.17976498  0.18346784  1
  Zn  Zn81  1  0.68508875  0.18699160  0.69131472  1
  Zn  Zn82  1  0.69431626  0.68392038  0.18991700  1
  Zn  Zn83  1  0.70280685  0.67633907  0.67852608  1
  Zn  Zn84  1  0.30695655  0.32073957  0.31887916  1
  Zn  Zn85  1  0.30507376  0.31888536  0.81506168  1
  Zn  Zn86  1  0.43258063  0.79365249  0.31324649  1
  Zn  Zn87  1  0.29186489  0.77295096  0.79639718  1
  Zn  Zn88  1  0.85736479  0.34133690  0.28063230  1
  Zn  Zn89  1  0.82432353  0.31518859  0.82155760  1
  Zn  Zn90  1  0.81150396  0.80749516  0.30466710  1
  Zn  Zn91  1  0.81080919  0.81801348  0.81383579  1
  Zn  Zn92  1  0.16816681  0.42842671  0.43380009  1
  Zn  Zn93  1  0.19475227  0.44326218  0.93228093  1
  Zn  Zn94  1  0.17876915  0.95178063  0.42259042  1
  Zn  Zn95  1  0.19156092  0.93998614  0.93268786  1
  Zn  Zn96  1  0.69033765  0.42921696  0.45164015  1
  Zn  Zn97  1  0.69496301  0.41808265  0.93420061  1
  Zn  Zn98  1  0.68927243  0.93930499  0.43267319  1
  Zn  Zn99  1  0.67719788  0.96589349  0.95396365  1
  Zn  Zn100  1  0.31422829  0.06251997  0.06409417  1
  Zn  Zn101  1  0.31109182  0.06406369  0.56586609  1
  Zn  Zn102  1  0.30398645  0.57241380  0.05529525  1
  Zn  Zn103  1  0.29551577  0.55808428  0.55061785  1
  Zn  Zn104  1  0.81037479  0.05443524  0.05850222  1
  Zn  Zn105  1  0.81385752  0.06497700  0.56294991  1
  Zn  Zn106  1  0.81423957  0.56193362  0.04959424  1
  Zn  Zn107  1  0.81670460  0.55625125  0.56396558  1
  Zn  Zn108  1  0.43495773  0.44437348  0.18908563  1
  Zn  Zn109  1  0.43557456  0.44256056  0.68512087  1
  Zn  Zn110  1  0.45412535  0.93430010  0.18801295  1
  Zn  Zn111  1  0.41230502  0.94417955  0.65533108  1
  Zn  Zn112  1  0.94700271  0.44426532  0.18352320  1
  Zn  Zn113  1  0.93643715  0.43982279  0.69763577  1
  Zn  Zn114  1  0.93382377  0.93528874  0.17938149  1
  Zn  Zn115  1  0.93831531  0.93453559  0.69371249  1
  Zn  Zn116  1  0.04986996  0.10418184  0.32520015  1
  Zn  Zn117  1  0.06829516  0.05633708  0.80831762  1
  Zn  Zn118  1  0.05280761  0.56122001  0.30388278  1
  Zn  Zn119  1  0.03547447  0.55413598  0.80870719  1
  Zn  Zn120  1  0.56276305  0.06965695  0.30640212  1
  Zn  Zn121  1  0.56992058  0.08869705  0.80022029  1
  Zn  Zn122  1  0.57297449  0.56211657  0.31699513  1
  Zn  Zn123  1  0.57907772  0.53570216  0.83743083  1
  Zn  Zn124  1  0.44197230  0.18606187  0.43928973  1
  Zn  Zn125  1  0.43162049  0.18913248  0.93472068  1
  Zn  Zn126  1  0.43377160  0.64569315  0.44191131  1
  Zn  Zn127  1  0.44165971  0.68672044  0.95444366  1
  Zn  Zn128  1  0.93890473  0.19803188  0.43477238  1
  Zn  Zn129  1  0.94387049  0.18524652  0.93911539  1
  Zn  Zn130  1  0.94025766  0.68316221  0.44174288  1
  Zn  Zn131  1  0.92936957  0.68664215  0.94336163  1
  Zn  Zn132  1  0.07379313  0.30076169  0.09446993  1
  Zn  Zn133  1  0.05647021  0.31614268  0.56804551  1
  Zn  Zn134  1  0.05336367  0.80944512  0.06687454  1
  Zn  Zn135  1  0.05877823  0.81126614  0.55943801  1
  Zn  Zn136  1  0.58193332  0.26058872  0.07864916  1
  Zn  Zn137  1  0.56876605  0.31945577  0.56837687  1
  Zn  Zn138  1  0.58107374  0.77666934  0.09825351  1
  Zn  Zn139  1  0.56804796  0.79594713  0.43544503  1
  O  O140  1  0.11726661  0.11442334  0.11378242  1
  O  O141  1  0.11345764  0.12765855  0.61903022  1
  O  O142  1  0.11912520  0.61436292  0.11607323  1
  O  O143  1  0.12378353  0.60684185  0.62675955  1
  O  O144  1  0.60481914  0.16001693  0.12696495  1
  O  O145  1  0.62450330  0.11519168  0.61402893  1
  O  O146  1  0.61008021  0.65803358  0.11224421  1
  O  O147  1  0.63208003  0.60966197  0.62216201  1
  O  O148  1  0.38244489  0.38983934  0.37644007  1
  O  O149  1  0.37313832  0.37506952  0.89035671  1
  O  O150  1  0.37695780  0.89106639  0.36462858  1
  O  O151  1  0.38084589  0.82394423  0.85978063  1
  O  O152  1  0.85923281  0.35990484  0.39437987  1
  O  O153  1  0.89817940  0.38346425  0.87696710  1
  O  O154  1  0.88277269  0.88439129  0.37963267  1
  O  O155  1  0.86879660  0.87501054  0.89382576  1
  O  O156  1  0.26430161  0.00940993  0.37058062  1
  O  O157  1  0.25152787  0.01171036  0.86551182  1
  O  O158  1  0.25261585  0.48713545  0.37847016  1
  O  O159  1  0.27311780  0.50210291  0.87359105  1
  O  O160  1  0.76183814  0.00949230  0.37119075  1
  O  O161  1  0.73560449  -0.00233199  0.85857682  1
  O  O162  1  0.72190795  0.48526221  0.35306839  1
  O  O163  1  0.76449563  0.48572034  0.86910679  1
  O  O164  1  0.24751392  0.49256081  0.12224259  1
  O  O165  1  0.22909063  0.48577465  0.61344998  1
  O  O166  1  0.24034806  1.00859435  0.13304142  1
  O  O167  1  0.30890553  0.99055117  0.64947250  1
  O  O168  1  0.74520928  0.48212232  0.10491984  1
  O  O169  1  0.76413279  0.48948692  0.64238318  1
  O  O170  1  0.74937412  1.00094130  0.14179595  1
  O  O171  1  0.74373370  0.99540832  0.62390537  1
  O  O172  1  -0.03284027  0.36473996  0.25903869  1
  O  O173  1  0.01172605  0.36428597  0.75551392  1
  O  O174  1  0.00415597  0.88402038  0.26055999  1
  O  O175  1  0.01365712  0.86619231  0.74323442  1
  O  O176  1  0.49315463  0.36700756  0.26260991  1
  O  O177  1  0.45894167  0.33141459  0.74244048  1
  O  O178  1  0.50983326  0.86556168  0.26238395  1
  O  O179  1  0.43304753  0.86299734  0.81566607  1
  O  O180  1  0.48545810  0.14347841  0.26127409  1
  O  O181  1  0.49233310  0.10728447  0.72346847  1
  O  O182  1  0.51475270  0.61171392  0.23239937  1
  O  O183  1  0.56213388  0.73948879  0.79478111  1
  O  O184  1  0.98542965  0.10624803  0.23197146  1
  O  O185  1  0.99301579  0.12504428  0.74404597  1
  O  O186  1  0.98075763  0.62152783  0.23889232  1
  O  O187  1  1.00559650  0.64768938  0.74612028  1
  O  O188  1  0.36946618  0.25810968  0.01047843  1
  O  O189  1  0.36732228  0.25567898  0.49823069  1
  O  O190  1  0.35517641  0.74647971  0.00010034  1
  O  O191  1  0.37003259  0.71431592  0.51669427  1
  O  O192  1  0.86523804  0.23650264  0.00516877  1
  O  O193  1  0.88373663  0.25816206  0.51615875  1
  O  O194  1  0.87079433  0.76671166  0.00534775  1
  O  O195  1  0.87294980  0.75796644  0.51271468  1
  O  O196  1  0.12374459  0.24011257  0.50400514  1
  O  O197  1  0.14014781  0.23482538  1.01191103  1
  O  O198  1  0.10043255  0.72790435  0.49918675  1
  O  O199  1  0.12092835  0.74827067  0.99112396  1
  O  O200  1  0.62282796  0.24008308  0.49157531  1
  O  O201  1  0.63927179  0.24808680  0.98152362  1
  O  O202  1  0.64301596  0.73650981  0.50441625  1
  O  O203  1  0.58520909  0.78733033  0.97567445  1
  O  O204  1  0.48289881  0.26495941  0.14253790  1
  O  O205  1  0.51454563  0.23619958  0.62230269  1
  O  O206  1  0.47390661  0.73046496  0.11706594  1
  O  O207  1  0.47715932  0.72768076  0.62246678  1
  O  O208  1  0.98211860  0.22816048  0.10873251  1
  O  O209  1  0.99172207  0.24016350  0.63608529  1
  O  O210  1  0.98112637  0.75093535  0.12665909  1
  O  O211  1  0.98378647  0.75530505  0.63052662  1
  O  O212  1  0.01304630  0.21104436  0.35552012  1
  O  O213  1  -0.00237051  0.25506467  0.86302377  1
  O  O214  1  -0.00904326  0.76752650  0.37600357  1
  O  O215  1  0.00136587  0.74972057  0.86514000  1
  O  O216  1  0.50149540  0.26214136  0.37022309  1
  O  O217  1  0.50217082  0.25518563  0.88218245  1
  O  O218  1  0.48284367  0.73708774  0.39519647  1
  O  O219  1  0.51822506  0.78291621  0.93802841  1
  O  O220  1  0.24590660  0.13700189  0.50060728  1
  O  O221  1  0.24814556  0.12720393  0.98917240  1
  O  O222  1  0.21878959  0.61848896  0.49486550  1
  O  O223  1  0.22922752  0.64423468  1.00343507  1
  O  O224  1  0.74106900  0.11884733  0.48819057  1
  O  O225  1  0.74886325  0.12875231  1.00004529  1
  O  O226  1  0.75649119  0.63694778  0.50724972  1
  O  O227  1  0.74369133  0.62291680  0.98229137  1
  O  O228  1  0.25966410  0.36745380  0.00343161  1
  O  O229  1  0.24155873  0.36183465  0.50813548  1
  O  O230  1  0.24345162  0.86256649  -0.00379396  1
  O  O231  1  0.23612412  0.84807019  0.46554226  1
  O  O232  1  0.75295028  0.35325661  0.01061569  1
  O  O233  1  0.76900187  0.37783179  0.52203675  1
  O  O234  1  0.75103952  0.89266755  0.00070154  1
  O  O235  1  0.75839014  0.86854390  0.50557688  1
  O  O236  1  0.11727968  0.50104650  0.22908713  1
  O  O237  1  0.11376191  0.48560184  0.73916373  1
  O  O238  1  0.13268874  1.00793409  0.23906297  1
  O  O239  1  0.12831924  0.98521610  0.74364105  1
  O  O240  1  0.66341097  0.48324826  0.29469987  1
  O  O241  1  0.61670327  0.50057905  0.73886301  1
  O  O242  1  0.63773508  1.00031609  0.25884894  1
  O  O243  1  0.64068153  1.01172585  0.73503790  1
  O  O244  1  0.37104992  0.01318935  0.25937742  1
  O  O245  1  0.40308367  -0.07438972  0.77258986  1
  O  O246  1  0.37436599  0.50892855  0.26239614  1
  O  O247  1  0.39704139  0.50272018  0.76976483  1
  O  O248  1  0.86468220  0.00314136  0.25655298  1
  O  O249  1  0.86622876  0.01080284  0.74553177  1
  O  O250  1  0.87416187  0.51396466  0.23821397  1
  O  O251  1  0.91846070  0.51175558  0.78333838  1
  O  O252  1  0.13193989  0.35049953  0.36578729  1
  O  O253  1  0.12944319  0.37311345  0.85907321  1
  O  O254  1  0.10608611  0.88446725  0.36352260  1
  O  O255  1  0.11690145  0.86603473  0.87403439  1
  O  O256  1  0.61262367  0.36298431  0.39124723  1
  O  O257  1  0.62963016  0.35446388  0.86888676  1
  O  O258  1  0.62701424  0.87059284  0.37019145  1
  O  O259  1  0.57180408  0.92946835  0.89138055  1
  O  O260  1  0.36499526  0.14056692  0.13932573  1
  O  O261  1  0.39145173  0.13704545  0.60433602  1
  O  O262  1  0.38253864  0.60851522  0.13855507  1
  O  O263  1  0.35493841  0.62979530  0.62581315  1
  O  O264  1  0.88022446  0.11805018  0.12809795  1
  O  O265  1  0.88387919  0.13489935  0.62650331  1
  O  O266  1  0.87478922  0.64012336  0.11067031  1
  O  O267  1  0.87030296  0.64014453  0.62786041  1
  O  O268  1  0.25808885  0.26020431  0.11655404  1
  O  O269  1  0.25057570  0.25916496  0.61247055  1
  O  O270  1  0.24866343  0.75566315  0.11488331  1
  O  O271  1  0.26731471  0.74933494  0.62881944  1
  O  O272  1  0.76166658  0.25108936  0.11258359  1
  O  O273  1  0.76466555  0.24971629  0.62877914  1
  O  O274  1  0.76175894  0.75263437  0.12316487  1
  O  O275  1  0.76190103  0.76082398  0.62194816  1
  O  O276  1  0.25433794  0.24305888  0.38972080  1
  O  O277  1  0.25711118  0.23991786  0.88660478  1
  O  O278  1  0.24527513  0.79256210  0.41698234  1
  O  O279  1  0.22494094  0.74963614  0.88818259  1
  O  O280  1  0.73837142  0.23886887  0.36504131  1
  O  O281  1  0.76134044  0.24478243  0.88499130  1
  O  O282  1  0.76389546  0.75338085  0.39453800  1
  O  O283  1  0.73854378  0.75308144  0.87360139  1
  O  O284  1  0.00797739  0.11202299  0.00339367  1
  O  O285  1  0.00576882  0.12100682  0.50739826  1
  O  O286  1  0.01503887  0.63176953  0.00097318  1
  O  O287  1  -0.00056395  0.60228167  0.49862328  1
  O  O288  1  0.46511773  0.08777656  -0.00511330  1
  O  O289  1  0.51271334  0.11818713  0.50298611  1
  O  O290  1  0.50292621  0.60790027  0.01522741  1
  O  O291  1  0.52361404  0.61504560  0.50516255  1
  O  O292  1  0.49582561  0.37270247  0.49400741  1
  O  O293  1  0.48167611  0.38418193  1.01233110  1
  O  O294  1  0.51006970  0.89131815  0.48878409  1
  O  O295  1  0.56221239  0.97805587  1.07307769  1
  O  O296  1  0.98502834  0.38014354  0.50364924  1
  O  O297  1  1.01816133  0.34876389  0.99251556  1
  O  O298  1  0.99246557  0.88414994  0.48865466  1
  O  O299  1  1.00650987  0.88822441  0.99700051  1
  O  O300  1  0.50568007  0.48523108  0.37520611  1
  O  O301  1  0.48789865  0.50164193  0.89960826  1
  O  O302  1  0.48922317  1.01126922  0.37990177  1
  O  O303  1  0.52569349  0.98729960  0.87549567  1
  O  O304  1  1.00077491  0.48946378  0.38384584  1
  O  O305  1  1.02459133  0.47585004  0.89451931  1
  O  O306  1  0.98699906  1.00698388  0.38483352  1
  O  O307  1  1.00300551  1.00303226  0.88673331  1
  O  O308  1  0.00760042  0.00416168  0.11306426  1
  O  O309  1  -0.01158090  0.01053328  0.61396986  1
  O  O310  1  0.01479497  0.49545157  0.10896800  1
  O  O311  1  0.00730238  0.49156810  0.61951646  1
  O  O312  1  0.52568353  0.01440479  0.13331290  1
  O  O313  1  0.50382916  0.00107895  0.60593672  1
  O  O314  1  0.50141711  0.50526696  0.11553570  1
  O  O315  1  0.51544403  0.48596401  0.62004155  1
  O  O316  1  0.25057555  0.37341110  0.23363713  1
  O  O317  1  0.23566560  0.36463860  0.73531874  1
  O  O318  1  0.22843094  0.89412716  0.26070417  1
  O  O319  1  0.22790011  0.86489080  0.75585045  1
  O  O320  1  0.76631244  0.37319335  0.21783395  1
  O  O321  1  0.75921830  0.36449828  0.74084233  1
  O  O322  1  0.74018158  0.88617419  0.26003970  1
  O  O323  1  0.75929465  0.89259097  0.73778850  1
  O  O324  1  0.25515820  0.12272440  0.25921336  1
  O  O325  1  0.24298684  0.13132864  0.76316295  1
  O  O326  1  0.24886789  0.61847090  0.24017843  1
  O  O327  1  0.26019850  0.66761075  0.75818825  1
  O  O328  1  0.75603570  0.11352789  0.25747777  1
  O  O329  1  0.76469353  0.11495321  0.74407508  1
  O  O330  1  0.76544060  0.61526174  0.24163172  1
  O  O331  1  0.73932207  0.63024248  0.77238217  1
  O  O332  1  0.36572928  0.12446012  0.36983835  1
  O  O333  1  0.36444803  0.12483547  0.86730030  1
  O  O334  1  0.36290230  0.61457813  0.35581933  1
  O  O335  1  0.38510770  0.62398268  0.87769721  1
  O  O336  1  0.86719625  0.12247754  0.36694958  1
  O  O337  1  0.88066704  0.12399406  0.86043758  1
  O  O338  1  0.87813550  0.62677982  0.36310528  1
  O  O339  1  0.85417202  0.62380712  0.87829465  1
  O  O340  1  0.14160108  0.39292919  0.10899290  1
  O  O341  1  0.12766774  0.38107407  0.63304003  1
  O  O342  1  0.11257834  0.88685490  0.14093863  1
  O  O343  1  0.12800651  0.86959932  0.62743699  1
  O  O344  1  0.63275612  0.35955796  0.12191950  1
  O  O345  1  0.64589088  0.38779402  0.62155336  1
  O  O346  1  0.62255087  0.86309452  0.15535376  1
  O  O347  1  0.63779815  0.88948174  0.61829309  1
  O  O348  1  0.10454263  0.25952496  0.20275805  1
  O  O349  1  0.11470460  0.26029719  0.74136867  1
  O  O350  1  0.12804639  0.76816470  0.24635773  1
  O  O351  1  0.11240483  0.75947891  0.75774771  1
  O  O352  1  0.60777821  0.25003873  0.26276455  1
  O  O353  1  0.61688378  0.23969057  0.76012059  1
  O  O354  1  0.63285182  0.75046213  0.26545720  1
  O  O355  1  0.60720767  0.77028050  0.74541977  1
  O  O356  1  0.37748392  0.25004485  0.24880300  1
  O  O357  1  0.40253195  0.28119959  0.74637633  1
  O  O358  1  0.36907908  0.72704724  0.24479330  1
  O  O359  1  0.38305153  0.74202761  0.72408452  1
  O  O360  1  0.86685878  0.23154982  0.22776466  1
  O  O361  1  0.88315060  0.23615970  0.74231498  1
  O  O362  1  0.86869110  0.73677230  0.23696575  1
  O  O363  1  0.88373609  0.76247165  0.74031021  1
  O  O364  1  0.37567652  0.52694522  0.47484500  1
  O  O365  1  0.37354990  0.49144240  0.99622856  1
  O  O366  1  0.38635870  1.00219716  0.48517942  1
  O  O367  1  0.41503376  1.03059611  1.00692171  1
  O  O368  1  0.88347918  0.48607502  0.50148918  1
  O  O369  1  0.88649572  0.50637579  0.97608542  1
  O  O370  1  0.87947511  0.99379831  0.49243819  1
  O  O371  1  0.88792463  0.98653272  1.00483886  1
  O  O372  1  0.12023950  0.00437360  0.00644541  1
  O  O373  1  0.11288551  0.00728768  0.49933827  1
  O  O374  1  0.13785895  0.51591193  0.00114631  1
  O  O375  1  0.10749173  0.49894796  0.50658416  1
  O  O376  1  0.61181137  0.02547005  0.03270708  1
  O  O377  1  0.61687916  0.00873197  0.49987866  1
  O  O378  1  0.61361172  0.48802132  -0.00617345  1
  O  O379  1  0.64596218  0.50933251  0.51884061  1
  O  O380  1  0.36232940  0.37362023  0.11884997  1
  O  O381  1  0.35223475  0.39142073  0.62582128  1
  O  O382  1  0.37508609  0.89449440  0.12512722  1
  O  O383  1  0.38092484  0.83778601  0.60070724  1
  O  O384  1  0.88704949  0.35635572  0.11126106  1
  O  O385  1  0.87262638  0.36177236  0.63131644  1
  O  O386  1  0.87464120  0.86620431  0.11244254  1
  O  O387  1  0.86782031  0.87709704  0.61335351  1
  O  O388  1  0.14461883  0.11275679  0.38941925  1
  O  O389  1  0.13082891  0.12100257  0.88614485  1
  O  O390  1  0.11186552  0.62191102  0.37852720  1
  O  O391  1  0.11362351  0.63037675  0.88086052  1
  O  O392  1  0.62965480  0.13406141  0.38063524  1
  O  O393  1  0.62129946  0.14310429  0.87982458  1
  O  O394  1  0.63352493  0.61730020  0.39547993  1
  O  O395  1  0.63023859  0.62519669  0.88532459  1
