# generated using pymatgen
data_V35Zn35O128
_symmetry_space_group_name_H-M   'P 1'
_cell_length_a   16.94092041
_cell_length_b   16.93866988
_cell_length_c   16.91729102
_cell_angle_alpha   90.00359118
_cell_angle_beta   90.26432985
_cell_angle_gamma   89.98071126
_symmetry_Int_Tables_number   1
_chemical_formula_structural   V35Zn35O128
_chemical_formula_sum   'V70 Zn70 O256'
_cell_volume   4854.47735204
_cell_formula_units_Z   2
loop_
 _symmetry_equiv_pos_site_id
 _symmetry_equiv_pos_as_xyz
  1  'x, y, z'
loop_
 _atom_site_type_symbol
 _atom_site_label
 _atom_site_symmetry_multiplicity
 _atom_site_fract_x
 _atom_site_fract_y
 _atom_site_fract_z
 _atom_site_occupancy
  V  V0  1  0.50703577  0.25490095  0.25097502  1
  V  V1  1  0.62730570  0.49332448  0.12738296  1
  V  V2  1  0.83157558  0.85189564  -0.00085290  1
  V  V3  1  0.27478785  0.13697065  0.88239844  1
  V  V4  1  0.13561919  0.39496087  0.76080742  1
  V  V5  1  0.01289524  0.11726907  0.12534390  1
  V  V6  1  0.02654016  0.25106641  0.76111695  1
  V  V7  1  -0.00259721  0.46234469  -0.00196858  1
  V  V8  1  0.03140117  0.47164326  0.52159495  1
  V  V9  1  0.50375203  0.12105693  0.12135161  1
  V  V10  1  -0.01229069  0.84675146  0.34715739  1
  V  V11  1  0.63836906  0.13350196  0.47938116  1
  V  V12  1  0.37228985  0.51935491  0.35960666  1
  V  V13  1  0.87778358  0.24941216  0.11695127  1
  V  V14  1  0.74925935  0.87724312  0.62814983  1
  V  V15  1  0.49110529  0.87516098  0.37665534  1
  V  V16  1  0.75112574  0.36576587  0.11873928  1
  V  V17  1  0.23855898  0.74476460  0.00817010  1
  V  V18  1  0.22055770  0.91882762  0.57797886  1
  V  V19  1  0.62909040  0.00127397  0.61279263  1
  V  V20  1  0.86452695  0.46952797  0.87607852  1
  V  V21  1  0.75329000  0.00107169  0.25197142  1
  V  V22  1  0.18339831  0.68732259  0.44136056  1
  V  V23  1  0.86728084  0.61183438  0.76258455  1
  V  V24  1  0.87602257  0.13679101  0.74819969  1
  V  V25  1  0.74914204  0.00518366  0.75338082  1
  V  V26  1  0.64174321  0.62606386  -0.00067495  1
  V  V27  1  0.37287793  0.25583335  0.11160918  1
  V  V28  1  0.49408778  0.34931453  0.84989639  1
  V  V29  1  0.38237257  0.76003501  0.12317236  1
  V  V30  1  0.01179553  0.11349758  0.61995312  1
  V  V31  1  0.87482491  0.00289986  0.38583139  1
  V  V32  1  0.28143221  0.51270132  0.72936134  1
  V  V33  1  0.25361014  0.61325511  0.88542391  1
  V  V34  1  0.35366055  0.73608160  0.62425036  1
  V  V35  1  0.49696920  0.61893683  0.12781853  1
  V  V36  1  0.11331753  0.75149280  0.87034272  1
  V  V37  1  0.48244365  0.49456004  -0.00678191  1
  V  V38  1  0.87659561  0.48771647  0.40358357  1
  V  V39  1  0.62101112  0.48974779  0.64028476  1
  V  V40  1  0.63253021  0.87430572  0.25066000  1
  V  V41  1  0.72863084  0.23127591  -0.00546384  1
  V  V42  1  0.13526431  0.26403109  0.38649753  1
  V  V43  1  0.50536337  0.52391683  0.49831455  1
  V  V44  1  0.88245684  0.74688974  0.64058909  1
  V  V45  1  0.19804436  0.92325453  0.18468458  1
  V  V46  1  0.49685747  0.37234390  0.38819470  1
  V  V47  1  0.38584099  0.86768431  -0.01820810  1
  V  V48  1  0.01134202  0.26350203  0.25546754  1
  V  V49  1  0.88294065  0.87209319  0.50064237  1
  V  V50  1  0.76111677  0.37056791  0.63261195  1
  V  V51  1  0.51484733  0.63698872  0.63821392  1
  V  V52  1  0.63056506  0.73719973  0.37904043  1
  V  V53  1  0.13498904  0.13448401  -0.00903766  1
  V  V54  1  0.50145893  -0.00634542  -0.01295824  1
  V  V55  1  0.49965217  0.13056901  0.63195335  1
  V  V56  1  0.21918227  0.41150838  0.14105788  1
  V  V57  1  0.76541819  0.26183544  0.48407062  1
  V  V58  1  0.50432001  0.74396510  0.25196935  1
  V  V59  1  0.63042011  -0.00397858  0.11894565  1
  V  V60  1  0.24318641  -0.01248850  0.78875131  1
  V  V61  1  0.74988838  0.73953414  0.49581070  1
  V  V62  1  0.48897050  0.00019293  0.48909833  1
  V  V63  1  0.00130649  -0.00358964  -0.00841056  1
  V  V64  1  0.00648922  0.61596249  0.62860604  1
  V  V65  1  0.87752869  0.12446918  0.25453790  1
  V  V66  1  0.37644562  0.11378905  0.25308689  1
  V  V67  1  0.25316891  0.11800368  0.37123683  1
  V  V68  1  0.27264818  0.25842589  0.50606639  1
  V  V69  1  0.77152430  0.49974061  0.25607863  1
  Zn  Zn70  1  0.48791405  0.81993004  0.80472769  1
  Zn  Zn71  1  0.31090640  0.83565224  0.46148545  1
  Zn  Zn72  1  0.19952856  0.55998478  0.26782320  1
  Zn  Zn73  1  0.87311142  0.00091281  0.87871628  1
  Zn  Zn74  1  0.63758112  0.36393511  0.26208177  1
  Zn  Zn75  1  0.11379010  0.88245837  0.74026731  1
  Zn  Zn76  1  0.19540334  0.19465237  0.18680338  1
  Zn  Zn77  1  0.19523094  0.17319081  0.69583679  1
  Zn  Zn78  1  0.15410276  0.74815114  0.23571663  1
  Zn  Zn79  1  0.18035251  0.67835778  0.70510442  1
  Zn  Zn80  1  0.68841691  0.18017401  0.19095630  1
  Zn  Zn81  1  0.69971129  0.18200945  0.66459829  1
  Zn  Zn82  1  0.68406049  0.67384033  0.19705868  1
  Zn  Zn83  1  0.69551314  0.68445510  0.68366354  1
  Zn  Zn84  1  0.32057864  0.31395181  0.30543055  1
  Zn  Zn85  1  0.29123361  0.34962247  0.85561825  1
  Zn  Zn86  1  0.29652095  0.75334320  0.29267160  1
  Zn  Zn87  1  0.30194276  0.80041550  0.81537159  1
  Zn  Zn88  1  0.82414785  0.31973079  0.31129756  1
  Zn  Zn89  1  0.79287773  0.30699707  0.81370818  1
  Zn  Zn90  1  0.81461705  0.81122766  0.31469385  1
  Zn  Zn91  1  0.95247542  0.83857941  0.84244617  1
  Zn  Zn92  1  0.20594582  0.43832239  0.43642746  1
  Zn  Zn93  1  0.17756898  0.43268642  0.95479770  1
  Zn  Zn94  1  0.15924016  0.93738845  0.37040911  1
  Zn  Zn95  1  0.18306321  0.93175899  0.96917068  1
  Zn  Zn96  1  0.68541802  0.43712203  0.43809188  1
  Zn  Zn97  1  0.65144932  0.47929516  0.86158591  1
  Zn  Zn98  1  0.69237334  0.93121241  0.43580952  1
  Zn  Zn99  1  0.67388120  0.93048557  0.92392023  1
  Zn  Zn100  1  0.31539273  0.05441141  0.06473352  1
  Zn  Zn101  1  0.29904328  0.09954907  0.57535195  1
  Zn  Zn102  1  0.30443230  0.56512487  0.07914194  1
  Zn  Zn103  1  0.32075527  0.56453997  0.54808090  1
  Zn  Zn104  1  0.81576536  0.06121850  0.06569487  1
  Zn  Zn105  1  0.81857393  0.07379406  0.56171727  1
  Zn  Zn106  1  0.81353461  0.53549263  0.05052664  1
  Zn  Zn107  1  0.80372641  0.56039082  0.57886371  1
  Zn  Zn108  1  0.43056893  0.43432640  0.18924971  1
  Zn  Zn109  1  0.48611309  0.49825719  0.77351159  1
  Zn  Zn110  1  0.44267529  0.93460679  0.18942193  1
  Zn  Zn111  1  0.38096866  0.90638355  0.69030244  1
  Zn  Zn112  1  1.03753419  0.46006162  0.19401842  1
  Zn  Zn113  1  0.94696037  0.42912369  0.70072499  1
  Zn  Zn114  1  0.92564991  0.93245400  0.17179446  1
  Zn  Zn115  1  0.93759383  0.94345787  0.68683698  1
  Zn  Zn116  1  0.08347392  0.07267559  0.29439284  1
  Zn  Zn117  1  0.06549873  0.06537530  0.81306863  1
  Zn  Zn118  1  0.03031242  0.56962561  0.34916929  1
  Zn  Zn119  1  0.05101074  0.56818126  0.82981817  1
  Zn  Zn120  1  0.56257848  0.06183660  0.30928998  1
  Zn  Zn121  1  0.51731495  0.00211259  0.77190742  1
  Zn  Zn122  1  0.56807052  0.55267953  0.31109820  1
  Zn  Zn123  1  0.57537109  0.66214783  0.82546718  1
  Zn  Zn124  1  0.44238122  0.18389291  0.43742870  1
  Zn  Zn125  1  0.44993135  0.18300299  0.93118925  1
  Zn  Zn126  1  0.43267686  0.69493664  0.44283028  1
  Zn  Zn127  1  0.44082394  0.67461324  0.93803841  1
  Zn  Zn128  1  0.95080802  0.19571270  0.43964113  1
  Zn  Zn129  1  0.93273558  0.18007445  0.93271521  1
  Zn  Zn130  1  0.93058121  0.67250492  0.44603186  1
  Zn  Zn131  1  0.92369165  0.68921345  0.94167085  1
  Zn  Zn132  1  0.06874100  0.31035483  0.06808787  1
  Zn  Zn133  1  0.08556520  0.29748558  0.59014344  1
  Zn  Zn134  1  0.07040333  0.83039254  0.08343864  1
  Zn  Zn135  1  0.06361321  0.80758102  0.56350997  1
  Zn  Zn136  1  0.56148643  0.31420959  0.05878920  1
  Zn  Zn137  1  0.56423275  0.30784555  0.56110194  1
  Zn  Zn138  1  0.57207065  0.80918391  0.05692758  1
  Zn  Zn139  1  0.56299190  0.81589849  0.55950733  1
  O  O140  1  0.11423286  0.12349161  0.13235495  1
  O  O141  1  0.11181671  0.12297584  0.63480456  1
  O  O142  1  0.00885729  0.70391181  0.16772164  1
  O  O143  1  0.10390783  0.62614681  0.64087315  1
  O  O144  1  0.61611373  0.10586302  0.13441773  1
  O  O145  1  0.62525851  0.11421715  0.60623480  1
  O  O146  1  0.61903856  0.61605482  0.12124867  1
  O  O147  1  0.62072494  0.61432379  0.62860115  1
  O  O148  1  0.39416820  0.39079868  0.36019320  1
  O  O149  1  0.39768076  0.37215341  0.88358845  1
  O  O150  1  0.39210049  0.86342748  0.37817204  1
  O  O151  1  0.38858826  0.85594064  0.88123724  1
  O  O152  1  0.88505743  0.38997068  0.37699885  1
  O  O153  1  0.87728664  0.37334088  0.85443119  1
  O  O154  1  0.87519304  0.88393122  0.38283330  1
  O  O155  1  0.86944570  0.88560236  0.90364419  1
  O  O156  1  0.24412367  0.01986750  0.37091796  1
  O  O157  1  0.24904051  -0.00580035  0.89137363  1
  O  O158  1  0.26731058  0.50077666  0.35965241  1
  O  O159  1  0.24580099  0.51586823  0.90418317  1
  O  O160  1  0.76786588  -0.00287891  0.36729621  1
  O  O161  1  0.73228530  -0.00139646  0.85296696  1
  O  O162  1  0.76393830  0.49151444  0.36639247  1
  O  O163  1  0.76417547  0.48537867  0.87466159  1
  O  O164  1  0.23802090  0.51485191  0.15740867  1
  O  O165  1  0.26092396  0.51901694  0.63178983  1
  O  O166  1  0.26556774  0.98881838  0.14242873  1
  O  O167  1  0.22871902  1.01556868  0.60183814  1
  O  O168  1  0.74876940  0.47915381  0.12928352  1
  O  O169  1  0.72865955  0.48539669  0.62225030  1
  O  O170  1  0.73667809  1.00386337  0.13411469  1
  O  O171  1  0.75054493  0.99121378  0.61895155  1
  O  O172  1  -0.00482674  0.35956202  0.24825225  1
  O  O173  1  0.02420992  0.36262160  0.75831941  1
  O  O174  1  -0.03930542  0.85861673  0.25003518  1
  O  O175  1  0.00081917  0.87963319  0.75301582  1
  O  O176  1  0.50576068  0.35868896  0.24353935  1
  O  O177  1  0.48998726  0.38231628  0.75362296  1
  O  O178  1  0.51184274  0.86526296  0.25833667  1
  O  O179  1  0.48575524  0.90259388  0.73253586  1
  O  O180  1  0.49559521  0.13156528  0.24480404  1
  O  O181  1  0.50948515  0.10585366  0.72987053  1
  O  O182  1  0.51535578  0.63569554  0.24024757  1
  O  O183  1  0.50693621  0.61959242  0.73885372  1
  O  O184  1  0.99625919  0.12800160  0.23963225  1
  O  O185  1  0.99101540  0.12780281  0.74609676  1
  O  O186  1  0.95667685  0.66621420  0.20567635  1
  O  O187  1  0.98042484  0.62001068  0.73948876  1
  O  O188  1  0.39700233  0.24006195  0.01518634  1
  O  O189  1  0.37275598  0.25068967  0.49736050  1
  O  O190  1  0.39745145  0.75725756  0.01211021  1
  O  O191  1  0.38117992  0.76259577  0.52162851  1
  O  O192  1  0.87282502  0.23830364  0.01720041  1
  O  O193  1  0.86468823  0.25252421  0.48798572  1
  O  O194  1  0.85005877  0.75318510  -0.00231075  1
  O  O195  1  0.86320014  0.75321708  0.50871219  1
  O  O196  1  0.13540773  0.25335931  0.48797746  1
  O  O197  1  0.13292016  0.23132511  1.01991213  1
  O  O198  1  0.13539210  0.74020173  0.51180944  1
  O  O199  1  0.14081362  0.74724814  1.02109209  1
  O  O200  1  0.62491845  0.23457063  0.49244858  1
  O  O201  1  0.62872476  0.23955468  1.00698656  1
  O  O202  1  0.64188211  0.75860740  0.49194721  1
  O  O203  1  0.62540809  0.72606714  1.00214840  1
  O  O204  1  0.50161240  0.23665751  0.13274346  1
  O  O205  1  0.51782701  0.22971757  0.62784830  1
  O  O206  1  0.50506047  0.74065530  0.13310648  1
  O  O207  1  0.51769140  0.73893175  0.62793528  1
  O  O208  1  0.99002952  0.24158597  0.13582077  1
  O  O209  1  1.00694720  0.23894207  0.65385789  1
  O  O210  1  0.98130135  0.75481939  0.10982380  1
  O  O211  1  0.98499851  0.74096213  0.62373011  1
  O  O212  1  0.02179406  0.24435170  0.36386537  1
  O  O213  1  -0.00806528  0.23803518  0.85603322  1
  O  O214  1  -0.04298418  0.75209595  0.36694019  1
  O  O215  1  0.00747715  0.74563644  0.88742301  1
  O  O216  1  0.49284230  0.26218096  0.36188543  1
  O  O217  1  0.49918306  0.24629935  0.85544296  1
  O  O218  1  0.51055625  0.75514822  0.37040904  1
  O  O219  1  0.50596390  0.73631494  0.87210570  1
  O  O220  1  0.26239726  0.13911296  0.47293643  1
  O  O221  1  0.24341307  0.11421480  0.99319057  1
  O  O222  1  0.24122996  0.61674269  0.48495314  1
  O  O223  1  0.25524430  0.63922993  1.00281390  1
  O  O224  1  0.74602210  0.14279344  0.50057602  1
  O  O225  1  0.74719539  0.13279943  1.01043258  1
  O  O226  1  0.75243450  0.64194490  0.51018239  1
  O  O227  1  0.73975888  0.61479959  1.01740406  1
  O  O228  1  0.24422194  0.39460079  0.04366634  1
  O  O229  1  0.25612498  0.35782591  0.50570009  1
  O  O230  1  0.28023056  0.85163658  -0.00753043  1
  O  O231  1  0.21625265  0.90536252  0.47503152  1
  O  O232  1  0.74739734  0.35142225  0.02030468  1
  O  O233  1  0.74233048  0.36605329  0.50937963  1
  O  O234  1  0.73027373  0.86503030  -0.00499681  1
  O  O235  1  0.76420456  0.86773179  0.50559149  1
  O  O236  1  0.09070429  0.52615096  0.26513027  1
  O  O237  1  0.11488618  0.49326375  0.76276297  1
  O  O238  1  0.14129056  0.98253009  0.25099101  1
  O  O239  1  0.13976240  0.99839801  0.75950161  1
  O  O240  1  0.63286935  0.49337439  0.23806557  1
  O  O241  1  0.61148946  0.49770917  0.74126132  1
  O  O242  1  0.63393275  0.99250335  0.24597540  1
  O  O243  1  0.63943632  1.00412057  0.72044660  1
  O  O244  1  0.38915203  0.01449732  0.25010195  1
  O  O245  1  0.33381278  -0.00352527  0.74039919  1
  O  O246  1  0.39134040  0.51257709  0.26026131  1
  O  O247  1  0.37847345  0.51720390  0.74165045  1
  O  O248  1  0.86860951  0.00511864  0.25244052  1
  O  O249  1  0.85724954  -0.00222432  0.75396123  1
  O  O250  1  0.86777715  0.49277559  0.24678396  1
  O  O251  1  0.87988193  0.50541453  0.76380954  1
  O  O252  1  0.13842912  0.36219051  0.37092843  1
  O  O253  1  0.16806834  0.36494959  0.86158476  1
  O  O254  1  0.08846826  0.84720391  0.35888433  1
  O  O255  1  0.12893784  0.84822821  0.90049722  1
  O  O256  1  0.60230404  0.38505042  0.37014421  1
  O  O257  1  0.58814242  0.38779419  0.87983051  1
  O  O258  1  0.62223025  0.86556314  0.36569022  1
  O  O259  1  0.61955546  0.85529744  0.84499137  1
  O  O260  1  0.38914003  0.12398046  0.13284158  1
  O  O261  1  0.40171224  0.11994827  0.61353474  1
  O  O262  1  0.39474378  0.63623719  0.12526129  1
  O  O263  1  0.39552885  0.63928842  0.62047708  1
  O  O264  1  0.88285136  0.13300917  0.13854070  1
  O  O265  1  0.88621053  0.11791342  0.64108150  1
  O  O266  1  0.90045132  0.61419564  0.08919733  1
  O  O267  1  0.87516490  0.63615557  0.63367967  1
  O  O268  1  0.27363004  0.23665164  0.11843562  1
  O  O269  1  0.25364985  0.21622696  0.60314635  1
  O  O270  1  0.27976385  0.74674728  0.11200802  1
  O  O271  1  0.25761035  0.71509406  0.62815784  1
  O  O272  1  0.75849774  0.24775246  0.12769479  1
  O  O273  1  0.74638831  0.26418894  0.60697328  1
  O  O274  1  0.78012119  0.74666192  0.15937897  1
  O  O275  1  0.75494785  0.76229310  0.61719506  1
  O  O276  1  0.25083049  0.25442930  0.38155560  1
  O  O277  1  0.27654610  0.23573145  0.87770352  1
  O  O278  1  0.25332398  0.75694777  0.39702562  1
  O  O279  1  0.23857316  0.73784980  0.89234505  1
  O  O280  1  0.74811406  0.26690877  0.38404838  1
  O  O281  1  0.74908939  0.24773629  0.89744589  1
  O  O282  1  0.74797815  0.75053825  0.38741463  1
  O  O283  1  0.67027062  0.79888260  0.82107522  1
  O  O284  1  0.00980052  0.13075302  0.01543223  1
  O  O285  1  -0.00342744  0.13724521  0.52203133  1
  O  O286  1  -0.04398250  0.62094051  0.03817248  1
  O  O287  1  -0.00513016  0.61597683  0.52429205  1
  O  O288  1  0.49708400  0.10228873  0.00996647  1
  O  O289  1  0.51673917  0.11224848  0.49384151  1
  O  O290  1  0.50940846  0.61510648  0.01743642  1
  O  O291  1  0.50756090  0.62637012  0.50396323  1
  O  O292  1  0.49638858  0.37132300  0.48843835  1
  O  O293  1  0.49908699  0.39612784  1.01334783  1
  O  O294  1  0.51084097  0.89072169  0.48999396  1
  O  O295  1  0.50102006  0.88214461  0.99931306  1
  O  O296  1  1.01676121  0.37418588  0.53712093  1
  O  O297  1  1.00750066  0.36191163  0.98774921  1
  O  O298  1  0.98394147  0.86275049  0.49859997  1
  O  O299  1  1.00707676  0.89797136  1.01034741  1
  O  O300  1  0.49674494  0.49771166  0.38310516  1
  O  O301  1  0.48704050  0.51466958  0.89377826  1
  O  O302  1  0.50687604  0.99007635  0.38108984  1
  O  O303  1  0.51953756  0.99812933  0.88943201  1
  O  O304  1  0.99487723  0.48222136  0.42360907  1
  O  O305  1  0.97515927  0.50746075  0.89115701  1
  O  O306  1  0.98438521  0.96835910  0.36889501  1
  O  O307  1  1.00041017  1.00318312  0.88727020  1
  O  O308  1  -0.00619046  0.01570655  0.12111618  1
  O  O309  1  -0.00127978  0.01144858  0.62254624  1
  O  O310  1  -0.02008367  0.47749925  0.09900383  1
  O  O311  1  -0.00480045  0.50562862  0.62406977  1
  O  O312  1  0.51268754  0.00278935  0.12272695  1
  O  O313  1  0.52226680  0.00372048  0.60153913  1
  O  O314  1  0.50623406  0.51187376  0.13537577  1
  O  O315  1  0.50921638  0.51793963  0.61058018  1
  O  O316  1  0.25687832  0.36460479  0.22396381  1
  O  O317  1  0.25675904  0.41558070  0.76024883  1
  O  O318  1  0.25478138  0.85968049  0.24380893  1
  O  O319  1  0.23470707  0.88198030  0.77187856  1
  O  O320  1  0.75100487  0.37868915  0.24250732  1
  O  O321  1  0.73494482  0.35893036  0.73007840  1
  O  O322  1  0.74254323  0.88674984  0.25609902  1
  O  O323  1  0.75098190  0.88786228  0.72823227  1
  O  O324  1  0.27105863  0.13248205  0.25296834  1
  O  O325  1  0.24400690  0.11103966  0.78264488  1
  O  O326  1  0.22619156  0.66934223  0.25070607  1
  O  O327  1  0.24108779  0.60628560  0.77256788  1
  O  O328  1  0.76453561  0.11372475  0.25001199  1
  O  O329  1  0.76027397  0.11102427  0.73421904  1
  O  O330  1  0.75367193  0.59891872  0.24230628  1
  O  O331  1  0.76783794  0.61899742  0.74027400  1
  O  O332  1  0.37291363  0.13020264  0.35905268  1
  O  O333  1  0.37095108  0.11011332  0.88795280  1
  O  O334  1  0.38128577  0.62076654  0.37200686  1
  O  O335  1  0.35242191  0.63137935  0.88035436  1
  O  O336  1  0.89527217  0.10601337  0.36860818  1
  O  O337  1  0.87373438  0.11614240  0.85436177  1
  O  O338  1  0.91154122  0.58667950  0.36842886  1
  O  O339  1  0.86892486  0.62952270  0.86210031  1
  O  O340  1  0.11759433  0.38827611  0.13932079  1
  O  O341  1  0.15022672  0.35989144  0.66544158  1
  O  O342  1  0.16248180  0.90249744  0.08234053  1
  O  O343  1  0.13576977  0.87604823  0.62206913  1
  O  O344  1  0.63777058  0.37445709  0.13106633  1
  O  O345  1  0.61257977  0.39005741  0.62241165  1
  O  O346  1  0.61874668  0.88529595  0.13902375  1
  O  O347  1  0.64195183  0.88787368  0.60867500  1
  O  O348  1  0.11295800  0.25241502  0.24338271  1
  O  O349  1  0.12597895  0.23821962  0.76634884  1
  O  O350  1  0.10882619  0.83463954  0.19223425  1
  O  O351  1  0.12610089  0.75923290  0.76780703  1
  O  O352  1  0.61141505  0.24301543  0.24853094  1
  O  O353  1  0.63919709  0.22187706  0.77209526  1
  O  O354  1  0.62457660  0.75602545  0.25686982  1
  O  O355  1  0.63174293  0.75026103  0.76260260  1
  O  O356  1  0.39255013  0.23928979  0.23697677  1
  O  O357  1  0.36766840  0.28060589  0.69878361  1
  O  O358  1  0.39561897  0.75307156  0.23529145  1
  O  O359  1  0.37311820  0.77938256  0.72039040  1
  O  O360  1  0.88825542  0.23726963  0.25457390  1
  O  O361  1  0.86320513  0.23522029  0.74972409  1
  O  O362  1  0.83590322  0.75036069  0.21101765  1
  O  O363  1  0.87284800  0.74722698  0.73932787  1
  O  O364  1  0.39616713  0.50728389  0.48394508  1
  O  O365  1  0.38658814  0.50984994  1.02114957  1
  O  O366  1  0.39343987  1.00416137  0.49697174  1
  O  O367  1  0.39128110  0.97844985  1.00072874  1
  O  O368  1  0.85768424  0.49635266  0.50146773  1
  O  O369  1  0.87634352  0.47135857  0.98484364  1
  O  O370  1  0.87131956  0.99417559  0.48916466  1
  O  O371  1  0.89508166  1.02257270  0.99610260  1
  O  O372  1  0.10818418  0.02329682  0.00046010  1
  O  O373  1  0.05262361  0.01230917  0.39211524  1
  O  O374  1  0.09331963  0.49883172  -0.00954922  1
  O  O375  1  0.12933658  0.48513061  0.50908081  1
  O  O376  1  0.61750519  -0.01150199  0.01397691  1
  O  O377  1  0.64054753  0.01187964  0.50072074  1
  O  O378  1  0.61159272  0.50549307  0.02179887  1
  O  O379  1  0.60713059  0.49806441  0.49977387  1
  O  O380  1  0.38386769  0.35609624  0.12460273  1
  O  O381  1  0.36646377  0.33622181  0.65346896  1
  O  O382  1  0.39158930  0.86224149  0.11624464  1
  O  O383  1  0.31107869  0.87281846  0.60337224  1
  O  O384  1  0.86220278  0.35091882  0.13275747  1
  O  O385  1  0.85934941  0.38482208  0.63704342  1
  O  O386  1  0.86137107  0.89050988  0.08964703  1
  O  O387  1  0.86793876  0.86458232  0.61973327  1
  O  O388  1  0.15073538  0.14729136  0.35373577  1
  O  O389  1  0.12836659  0.13492073  0.89086816  1
  O  O390  1  0.11311489  0.64764995  0.37778178  1
  O  O391  1  0.13048000  0.64197956  0.87988131  1
  O  O392  1  0.63243168  0.11868728  0.38047906  1
  O  O393  1  0.62543900  0.17057871  0.82203767  1
  O  O394  1  0.62341852  0.63863347  0.36847891  1
  O  O395  1  0.63286173  0.59623765  0.89677087  1
