# generated using pymatgen
data_V35Zn35O128
_symmetry_space_group_name_H-M   'P 1'
_cell_length_a   16.95078977
_cell_length_b   16.92294856
_cell_length_c   16.95999104
_cell_angle_alpha   89.99561458
_cell_angle_beta   89.69588761
_cell_angle_gamma   89.90615088
_symmetry_Int_Tables_number   1
_chemical_formula_structural   V35Zn35O128
_chemical_formula_sum   'V70 Zn70 O256'
_cell_volume   4865.02290363
_cell_formula_units_Z   2
loop_
 _symmetry_equiv_pos_site_id
 _symmetry_equiv_pos_as_xyz
  1  'x, y, z'
loop_
 _atom_site_type_symbol
 _atom_site_label
 _atom_site_symmetry_multiplicity
 _atom_site_fract_x
 _atom_site_fract_y
 _atom_site_fract_z
 _atom_site_occupancy
  V  V0  1  -0.00524064  0.23878568  0.73367172  1
  V  V1  1  0.38143252  0.74965335  0.63624524  1
  V  V2  1  0.39051856  0.13625190  0.74913763  1
  V  V3  1  0.90218585  0.61478314  0.75963704  1
  V  V4  1  0.63738156  0.13119175  -0.02317795  1
  V  V5  1  0.49959671  0.87154972  0.86490257  1
  V  V6  1  0.12611183  0.24911497  0.37433354  1
  V  V7  1  0.03658818  0.48935313  0.53115009  1
  V  V8  1  0.25199305  0.14036204  0.89475803  1
  V  V9  1  0.25159083  0.51395955  0.23309357  1
  V  V10  1  -0.00021658  0.24754097  0.24510229  1
  V  V11  1  0.75120518  -0.01115642  0.76943325  1
  V  V12  1  0.62423965  0.01316646  0.12724175  1
  V  V13  1  0.50307660  0.00862450  0.00749167  1
  V  V14  1  -0.00362209  0.00968028  0.51311477  1
  V  V15  1  0.62497290  -0.00366644  0.62520969  1
  V  V16  1  0.26219184  0.12918325  0.37811311  1
  V  V17  1  0.37391611  0.50852570  0.86507209  1
  V  V18  1  0.01017989  0.77236489  0.74484738  1
  V  V19  1  0.24027560  0.64358572  0.88607196  1
  V  V20  1  0.62363931  0.38304198  0.24733670  1
  V  V21  1  0.49805382  0.62298317  0.13193905  1
  V  V22  1  0.87371632  -0.00295900  0.37974659  1
  V  V23  1  0.59393053  0.50113399  0.59185504  1
  V  V24  1  0.75985365  0.87377864  0.12265955  1
  V  V25  1  0.74990171  0.00050237  0.25185156  1
  V  V26  1  0.24463205  0.89572036  0.61817496  1
  V  V27  1  0.62419396  0.25309173  0.38585292  1
  V  V28  1  0.37863080  0.87673244  0.00632701  1
  V  V29  1  0.76401957  0.50068609  0.70966826  1
  V  V30  1  0.46400613  -0.00561371  0.46261630  1
  V  V31  1  0.74195019  0.13161377  0.38283909  1
  V  V32  1  0.86945009  0.25300141  0.12003863  1
  V  V33  1  0.62467152  0.87618477  0.25513031  1
  V  V34  1  0.63631462  0.74331121  0.37990387  1
  V  V35  1  0.61750756  0.75015902  0.86206416  1
  V  V36  1  0.24671602  0.01544416  0.75340968  1
  V  V37  1  0.48452865  0.37992040  0.38130748  1
  V  V38  1  0.36663300  0.52388005  0.37389590  1
  V  V39  1  0.86020523  0.37234318  0.50594838  1
  V  V40  1  0.86440721  0.12232310  0.78309332  1
  V  V41  1  0.87834814  0.12610707  0.24786271  1
  V  V42  1  0.26403316  0.00704578  0.25863414  1
  V  V43  1  0.61626312  0.62735867  0.00243485  1
  V  V44  1  0.74341416  0.61273110  0.86558394  1
  V  V45  1  0.12988886  0.74204671  0.38779233  1
  V  V46  1  0.36591853  0.25221546  0.59950015  1
  V  V47  1  0.12678097  0.87798876  0.25600763  1
  V  V48  1  0.24177011  0.73583059  0.51380756  1
  V  V49  1  0.50180358  0.23869512  0.23965678  1
  V  V50  1  0.25031770  0.87700145  0.12578789  1
  V  V51  1  0.36080705  0.37157588  0.00518773  1
  V  V52  1  -0.00099407  0.87679059  0.38507873  1
  V  V53  1  0.86489477  0.50850409  0.37004510  1
  V  V54  1  0.13510787  0.37050213  0.22432063  1
  V  V55  1  0.75793436  0.86358826  0.61807565  1
  V  V56  1  0.75435578  0.50973557  0.24745558  1
  V  V57  1  0.11617840  0.01416601  0.12303522  1
  V  V58  1  0.12243152  0.77196026  0.89322732  1
  V  V59  1  0.37397322  0.75138383  0.12607653  1
  V  V60  1  -0.01354400  0.74465655  0.25065956  1
  V  V61  1  0.12093460  0.12942148  0.51019482  1
  V  V62  1  -0.00084232  0.38442042  0.36110598  1
  V  V63  1  0.49582708  0.75639738  0.25346131  1
  V  V64  1  0.57810441  0.30619015  0.79717276  1
  V  V65  1  0.37249277  0.23941880  0.12033518  1
  V  V66  1  0.02102657  0.36760740  0.88625561  1
  V  V67  1  0.75150524  0.75740274  -0.00026856  1
  V  V68  1  0.50407764  0.48974017  0.00403670  1
  V  V69  1  0.75049557  0.37288097  0.11863720  1
  Zn  Zn70  1  0.11853213  0.90342691  0.75546199  1
  Zn  Zn71  1  0.11791652  0.53183613  0.08076284  1
  Zn  Zn72  1  0.58947495  0.63903010  0.49676598  1
  Zn  Zn73  1  0.51288622  0.12040022  0.61034584  1
  Zn  Zn74  1  0.38009948  0.00669534  0.87558784  1
  Zn  Zn75  1  0.85690964  0.45150237  0.88729229  1
  Zn  Zn76  1  0.19316748  0.18656505  0.18808969  1
  Zn  Zn77  1  0.20807241  0.23287342  0.72332665  1
  Zn  Zn78  1  0.18607642  0.69183735  0.19425488  1
  Zn  Zn79  1  0.22251411  0.71331884  0.71956402  1
  Zn  Zn80  1  0.68683431  0.19065215  0.19628197  1
  Zn  Zn81  1  0.66825775  0.17318919  0.72594337  1
  Zn  Zn82  1  0.68562087  0.69274667  0.18381900  1
  Zn  Zn83  1  0.67122332  0.67559984  0.67849782  1
  Zn  Zn84  1  0.31369897  0.30611882  0.30470138  1
  Zn  Zn85  1  0.32969056  0.31856917  0.82218117  1
  Zn  Zn86  1  0.31061600  0.81854761  0.32338578  1
  Zn  Zn87  1  0.30875396  0.82882679  0.81616286  1
  Zn  Zn88  1  0.81148821  0.31746097  0.31075304  1
  Zn  Zn89  1  0.78623922  0.30444980  0.77147849  1
  Zn  Zn90  1  0.81195878  0.81401361  0.31900962  1
  Zn  Zn91  1  0.79433912  0.77699747  0.76733390  1
  Zn  Zn92  1  0.17738045  0.45723226  0.40961719  1
  Zn  Zn93  1  0.19521960  0.43689845  0.93291369  1
  Zn  Zn94  1  0.18275204  0.94977677  0.43888534  1
  Zn  Zn95  1  0.18889227  0.95195921  0.93943400  1
  Zn  Zn96  1  0.68613663  0.43784338  0.44008595  1
  Zn  Zn97  1  0.70525963  0.31585400  0.91992704  1
  Zn  Zn98  1  0.67695153  0.92579729  0.44929672  1
  Zn  Zn99  1  0.67889899  0.93475267  0.93865230  1
  Zn  Zn100  1  0.31688641  0.06113172  0.07309715  1
  Zn  Zn101  1  0.31146645  0.07426229  0.56357205  1
  Zn  Zn102  1  0.31392182  0.56354050  0.06065607  1
  Zn  Zn103  1  0.41704100  0.57662203  0.55067525  1
  Zn  Zn104  1  0.80990582  0.06858575  0.06341910  1
  Zn  Zn105  1  0.78960355  0.04474164  0.55624565  1
  Zn  Zn106  1  0.78319556  0.54331317  0.04236114  1
  Zn  Zn107  1  0.88167728  0.57035063  0.55815461  1
  Zn  Zn108  1  0.43444665  0.43185822  0.18792755  1
  Zn  Zn109  1  0.44030684  0.42576670  0.68522574  1
  Zn  Zn110  1  0.44251941  0.94167570  0.19171672  1
  Zn  Zn111  1  0.42722412  0.94178481  0.68071687  1
  Zn  Zn112  1  0.94295936  0.44670218  0.06165225  1
  Zn  Zn113  1  0.94052933  0.42214946  0.70129931  1
  Zn  Zn114  1  0.94246916  0.93186994  0.18981339  1
  Zn  Zn115  1  0.92392229  0.94199737  0.69172055  1
  Zn  Zn116  1  0.06506675  0.06188624  0.31330425  1
  Zn  Zn117  1  0.07939689  0.10894369  0.80384701  1
  Zn  Zn118  1  0.01672253  0.53252623  0.23239403  1
  Zn  Zn119  1  0.06498006  0.55097514  0.87823864  1
  Zn  Zn120  1  0.55816447  0.06200329  0.32102893  1
  Zn  Zn121  1  0.56378744  0.04881911  0.80912035  1
  Zn  Zn122  1  0.55732407  0.56432500  0.32068268  1
  Zn  Zn123  1  0.57242869  0.47255548  0.82780486  1
  Zn  Zn124  1  0.45369195  0.19413264  0.45910676  1
  Zn  Zn125  1  0.44789275  0.19456362  0.93019964  1
  Zn  Zn126  1  0.42452436  0.73052929  0.43621801  1
  Zn  Zn127  1  0.43266767  0.68842768  0.93819572  1
  Zn  Zn128  1  0.93367131  0.18613219  0.42801210  1
  Zn  Zn129  1  0.87809618  0.24660507  0.91070870  1
  Zn  Zn130  1  0.99810875  0.62536251  0.39246741  1
  Zn  Zn131  1  0.92247203  0.71075904  0.90562615  1
  Zn  Zn132  1  0.05508545  0.29082071  0.05228042  1
  Zn  Zn133  1  0.01541954  0.29209529  0.53318842  1
  Zn  Zn134  1  0.06627440  0.71685112  0.06970033  1
  Zn  Zn135  1  0.06722974  0.82628344  0.57182758  1
  Zn  Zn136  1  0.57379274  0.30309369  0.06106219  1
  Zn  Zn137  1  0.56997379  0.30126429  0.59194396  1
  Zn  Zn138  1  0.56672566  0.81633976  0.06495006  1
  Zn  Zn139  1  0.55887250  0.83087910  0.56482183  1
  O  O140  1  0.12726624  0.11467884  0.13151032  1
  O  O141  1  0.12405508  0.13531409  0.60507714  1
  O  O142  1  0.12311871  0.63775075  0.12110996  1
  O  O143  1  0.12567383  0.54677048  0.72107683  1
  O  O144  1  0.63356625  0.11499599  0.12548014  1
  O  O145  1  0.62804893  0.10536784  0.64144938  1
  O  O146  1  0.61107007  0.63777453  0.11148065  1
  O  O147  1  0.62501018  0.61003892  0.60197841  1
  O  O148  1  0.38512612  0.36623133  0.36889757  1
  O  O149  1  0.38166835  0.38768038  0.89773087  1
  O  O150  1  0.39323225  0.83015226  0.39350663  1
  O  O151  1  0.38605486  0.87507058  0.89034183  1
  O  O152  1  0.88580620  0.38126431  0.37273493  1
  O  O153  1  0.81961881  0.33954037  0.88047788  1
  O  O154  1  0.88280869  0.88810799  0.37360895  1
  O  O155  1  0.90099706  0.90749507  0.89838039  1
  O  O156  1  0.24755078  0.01251619  0.36554508  1
  O  O157  1  0.26026616  0.01003432  0.86757433  1
  O  O158  1  0.26236013  0.49081895  0.35053556  1
  O  O159  1  0.27087638  0.50870075  0.88367745  1
  O  O160  1  0.75358977  0.00718557  0.36807415  1
  O  O161  1  0.74766385  -0.00881052  0.86949976  1
  O  O162  1  0.75599477  0.49674376  0.36128485  1
  O  O163  1  0.73816371  0.51426124  0.87426374  1
  O  O164  1  0.23879479  0.50817143  0.12827082  1
  O  O165  1  0.17823600  0.54268591  0.66791746  1
  O  O166  1  0.24574057  0.99618345  0.14289671  1
  O  O167  1  0.25253577  1.00405974  0.63904464  1
  O  O168  1  0.75244967  0.48393702  0.13687973  1
  O  O169  1  0.78326472  0.52565773  0.61613820  1
  O  O170  1  0.74459718  0.99551068  0.13526864  1
  O  O171  1  0.74814697  0.98313284  0.63916958  1
  O  O172  1  0.01621804  0.36275428  0.25197767  1
  O  O173  1  -0.02004275  0.33890313  0.77710000  1
  O  O174  1  0.00822769  0.86852375  0.26516489  1
  O  O175  1  0.00022124  0.87569441  0.75138823  1
  O  O176  1  0.51343853  0.37044889  0.25363723  1
  O  O177  1  0.52150170  0.38684675  0.75725851  1
  O  O178  1  0.51285587  0.86373328  0.23918715  1
  O  O179  1  0.48763383  0.88109583  0.76864884  1
  O  O180  1  0.50722156  0.14096616  0.25435411  1
  O  O181  1  0.49073094  0.11489100  0.75084390  1
  O  O182  1  0.51046529  0.63773683  0.23582632  1
  O  O183  1  0.60627686  0.55423673  0.75462204  1
  O  O184  1  0.98811337  0.13435543  0.26060777  1
  O  O185  1  0.97559273  0.12997162  0.75974410  1
  O  O186  1  1.00481780  0.64278791  0.26955040  1
  O  O187  1  0.99423143  0.60590941  0.79580310  1
  O  O188  1  0.39265732  0.26349149  0.00830031  1
  O  O189  1  0.35684700  0.24776815  0.49881246  1
  O  O190  1  0.38540685  0.76558538  0.01505461  1
  O  O191  1  0.34692933  0.75552841  0.52313839  1
  O  O192  1  0.87059433  0.23326944  0.02412390  1
  O  O193  1  0.90301243  0.27492225  0.49180259  1
  O  O194  1  0.84875046  0.75334244  -0.01774271  1
  O  O195  1  0.86511291  0.73598001  0.50329204  1
  O  O196  1  0.10829758  0.24068508  0.48505651  1
  O  O197  1  0.03993994  0.21596028  0.96149161  1
  O  O198  1  0.12719201  0.76376863  0.49409259  1
  O  O199  1  0.11573841  0.77965908  0.99241428  1
  O  O200  1  0.62381597  0.25703152  0.48294383  1
  O  O201  1  0.63182734  0.23681549  0.98919757  1
  O  O202  1  0.61298155  0.76064928  0.48004829  1
  O  O203  1  0.62850068  0.74534838  0.99260280  1
  O  O204  1  0.50754872  0.24902362  0.13723347  1
  O  O205  1  0.48505115  0.22862609  0.57732113  1
  O  O206  1  0.49565619  0.74568411  0.13252173  1
  O  O207  1  0.47845233  0.77593955  0.62678987  1
  O  O208  1  0.98165054  0.25144661  0.13703438  1
  O  O209  1  0.99293932  0.25695094  0.63694623  1
  O  O210  1  1.00168078  0.75995278  0.15267953  1
  O  O211  1  1.00769999  0.75821691  0.64592024  1
  O  O212  1  0.00599538  0.26016900  0.36202938  1
  O  O213  1  -0.00023283  0.25062107  0.89738455  1
  O  O214  1  0.01301798  0.76394486  0.37573026  1
  O  O215  1  0.01843713  0.75705295  0.86937583  1
  O  O216  1  0.51049958  0.25816417  0.36756304  1
  O  O217  1  0.51773129  0.25173224  0.85649675  1
  O  O218  1  0.51451222  0.74761480  0.35222616  1
  O  O219  1  0.50550744  0.76080359  0.88157945  1
  O  O220  1  0.23106253  0.11745902  0.48499579  1
  O  O221  1  0.26682812  0.11990629  0.99235741  1
  O  O222  1  0.23548677  0.64103593  0.51788652  1
  O  O223  1  0.27037830  0.63346090  0.98477657  1
  O  O224  1  0.75194541  0.12306610  0.48002309  1
  O  O225  1  0.73532181  0.11626207  0.99604351  1
  O  O226  1  0.82022790  0.68098399  0.52212728  1
  O  O227  1  0.73411784  0.63506090  0.99355941  1
  O  O228  1  0.26224435  0.37425553  0.00514290  1
  O  O229  1  0.21989070  0.40244940  0.61048886  1
  O  O230  1  0.26623290  0.88938355  0.01715625  1
  O  O231  1  0.23859770  0.89116179  0.51720784  1
  O  O232  1  0.73155942  0.37156140  0.02234019  1
  O  O233  1  0.76117656  0.36592785  0.49092653  1
  O  O234  1  0.73897508  0.86473979  0.00740305  1
  O  O235  1  0.74808590  0.86401770  0.51689659  1
  O  O236  1  0.13727255  0.47701162  0.24385083  1
  O  O237  1  0.13023758  0.49598169  0.78217276  1
  O  O238  1  0.13454821  0.99371650  0.24792165  1
  O  O239  1  0.14121512  1.02110643  0.75821393  1
  O  O240  1  0.62993606  0.48713348  0.26006223  1
  O  O241  1  0.64751391  0.50240495  0.70204715  1
  O  O242  1  0.63231581  0.99685405  0.24720801  1
  O  O243  1  0.64534927  0.99582814  0.74756312  1
  O  O244  1  0.36235972  -0.00134255  0.24811822  1
  O  O245  1  0.36595368  0.01489731  0.75144786  1
  O  O246  1  0.35644292  0.49557772  0.24142473  1
  O  O247  1  0.38598579  0.48776367  0.76881148  1
  O  O248  1  0.86774082  0.00624411  0.25831848  1
  O  O249  1  0.86802073  0.01428898  0.75996590  1
  O  O250  1  0.85830558  0.50200892  0.25624475  1
  O  O251  1  0.86666999  0.50352805  0.76090081  1
  O  O252  1  0.11735832  0.36611961  0.36697232  1
  O  O253  1  0.11927470  0.36806665  0.87806192  1
  O  O254  1  0.11664419  0.88162523  0.37067469  1
  O  O255  1  0.13419658  0.87527228  0.87092700  1
  O  O256  1  0.62233241  0.36561485  0.36516205  1
  O  O257  1  0.62583249  0.37875879  0.86369015  1
  O  O258  1  0.63142160  0.87064976  0.36026451  1
  O  O259  1  0.61037285  0.86219433  0.87686403  1
  O  O260  1  0.38940455  0.13997031  0.11605813  1
  O  O261  1  0.38290490  0.13156166  0.63615692  1
  O  O262  1  0.38999989  0.63841793  0.11958246  1
  O  O263  1  0.37803433  0.64821456  0.63101134  1
  O  O264  1  0.86087331  0.13703728  0.14351322  1
  O  O265  1  0.84118616  0.15596606  0.60528508  1
  O  O266  1  0.92621827  0.62347340  0.06045558  1
  O  O267  1  0.90893913  0.61736799  0.66014121  1
  O  O268  1  0.27300360  0.24275211  0.12945186  1
  O  O269  1  0.26803973  0.23326291  0.62576328  1
  O  O270  1  0.26449079  0.76524477  0.14089413  1
  O  O271  1  0.23519296  0.76793679  0.61950541  1
  O  O272  1  0.75958251  0.26173807  0.14144934  1
  O  O273  1  0.79193495  0.21098675  0.60907868  1
  O  O274  1  0.74628042  0.75695725  0.10877343  1
  O  O275  1  0.74536876  0.76352148  0.65849607  1
  O  O276  1  0.23854341  0.23776318  0.36434224  1
  O  O277  1  0.26647851  0.23988018  0.88566181  1
  O  O278  1  0.23651775  0.75607555  0.39555283  1
  O  O279  1  0.23812787  0.75427078  0.87718009  1
  O  O280  1  0.73911778  0.23994632  0.36571287  1
  O  O281  1  0.68750790  0.25577938  0.81141528  1
  O  O282  1  0.73606002  0.75151453  0.37210225  1
  O  O283  1  0.73218731  0.74567319  0.87562109  1
  O  O284  1  -0.04147471  0.06608352  -0.00915357  1
  O  O285  1  0.00413337  0.11876898  0.49293286  1
  O  O286  1  -0.02464820  0.64944229  0.00869820  1
  O  O287  1  -0.00796877  0.57950873  0.50357524  1
  O  O288  1  0.51572597  0.11342809  -0.00874469  1
  O  O289  1  0.50090168  0.09025477  0.49056089  1
  O  O290  1  0.50486431  0.62717886  0.01049862  1
  O  O291  1  0.47814677  0.64610417  0.48445400  1
  O  O292  1  0.50008324  0.37870500  0.47632426  1
  O  O293  1  0.51865809  0.39200113  1.01247447  1
  O  O294  1  0.51298587  0.91169933  0.49714463  1
  O  O295  1  0.49561836  0.88564813  1.00159657  1
  O  O296  1  1.00280507  0.39895912  0.48139991  1
  O  O297  1  0.99610326  0.36860840  0.99079726  1
  O  O298  1  1.00683461  0.89548402  0.49339124  1
  O  O299  1  0.95168476  0.88486334  0.94428505  1
  O  O300  1  0.47726538  0.48976405  0.35584352  1
  O  O301  1  0.48928049  0.50588542  0.90051047  1
  O  O302  1  0.47932030  0.99478084  0.36010313  1
  O  O303  1  0.50278952  0.98422870  0.88812590  1
  O  O304  1  0.98667907  0.49305776  0.34534045  1
  O  O305  1  0.98048619  0.46102105  0.86767779  1
  O  O306  1  0.98949872  0.99522510  0.37679532  1
  O  O307  1  0.99891562  1.04133795  0.93268222  1
  O  O308  1  0.01729608  -0.00191922  0.13963641  1
  O  O309  1  -0.01445884  0.00388324  0.61072644  1
  O  O310  1  0.01664939  0.49631694  0.12810354  1
  O  O311  1  0.01850071  0.47337794  0.62901262  1
  O  O312  1  0.51333716  -0.00273142  0.11926503  1
  O  O313  1  0.51945357  -0.00561142  0.63597990  1
  O  O314  1  0.49682007  0.51764554  0.12100253  1
  O  O315  1  0.49159895  0.50300628  0.61016306  1
  O  O316  1  0.23502647  0.36150206  0.24206006  1
  O  O317  1  0.23613691  0.33547870  0.76419529  1
  O  O318  1  0.24750186  0.88721572  0.25381389  1
  O  O319  1  0.24732710  0.90397199  0.75091978  1
  O  O320  1  0.73895288  0.38295664  0.24677232  1
  O  O321  1  0.76201245  0.40056862  0.71611261  1
  O  O322  1  0.74576992  0.88469877  0.24520491  1
  O  O323  1  0.76731821  0.88720317  0.75450685  1
  O  O324  1  0.25088652  0.11465342  0.26213299  1
  O  O325  1  0.26353811  0.12561306  0.76213551  1
  O  O326  1  0.24434068  0.61148358  0.25022591  1
  O  O327  1  0.25011543  0.62597267  0.78422282  1
  O  O328  1  0.75478812  0.11458623  0.25864759  1
  O  O329  1  0.76207243  0.10915346  0.75112610  1
  O  O330  1  0.73762408  0.60731498  0.23597564  1
  O  O331  1  0.75237924  0.61516660  0.75537004  1
  O  O332  1  0.35860373  0.13621249  0.38401552  1
  O  O333  1  0.37730277  0.12600069  0.86607973  1
  O  O334  1  0.37232536  0.62046815  0.36137713  1
  O  O335  1  0.37980968  0.61371753  0.87420489  1
  O  O336  1  0.86140015  0.12056157  0.36510235  1
  O  O337  1  0.86028825  0.13472412  0.88152264  1
  O  O338  1  0.88044078  0.60603276  0.38143101  1
  O  O339  1  0.84929095  0.62505440  0.87071262  1
  O  O340  1  0.12348200  0.34972536  0.12648189  1
  O  O341  1  0.15922079  0.36869148  0.62989734  1
  O  O342  1  0.14140855  0.88007094  0.14493480  1
  O  O343  1  0.13807957  0.88747619  0.63952510  1
  O  O344  1  0.63495224  0.36701420  0.14238009  1
  O  O345  1  0.62070467  0.40304220  0.59813958  1
  O  O346  1  0.63686803  0.88479705  0.13598131  1
  O  O347  1  0.63876698  0.88503193  0.63083735  1
  O  O348  1  0.11790062  0.25173586  0.25344624  1
  O  O349  1  0.09529139  0.22147381  0.75181260  1
  O  O350  1  0.13059099  0.76376104  0.27143265  1
  O  O351  1  0.11547773  0.75681291  0.76033791  1
  O  O352  1  0.61682408  0.26005964  0.25841929  1
  O  O353  1  0.59375411  0.26090842  0.69996772  1
  O  O354  1  0.62208560  0.75933829  0.25385477  1
  O  O355  1  0.61636006  0.73685574  0.76495200  1
  O  O356  1  0.39363732  0.25721103  0.23377736  1
  O  O357  1  0.38472434  0.23773087  0.75152124  1
  O  O358  1  0.39083838  0.75832712  0.24161358  1
  O  O359  1  0.34583458  0.75728540  0.73581453  1
  O  O360  1  0.88175226  0.24450456  0.24960367  1
  O  O361  1  0.87254027  0.22716073  0.74996549  1
  O  O362  1  0.88738091  0.75324601  0.26082861  1
  O  O363  1  0.90267481  0.73226201  0.77262175  1
  O  O364  1  0.36275235  0.51027232  0.47359444  1
  O  O365  1  0.38975722  0.48614769  1.01024631  1
  O  O366  1  0.36746981  0.99920078  0.49557502  1
  O  O367  1  0.38926171  0.99280233  1.00641434  1
  O  O368  1  0.86647041  0.48423487  0.47738499  1
  O  O369  1  0.86639086  0.49170410  0.99313203  1
  O  O370  1  0.88323695  1.01305291  0.48807053  1
  O  O371  1  0.90085406  1.01375706  1.01685551  1
  O  O372  1  0.12981454  -0.00613872  0.02543144  1
  O  O373  1  0.10603753  0.01730752  0.49588138  1
  O  O374  1  0.11461941  0.50655018  -0.02838679  1
  O  O375  1  0.13433761  0.49174716  0.50634313  1
  O  O376  1  0.62070949  0.00718183  0.00975832  1
  O  O377  1  0.64743419  0.00497513  0.52379694  1
  O  O378  1  0.61243818  0.52236435  0.00060169  1
  O  O379  1  0.61340383  0.51156250  0.48864591  1
  O  O380  1  0.38546061  0.36345501  0.11115916  1
  O  O381  1  0.38360210  0.34876691  0.62796505  1
  O  O382  1  0.37141013  0.87248426  0.12449135  1
  O  O383  1  0.34927153  0.87332817  0.63160959  1
  O  O384  1  0.86229377  0.36249295  0.12171230  1
  O  O385  1  0.88048448  0.38537457  0.60350208  1
  O  O386  1  0.85924925  0.88293165  0.12990779  1
  O  O387  1  0.85943397  0.87403955  0.62719425  1
  O  O388  1  0.12750315  0.13674500  0.37513952  1
  O  O389  1  0.15153558  0.12712581  0.88640884  1
  O  O390  1  0.11679732  0.64395839  0.38683791  1
  O  O391  1  0.13461619  0.65036854  0.89331304  1
  O  O392  1  0.63410227  0.13683636  0.36950943  1
  O  O393  1  0.62949316  0.11516958  0.87920978  1
  O  O394  1  0.62352435  0.63929922  0.37660662  1
  O  O395  1  0.62695972  0.63829089  0.88832161  1
