# generated using pymatgen
data_V35Zn35O128
_symmetry_space_group_name_H-M   'P 1'
_cell_length_a   16.95012431
_cell_length_b   16.93562918
_cell_length_c   16.92938216
_cell_angle_alpha   89.80601673
_cell_angle_beta   90.01361257
_cell_angle_gamma   89.82671860
_symmetry_Int_Tables_number   1
_chemical_formula_structural   V35Zn35O128
_chemical_formula_sum   'V70 Zn70 O256'
_cell_volume   4859.71548237
_cell_formula_units_Z   2
loop_
 _symmetry_equiv_pos_site_id
 _symmetry_equiv_pos_as_xyz
  1  'x, y, z'
loop_
 _atom_site_type_symbol
 _atom_site_label
 _atom_site_symmetry_multiplicity
 _atom_site_fract_x
 _atom_site_fract_y
 _atom_site_fract_z
 _atom_site_occupancy
  V  V0  1  0.24512940  0.75253642  0.51304073  1
  V  V1  1  0.87666155  0.78537706  0.62302695  1
  V  V2  1  0.36072528  0.25605471  0.12265670  1
  V  V3  1  0.86824703  -0.00831331  0.86855351  1
  V  V4  1  0.86488149  0.25745811  0.12112592  1
  V  V5  1  0.00010918  0.88074425  0.38883416  1
  V  V6  1  0.01037621  0.52196446  0.50866146  1
  V  V7  1  0.10145523  0.87672735  0.75089831  1
  V  V8  1  0.12729018  -0.00076689  0.12639537  1
  V  V9  1  0.49908520  0.11769473  0.12787337  1
  V  V10  1  0.49923774  -0.00413018  -0.00223289  1
  V  V11  1  0.12168877  0.88143993  0.25839864  1
  V  V12  1  0.63058750  0.62387869  0.52733874  1
  V  V13  1  0.74427788  0.76782904  0.50512447  1
  V  V14  1  0.63309569  0.86785273  0.25251468  1
  V  V15  1  0.49739774  0.74467959  0.23185358  1
  V  V16  1  0.15199356  0.24521829  0.37850583  1
  V  V17  1  0.38653924  0.74077748  0.63645940  1
  V  V18  1  0.73481551  0.38032165  0.11948360  1
  V  V19  1  0.36989076  0.63369806  0.24043301  1
  V  V20  1  0.49145856  0.25379581  0.75779357  1
  V  V21  1  -0.00911185  0.73535200  0.75723619  1
  V  V22  1  0.13636196  0.25438275  0.87244932  1
  V  V23  1  0.37151579  0.87595969  0.51111117  1
  V  V24  1  0.00491050  0.26784666  0.23939398  1
  V  V25  1  0.50513536  0.86396015  0.87490614  1
  V  V26  1  0.36342002  0.00300881  0.87625518  1
  V  V27  1  0.62084999  0.89263174  0.74204273  1
  V  V28  1  -0.00407610  0.37098116  0.38457209  1
  V  V29  1  0.36985438  0.25707318  0.61400349  1
  V  V30  1  0.24511388  0.75422893  -0.00431137  1
  V  V31  1  0.62784086  0.38345669  0.75368322  1
  V  V32  1  0.00382938  0.37633207  0.86153177  1
  V  V33  1  0.50365152  0.12640652  0.62191557  1
  V  V34  1  0.25410148  0.87128603  0.13529412  1
  V  V35  1  0.11820576  0.63043785  -0.00393209  1
  V  V36  1  0.00808973  0.13832219  0.65052509  1
  V  V37  1  0.73048130  0.13120530  0.37924645  1
  V  V38  1  0.24287941  -0.00438624  0.72867927  1
  V  V39  1  0.25030072  0.48117099  0.75712923  1
  V  V40  1  0.12601345  0.49157177  0.12586058  1
  V  V41  1  0.36539426  -0.00346994  0.36996332  1
  V  V42  1  0.85037511  0.14512466  0.76548594  1
  V  V43  1  0.36447161  0.11273648  0.24833185  1
  V  V44  1  0.88971021  0.64059848  0.27326959  1
  V  V45  1  0.24834571  0.49011064  0.24739631  1
  V  V46  1  0.36824510  0.12460861  0.75575954  1
  V  V47  1  0.87135953  0.00311589  0.37996043  1
  V  V48  1  0.62007709  0.23996248  0.88042941  1
  V  V49  1  -0.00664998  0.49443957  0.00246641  1
  V  V50  1  0.50261603  0.86210775  0.37744145  1
  V  V51  1  0.73364712  0.62183410  0.37647772  1
  V  V52  1  0.24001214  0.36681897  0.59793803  1
  V  V53  1  0.24771854  0.63182346  0.37856760  1
  V  V54  1  0.50977513  0.23989142  0.25295672  1
  V  V55  1  0.63719803  -0.01259760  0.12845732  1
  V  V56  1  0.13707877  0.13394866  0.00037811  1
  V  V57  1  0.86861207  0.11574407  0.24445490  1
  V  V58  1  -0.00081241  0.12497339  0.12038285  1
  V  V59  1  0.48657935  0.52136619  0.50811075  1
  V  V60  1  0.62499800  0.39179587  0.25226541  1
  V  V61  1  0.01815956  0.02634475  0.49907902  1
  V  V62  1  0.26637651  0.62824844  0.86855884  1
  V  V63  1  0.75315344  0.73925211  0.00487568  1
  V  V64  1  0.62879926  0.12085753  0.00028995  1
  V  V65  1  0.49850028  0.35660441  0.38357850  1
  V  V66  1  0.12033471  0.75374387  0.38093054  1
  V  V67  1  0.50792106  0.00757673  0.50163188  1
  V  V68  1  0.48560152  0.38544717  0.89565620  1
  V  V69  1  0.37228095  0.86643933  0.00142841  1
  Zn  Zn70  1  -0.00317067  -0.00593503  -0.00609840  1
  Zn  Zn71  1  0.76217391  0.23918240  -0.00840868  1
  Zn  Zn72  1  0.13116974  0.52221265  0.62258805  1
  Zn  Zn73  1  0.86377670  0.50263014  -0.13056610  1
  Zn  Zn74  1  0.88547542  0.28571708  0.58864156  1
  Zn  Zn75  1  0.36625921  0.49717845  0.38555099  1
  Zn  Zn76  1  0.18163018  0.18244867  0.20304937  1
  Zn  Zn77  1  0.18871009  0.18952458  0.68935214  1
  Zn  Zn78  1  0.17205977  0.68727643  0.18975190  1
  Zn  Zn79  1  0.17668194  0.69715549  0.68984110  1
  Zn  Zn80  1  0.68637090  0.17830886  0.19017558  1
  Zn  Zn81  1  0.67964611  0.20398759  0.68148576  1
  Zn  Zn82  1  0.69230154  0.68669683  0.19480335  1
  Zn  Zn83  1  0.67709801  0.72555277  0.68831311  1
  Zn  Zn84  1  0.32775931  0.31044115  0.30431972  1
  Zn  Zn85  1  0.31119003  0.30596950  0.82660791  1
  Zn  Zn86  1  0.31278315  0.81093588  0.31666969  1
  Zn  Zn87  1  0.30608503  0.82021778  0.81331384  1
  Zn  Zn88  1  0.81185351  0.31155910  0.31010162  1
  Zn  Zn89  1  0.83848607  0.34741528  0.75832780  1
  Zn  Zn90  1  0.81441581  0.81195276  0.32962369  1
  Zn  Zn91  1  0.80661319  0.80738689  0.80589481  1
  Zn  Zn92  1  0.17584451  0.43246021  0.42557698  1
  Zn  Zn93  1  0.18281245  0.44807674  0.93096301  1
  Zn  Zn94  1  0.18807749  0.94114912  0.44784398  1
  Zn  Zn95  1  0.17714004  0.93664701  0.93495103  1
  Zn  Zn96  1  0.66753401  0.44258713  0.44075313  1
  Zn  Zn97  1  0.71489943  0.38800814  0.90332712  1
  Zn  Zn98  1  0.71708104  0.98012368  0.52394405  1
  Zn  Zn99  1  0.69315174  0.93407187  0.93598957  1
  Zn  Zn100  1  0.31106587  0.05618274  0.06401005  1
  Zn  Zn101  1  0.30984293  0.07281967  0.56047280  1
  Zn  Zn102  1  0.30047597  0.57124228  0.06659367  1
  Zn  Zn103  1  0.29327633  0.57300740  0.58448413  1
  Zn  Zn104  1  0.81649964  0.05506519  0.05299977  1
  Zn  Zn105  1  0.81557204  0.12797978  0.55659275  1
  Zn  Zn106  1  0.77423652  0.52621375  0.01323618  1
  Zn  Zn107  1  0.85696885  0.49015320  0.40173018  1
  Zn  Zn108  1  0.42986577  0.43213978  0.20256762  1
  Zn  Zn109  1  0.42365911  0.44237754  0.69291499  1
  Zn  Zn110  1  0.44023882  0.93132111  0.18690895  1
  Zn  Zn111  1  0.43911260  0.94000422  0.69060890  1
  Zn  Zn112  1  0.93031359  0.44583815  0.17528989  1
  Zn  Zn113  1  0.97850554  0.41824217  0.66761898  1
  Zn  Zn114  1  0.94867811  0.93816200  0.19349989  1
  Zn  Zn115  1  0.87508728  0.99769205  0.65268876  1
  Zn  Zn116  1  0.06310627  0.06988121  0.31062253  1
  Zn  Zn117  1  0.06171294  0.05807394  0.82101400  1
  Zn  Zn118  1  0.07042962  0.55710678  0.32074841  1
  Zn  Zn119  1  0.07238031  0.56224946  0.81414742  1
  Zn  Zn120  1  0.55812921  0.04760317  0.31391161  1
  Zn  Zn121  1  0.56163999  0.06159129  0.80829775  1
  Zn  Zn122  1  0.55162747  0.56294387  0.32186754  1
  Zn  Zn123  1  0.55922965  0.55232564  0.82187088  1
  Zn  Zn124  1  0.40717446  0.17876872  0.44173025  1
  Zn  Zn125  1  0.43177423  0.18738515  0.94227816  1
  Zn  Zn126  1  0.42927225  0.68439359  0.44091176  1
  Zn  Zn127  1  0.43929458  0.69132864  0.80999444  1
  Zn  Zn128  1  0.93603913  0.19407222  0.42614955  1
  Zn  Zn129  1  0.94171913  0.18970558  0.92910213  1
  Zn  Zn130  1  0.92737795  0.68941380  0.44770649  1
  Zn  Zn131  1  0.93452463  0.67448654  0.92749351  1
  Zn  Zn132  1  0.06211103  0.31565779  0.05875428  1
  Zn  Zn133  1  0.07492303  0.28112071  0.55105288  1
  Zn  Zn134  1  0.06898214  0.79160359  0.08873193  1
  Zn  Zn135  1  0.06000245  0.83000363  0.57484251  1
  Zn  Zn136  1  0.55468283  0.30980348  0.06758961  1
  Zn  Zn137  1  0.53348402  0.35304814  0.59259657  1
  Zn  Zn138  1  0.56279554  0.80644868  0.06054367  1
  Zn  Zn139  1  0.56119662  0.81378108  0.56269130  1
  O  O140  1  0.12022198  0.11708065  0.12068462  1
  O  O141  1  0.10846096  0.13736018  0.62966475  1
  O  O142  1  0.14452728  0.60927382  0.10292062  1
  O  O143  1  0.18710859  0.61920824  0.61281937  1
  O  O144  1  0.61595221  0.10753478  0.12290389  1
  O  O145  1  0.60196751  0.14038843  0.62485412  1
  O  O146  1  0.63856978  0.64171036  0.11160215  1
  O  O147  1  0.63689864  0.62933545  0.62583171  1
  O  O148  1  0.39626558  0.38289351  0.36512983  1
  O  O149  1  0.38809111  0.36249544  0.88388186  1
  O  O150  1  0.38513388  0.88109445  0.37787475  1
  O  O151  1  0.38481933  0.88477529  0.88328050  1
  O  O152  1  0.88814943  0.38242217  0.36226275  1
  O  O153  1  0.89742271  0.39497771  0.85139516  1
  O  O154  1  0.88725097  0.89342211  0.36833956  1
  O  O155  1  0.86493605  0.89147656  0.85203388  1
  O  O156  1  0.26705944  -0.00941038  0.37666110  1
  O  O157  1  0.26310338  -0.00184595  0.87614860  1
  O  O158  1  0.24421612  0.51203116  0.36422147  1
  O  O159  1  0.25077364  0.51502314  0.86378500  1
  O  O160  1  0.77060491  0.01404547  0.37733679  1
  O  O161  1  0.76509903  0.00406131  0.89139361  1
  O  O162  1  0.74460162  0.51302802  0.38805325  1
  O  O163  1  0.75790244  0.48873125  0.90972048  1
  O  O164  1  0.24512478  0.50068079  0.14051960  1
  O  O165  1  0.24656250  0.47006660  0.63028779  1
  O  O166  1  0.23644992  0.98422529  0.11787509  1
  O  O167  1  0.25328417  1.00687124  0.62911672  1
  O  O168  1  0.74249969  0.47913383  0.11139055  1
  O  O169  1  0.77626581  0.47573294  0.59176625  1
  O  O170  1  0.73528934  0.99633079  0.11976563  1
  O  O171  1  0.77840111  1.02978635  0.59944785  1
  O  O172  1  -0.01136032  0.36952621  0.24157189  1
  O  O173  1  0.02833305  0.38556653  0.76548593  1
  O  O174  1  0.01471915  0.87846824  0.26775396  1
  O  O175  1  0.00376156  0.88084708  0.75250474  1
  O  O176  1  0.51014844  0.36199082  0.25553506  1
  O  O177  1  0.49780197  0.36477077  0.75700559  1
  O  O178  1  0.49612913  0.85804167  0.25798338  1
  O  O179  1  0.50886401  0.88218773  0.76527157  1
  O  O180  1  0.49759092  0.12003721  0.24045271  1
  O  O181  1  0.48944029  0.12978452  0.74324871  1
  O  O182  1  0.48675026  0.63704152  0.25660460  1
  O  O183  1  0.53866747  0.64865660  0.76251575  1
  O  O184  1  0.99326885  0.13652108  0.23277740  1
  O  O185  1  1.00724744  0.13171124  0.75076836  1
  O  O186  1  0.98762078  0.62262531  0.28149060  1
  O  O187  1  1.00407075  0.63565543  0.75255674  1
  O  O188  1  0.37417820  0.23672315  0.02375929  1
  O  O189  1  0.38682426  0.26293326  0.51715721  1
  O  O190  1  0.36465611  0.76652171  0.00534610  1
  O  O191  1  0.37130400  0.76285138  0.50766354  1
  O  O192  1  0.87484720  0.24208360  0.01743367  1
  O  O193  1  0.86292285  0.21732483  0.50528257  1
  O  O194  1  0.85767108  0.73358667  0.00054627  1
  O  O195  1  0.86149201  0.75475079  0.51555026  1
  O  O196  1  0.13979865  0.22736946  0.47586901  1
  O  O197  1  0.12715185  0.23627036  1.00959188  1
  O  O198  1  0.14166052  0.76693438  0.50023631  1
  O  O199  1  0.13178575  0.73978423  1.00273415  1
  O  O200  1  0.69788731  0.29420528  0.53456703  1
  O  O201  1  0.60758019  0.23358372  0.99296034  1
  O  O202  1  0.63524639  0.74135567  0.51288500  1
  O  O203  1  0.64757179  0.74878995  1.00603534  1
  O  O204  1  0.49372735  0.23157156  0.13388889  1
  O  O205  1  0.48456866  0.25130503  0.63991394  1
  O  O206  1  0.49453002  0.74914909  0.13306256  1
  O  O207  1  0.48513448  0.75384451  0.62336463  1
  O  O208  1  0.98365902  0.25016075  0.12629899  1
  O  O209  1  0.99323265  0.23943391  0.61774905  1
  O  O210  1  1.06169245  0.70837539  0.16119314  1
  O  O211  1  0.97974456  0.76121681  0.62513120  1
  O  O212  1  -0.00516387  0.25897645  0.34878676  1
  O  O213  1  0.00882721  0.27212414  0.88574970  1
  O  O214  1  0.01259251  0.76603776  0.39719851  1
  O  O215  1  -0.02078061  0.75179270  0.85554152  1
  O  O216  1  0.48444977  0.25175348  0.36620528  1
  O  O217  1  0.49993682  0.25026852  0.87227629  1
  O  O218  1  0.49510515  0.76123208  0.37906383  1
  O  O219  1  0.49317594  0.76609630  0.88199657  1
  O  O220  1  0.30320431  0.13704161  0.47402337  1
  O  O221  1  0.23524198  0.11706822  1.00487567  1
  O  O222  1  0.26387186  0.64704132  0.48731789  1
  O  O223  1  0.25059015  0.63710210  0.98917948  1
  O  O224  1  0.72448079  0.11900733  0.47899077  1
  O  O225  1  0.73135822  0.12627573  1.01186783  1
  O  O226  1  0.73085432  0.62923857  0.49661651  1
  O  O227  1  0.74398290  0.63748588  1.00689016  1
  O  O228  1  0.28337996  0.41517880  0.00045931  1
  O  O229  1  0.25101183  0.37738354  0.49987863  1
  O  O230  1  0.25249277  0.87107757  0.00504819  1
  O  O231  1  0.26606353  0.86716374  0.49492348  1
  O  O232  1  0.72946613  0.35249515  0.01947188  1
  O  O233  1  0.73444859  0.35477053  0.50055086  1
  O  O234  1  0.75270014  0.84610078  -0.00271567  1
  O  O235  1  0.73563482  0.86646733  0.49685065  1
  O  O236  1  0.13666799  0.50815029  0.23769140  1
  O  O237  1  0.14846652  0.51385543  0.74246123  1
  O  O238  1  0.12300297  0.99326108  0.23998415  1
  O  O239  1  0.14064416  0.99966308  0.75405103  1
  O  O240  1  0.61102312  0.49022306  0.24998906  1
  O  O241  1  0.61608625  0.48274462  0.75506741  1
  O  O242  1  0.61791830  0.98099946  0.23668004  1
  O  O243  1  0.63605855  0.99082784  0.75698330  1
  O  O244  1  0.38164193  -0.00003491  0.25941452  1
  O  O245  1  0.36939264  0.00744668  0.75666551  1
  O  O246  1  0.36377585  0.51446542  0.25355244  1
  O  O247  1  0.34711861  0.51191526  0.73658469  1
  O  O248  1  0.88479555  0.01091237  0.25244721  1
  O  O249  1  0.86963961  0.02600503  0.76460199  1
  O  O250  1  0.86422615  0.53248129  0.21993953  1
  O  O251  1  0.74106825  0.49623547  0.65111992  1
  O  O252  1  0.11202366  0.35081004  0.36921595  1
  O  O253  1  0.11979752  0.36303698  0.89431866  1
  O  O254  1  0.12091121  0.87620761  0.37596002  1
  O  O255  1  0.13734270  0.87539443  0.85100704  1
  O  O256  1  0.61045279  0.37627489  0.36136046  1
  O  O257  1  0.60191938  0.35908421  0.86991365  1
  O  O258  1  0.60477403  0.87811146  0.35863091  1
  O  O259  1  0.60744081  0.88016775  0.87909466  1
  O  O260  1  0.38410687  0.11339010  0.13508905  1
  O  O261  1  0.38156780  0.14010584  0.63532183  1
  O  O262  1  0.36720837  0.62652546  0.14105538  1
  O  O263  1  0.37574588  0.64207250  0.62857679  1
  O  O264  1  0.87921415  0.12605155  0.13031696  1
  O  O265  1  0.88576283  0.13558583  0.65693419  1
  O  O266  1  0.86878363  0.60055056  0.17139751  1
  O  O267  1  0.87254637  0.59311048  0.64806708  1
  O  O268  1  0.26363765  0.24140985  0.14243701  1
  O  O269  1  0.26133350  0.25383403  0.62459812  1
  O  O270  1  0.24168257  0.76718084  0.11618460  1
  O  O271  1  0.26451577  0.75746674  0.61360460  1
  O  O272  1  0.75919539  0.24592183  0.12926312  1
  O  O273  1  0.74209091  0.26095629  0.59680464  1
  O  O274  1  0.76057658  0.74708881  0.10928234  1
  O  O275  1  0.76244568  0.75265248  0.61639663  1
  O  O276  1  0.25051393  0.25727912  0.36417730  1
  O  O277  1  0.23522214  0.25319344  0.89114885  1
  O  O278  1  0.24375662  0.75076149  0.38747989  1
  O  O279  1  0.25697870  0.74791454  0.88946423  1
  O  O280  1  0.75473740  0.22897146  0.36387992  1
  O  O281  1  0.72010924  0.25986464  0.88564080  1
  O  O282  1  0.75707431  0.73810816  0.40046225  1
  O  O283  1  0.75453987  0.73865413  0.89855825  1
  O  O284  1  0.00664350  0.13043644  0.01441403  1
  O  O285  1  0.01508275  0.12338693  0.47422200  1
  O  O286  1  0.01431328  0.62149230  -0.00618663  1
  O  O287  1  0.00773380  0.62060753  0.49060669  1
  O  O288  1  0.50529126  0.11148825  0.01015475  1
  O  O289  1  0.49069417  0.11222260  0.50234542  1
  O  O290  1  0.47559094  0.54074713  0.06738422  1
  O  O291  1  0.50998087  0.62552629  0.50586615  1
  O  O292  1  0.51645083  0.35465082  0.48179353  1
  O  O293  1  0.50301746  0.37791961  0.99522883  1
  O  O294  1  0.49186295  0.87951442  0.49066958  1
  O  O295  1  0.49351030  0.87827693  0.99609147  1
  O  O296  1  0.99654672  0.34626534  0.48169405  1
  O  O297  1  0.99505255  0.39089525  1.00066969  1
  O  O298  1  1.00572872  0.89737152  0.49278773  1
  O  O299  1  0.97581653  0.85630165  1.05243818  1
  O  O300  1  0.49664119  0.49308046  0.40070447  1
  O  O301  1  0.48874162  0.48503913  0.87618223  1
  O  O302  1  0.49053519  0.98869366  0.38656038  1
  O  O303  1  0.49339982  0.99556235  0.88762787  1
  O  O304  1  1.01669708  0.47581283  0.38361038  1
  O  O305  1  1.01443545  0.49124950  0.89039544  1
  O  O306  1  1.00274548  0.99867613  0.37901794  1
  O  O307  1  0.98492304  1.00090884  0.87995496  1
  O  O308  1  0.01003345  0.00862672  0.12222643  1
  O  O309  1  -0.01191288  0.03468074  0.60361553  1
  O  O310  1  0.01549813  0.50150923  0.11615767  1
  O  O311  1  0.01645036  0.50920695  0.61679775  1
  O  O312  1  0.50435688  -0.00068995  0.11549684  1
  O  O313  1  0.48815342  0.01086327  0.61069321  1
  O  O314  1  0.50490681  0.50403277  0.12488204  1
  O  O315  1  0.49158451  0.46730625  0.59974831  1
  O  O316  1  0.25683063  0.39304090  0.25819033  1
  O  O317  1  0.24906344  0.38147932  0.76497899  1
  O  O318  1  0.24788349  0.87252504  0.23935922  1
  O  O319  1  0.26135779  0.89690077  0.74364112  1
  O  O320  1  0.73063567  0.37171231  0.24344148  1
  O  O321  1  0.72840446  0.37226508  0.77690449  1
  O  O322  1  0.73079937  0.85811170  0.26118918  1
  O  O323  1  0.70201608  0.82651377  0.75944311  1
  O  O324  1  0.26711662  0.11292155  0.24374638  1
  O  O325  1  0.26221132  0.11386055  0.74588471  1
  O  O326  1  0.25743529  0.63214394  0.25662088  1
  O  O327  1  0.24403448  0.65044648  0.77395831  1
  O  O328  1  0.76632597  0.11845010  0.24873665  1
  O  O329  1  0.75095830  0.14848393  0.74956427  1
  O  O330  1  0.75436063  0.64027034  0.27501447  1
  O  O331  1  0.82912227  0.58803780  0.70593040  1
  O  O332  1  0.38651989  0.10573196  0.35487692  1
  O  O333  1  0.38293133  0.11457449  0.86687483  1
  O  O334  1  0.36285334  0.62540060  0.36501878  1
  O  O335  1  0.36714848  0.62833456  0.87183919  1
  O  O336  1  0.88244824  0.11782456  0.35299096  1
  O  O337  1  0.87024071  0.12420412  0.87185018  1
  O  O338  1  0.86300824  0.61411428  0.37901204  1
  O  O339  1  0.87001599  0.61168779  0.86372552  1
  O  O340  1  0.13109532  0.39274015  0.11378392  1
  O  O341  1  0.14023851  0.35328947  0.61331586  1
  O  O342  1  0.13124352  0.88086491  0.13762146  1
  O  O343  1  0.12796475  0.87998814  0.64845128  1
  O  O344  1  0.62612312  0.36689164  0.14023090  1
  O  O345  1  0.62528415  0.35654781  0.65532251  1
  O  O346  1  0.62059172  0.87963628  0.13373664  1
  O  O347  1  0.61029836  0.88011638  0.64198111  1
  O  O348  1  0.10380816  0.26530312  0.22366446  1
  O  O349  1  0.13376263  0.24684516  0.77339609  1
  O  O350  1  0.13654990  0.76920272  0.27450155  1
  O  O351  1  0.09842029  0.76073798  0.74216863  1
  O  O352  1  0.61123719  0.24449381  0.24716909  1
  O  O353  1  0.60710534  0.24541353  0.76733539  1
  O  O354  1  0.60806168  0.75816517  0.24347736  1
  O  O355  1  0.60231772  0.70169720  0.77471989  1
  O  O356  1  0.38625763  0.22703575  0.24223190  1
  O  O357  1  0.37795286  0.23967501  0.75606353  1
  O  O358  1  0.38351989  0.74264762  0.25259371  1
  O  O359  1  0.37577119  0.75996599  0.74107173  1
  O  O360  1  0.88077113  0.23856779  0.23471006  1
  O  O361  1  0.87786652  0.24225306  0.77242290  1
  O  O362  1  0.88065159  0.74105508  0.26745176  1
  O  O363  1  0.87802078  0.75432811  0.73039468  1
  O  O364  1  0.38270757  0.52637768  0.50309423  1
  O  O365  1  0.33630381  0.46873336  1.00562094  1
  O  O366  1  0.38130560  0.98536512  0.48887892  1
  O  O367  1  0.38219475  0.99264570  0.99520048  1
  O  O368  1  0.91467458  0.48796163  0.49941753  1
  O  O369  1  0.89503519  0.51515455  1.00883062  1
  O  O370  1  0.89351033  1.01643434  0.47743415  1
  O  O371  1  0.88242453  0.99552494  0.98812478  1
  O  O372  1  0.11608987  0.00628871  0.00751268  1
  O  O373  1  0.11769222  0.00771069  0.50191661  1
  O  O374  1  0.12056816  0.50877461  0.00864205  1
  O  O375  1  0.11342723  0.49158607  0.49993715  1
  O  O376  1  0.61786120  -0.00112482  0.01040926  1
  O  O377  1  0.60553053  -0.00571996  0.49940027  1
  O  O378  1  0.62232454  0.54242961  -0.01938170  1
  O  O379  1  0.61066548  0.51764420  0.50863484  1
  O  O380  1  0.37909635  0.35459319  0.13871802  1
  O  O381  1  0.35999178  0.35989062  0.63636239  1
  O  O382  1  0.35930468  0.88429903  0.11827489  1
  O  O383  1  0.38107916  0.87480430  0.61224949  1
  O  O384  1  0.85416674  0.36365777  0.13212753  1
  O  O385  1  0.87853439  0.37391564  0.65478145  1
  O  O386  1  0.92412218  0.85589162  0.11162136  1
  O  O387  1  0.87167770  0.88333194  0.62442719  1
  O  O388  1  0.13390118  0.15563708  0.32708576  1
  O  O389  1  0.11481820  0.13919314  0.89479321  1
  O  O390  1  0.13802486  0.64045441  0.37103364  1
  O  O391  1  0.13929175  0.62009981  0.89367242  1
  O  O392  1  0.63540832  0.11913868  0.34970704  1
  O  O393  1  0.61418590  0.13111995  0.88581663  1
  O  O394  1  0.63170087  0.62603054  0.37561833  1
  O  O395  1  0.60973515  0.59273839  0.92752930  1
