# generated using pymatgen
data_V35Zn35O128
_symmetry_space_group_name_H-M   'P 1'
_cell_length_a   16.85299151
_cell_length_b   16.93108615
_cell_length_c   16.96031630
_cell_angle_alpha   89.53954542
_cell_angle_beta   90.20223996
_cell_angle_gamma   89.41748110
_symmetry_Int_Tables_number   1
_chemical_formula_structural   V35Zn35O128
_chemical_formula_sum   'V70 Zn70 O256'
_cell_volume   4839.00940056
_cell_formula_units_Z   2
loop_
 _symmetry_equiv_pos_site_id
 _symmetry_equiv_pos_as_xyz
  1  'x, y, z'
loop_
 _atom_site_type_symbol
 _atom_site_label
 _atom_site_symmetry_multiplicity
 _atom_site_fract_x
 _atom_site_fract_y
 _atom_site_fract_z
 _atom_site_occupancy
  V  V0  1  0.24859128  0.49603217  0.26250399  1
  V  V1  1  0.87522702  0.75225821  0.62562376  1
  V  V2  1  0.74418915  0.75012904  0.49342581  1
  V  V3  1  0.74712607  0.87972718  0.62659010  1
  V  V4  1  0.00503880  0.25160101  0.75717799  1
  V  V5  1  0.36507366  0.49896621  0.87864212  1
  V  V6  1  0.37740816  0.63866095  0.74006592  1
  V  V7  1  0.24334763  0.49845403  0.73626279  1
  V  V8  1  0.74817412  -0.00746262  0.26033446  1
  V  V9  1  0.50787199  0.25601930  0.23629501  1
  V  V10  1  0.74980423  0.00768096  0.75825539  1
  V  V11  1  0.87786752  0.49718206  0.87727686  1
  V  V12  1  0.01443101  0.11194524  0.12515248  1
  V  V13  1  -0.00260917  0.49758979  -0.00093203  1
  V  V14  1  0.61314128  0.12479277  0.49772994  1
  V  V15  1  0.25471244  0.23670296  0.51269197  1
  V  V16  1  0.89890485  0.38060461  0.48881586  1
  V  V17  1  0.87216698  0.88599750  0.49333533  1
  V  V18  1  0.40204111  -0.00134208  0.37243332  1
  V  V19  1  -0.00212746  0.76111085  0.75718243  1
  V  V20  1  0.74404766  0.61600086  0.37701425  1
  V  V21  1  0.62987871  0.38298712  0.26286508  1
  V  V22  1  0.24830816  0.69769156  0.40025229  1
  V  V23  1  0.86542159  0.12344764  0.23488443  1
  V  V24  1  0.36781733  0.36008978  0.00402540  1
  V  V25  1  0.11334464  0.37172799  0.26352684  1
  V  V26  1  0.24184572  0.35612503  0.11796896  1
  V  V27  1  0.25405633  0.75939032  0.01823957  1
  V  V28  1  0.47089843  0.36893257  0.37624910  1
  V  V29  1  0.50800144  0.37581065  0.87085130  1
  V  V30  1  0.47766505  0.49411338  0.50076663  1
  V  V31  1  0.51304312  0.01385523  -0.00182742  1
  V  V32  1  0.87605866  0.11846903  0.75821073  1
  V  V33  1  0.63404780  0.02111469  0.12149471  1
  V  V34  1  0.38131665  0.88031695  0.52619488  1
  V  V35  1  0.73958358  0.37455618  0.11811581  1
  V  V36  1  0.38552572  0.13158768  0.23065176  1
  V  V37  1  0.74116202  0.86968041  0.12688658  1
  V  V38  1  0.50607427  0.50740144  0.00919714  1
  V  V39  1  0.23583707  0.13277046  0.89035654  1
  V  V40  1  0.62382934  0.86670617  0.75916508  1
  V  V41  1  0.25305431  0.00523010  0.74544344  1
  V  V42  1  0.12211961  0.49508990  0.12384103  1
  V  V43  1  0.73362327  0.63223468  0.87969747  1
  V  V44  1  0.00776292  0.61477721  0.62058991  1
  V  V45  1  0.74741114  0.25472340  0.49500401  1
  V  V46  1  0.00913408  0.11789204  0.61469670  1
  V  V47  1  0.37487953  0.00986977  0.88471906  1
  V  V48  1  0.11554684  0.38830486  0.74879726  1
  V  V49  1  -0.01355539  0.25509902  0.25020943  1
  V  V50  1  0.63226261  0.24151007  0.87873503  1
  V  V51  1  0.87726181  0.24672841  0.61945982  1
  V  V52  1  0.73788048  0.49758259  0.74624205  1
  V  V53  1  0.87173407  0.36114063  0.00591671  1
  V  V54  1  0.49929479  0.24640802  0.74107824  1
  V  V55  1  0.02100024  -0.00320949  0.49539836  1
  V  V56  1  0.73508188  0.74413551  0.00746200  1
  V  V57  1  0.25858668  -0.00470314  0.23683835  1
  V  V58  1  0.89820487  0.62408532  0.26203959  1
  V  V59  1  0.12091851  0.75700927  0.87824288  1
  V  V60  1  0.11679907  0.62285172  0.01142964  1
  V  V61  1  0.88603301  0.73869935  0.12869800  1
  V  V62  1  0.13149883  0.88051025  0.74051895  1
  V  V63  1  0.49703903  0.86422271  0.87832974  1
  V  V64  1  0.15086806  0.85269999  0.24059860  1
  V  V65  1  0.00092868  0.86990547  0.35829474  1
  V  V66  1  0.24491232  0.62458165  0.87721933  1
  V  V67  1  0.75981993  0.12889553  0.37731150  1
  V  V68  1  0.88643084  0.87752550  -0.00765540  1
  V  V69  1  0.87492146  0.62654200  0.75443954  1
  Zn  Zn70  1  0.12052338  0.22646748  0.38654519  1
  Zn  Zn71  1  0.74951314  0.39106038  0.61906713  1
  Zn  Zn72  1  0.75070797  0.12490467  0.88712028  1
  Zn  Zn73  1  0.25119229  0.11649325  0.37235647  1
  Zn  Zn74  1  0.62284151  0.01527428  0.62510528  1
  Zn  Zn75  1  0.60944360  0.61005951  0.50949687  1
  Zn  Zn76  1  0.17337173  0.17084720  0.21511424  1
  Zn  Zn77  1  0.18923606  0.18029137  0.68979849  1
  Zn  Zn78  1  0.29610667  0.67255056  0.20212738  1
  Zn  Zn79  1  0.18285311  0.68605195  0.69172319  1
  Zn  Zn80  1  0.70743352  0.19474655  0.05363898  1
  Zn  Zn81  1  0.65394140  0.23340243  0.65928929  1
  Zn  Zn82  1  0.74590733  0.51303237  0.23684727  1
  Zn  Zn83  1  0.68250459  0.68720373  0.68601105  1
  Zn  Zn84  1  0.29924167  0.29791543  0.30438033  1
  Zn  Zn85  1  0.30585827  0.31625314  0.81226989  1
  Zn  Zn86  1  0.32638643  0.81954851  0.32544776  1
  Zn  Zn87  1  0.31117217  0.81497618  0.82183967  1
  Zn  Zn88  1  0.81353210  0.31945294  0.31389624  1
  Zn  Zn89  1  0.81699402  0.31220467  0.81332293  1
  Zn  Zn90  1  0.81468444  0.80720489  0.31091342  1
  Zn  Zn91  1  0.80821630  0.81363421  0.81791801  1
  Zn  Zn92  1  0.29180629  0.41697553  0.44669986  1
  Zn  Zn93  1  0.17633997  0.31060892  0.93506766  1
  Zn  Zn94  1  0.20373607  0.91469635  0.41768643  1
  Zn  Zn95  1  0.18842090  0.93408221  0.93426963  1
  Zn  Zn96  1  0.68218437  0.43784378  0.44663694  1
  Zn  Zn97  1  0.68933838  0.44329771  0.93641831  1
  Zn  Zn98  1  0.55864345  0.94281040  0.44422503  1
  Zn  Zn99  1  0.69309255  0.93562281  0.94130289  1
  Zn  Zn100  1  0.31358065  0.06535873  0.06252333  1
  Zn  Zn101  1  0.27773678  0.02881974  0.53407524  1
  Zn  Zn102  1  0.30995518  0.55711406  0.06547707  1
  Zn  Zn103  1  0.30237500  0.56467420  0.55473462  1
  Zn  Zn104  1  0.87148021  0.09136393  0.01866333  1
  Zn  Zn105  1  0.81217364  0.06503550  0.56746920  1
  Zn  Zn106  1  0.80966874  0.56303125  0.06738615  1
  Zn  Zn107  1  0.82249506  0.56256146  0.56152887  1
  Zn  Zn108  1  0.43148479  0.43892755  0.18694018  1
  Zn  Zn109  1  0.42335789  0.43284166  0.69064166  1
  Zn  Zn110  1  0.41991027  0.95787507  0.15809039  1
  Zn  Zn111  1  0.42924824  0.93104183  0.70657337  1
  Zn  Zn112  1  0.92992993  0.44516549  0.18341356  1
  Zn  Zn113  1  0.93104906  0.43336691  0.68236233  1
  Zn  Zn114  1  0.92444431  0.93717376  0.17413709  1
  Zn  Zn115  1  0.93905257  0.94044371  0.68450300  1
  Zn  Zn116  1  0.05590961  0.05390980  0.31110469  1
  Zn  Zn117  1  0.06877507  0.06674864  0.80755705  1
  Zn  Zn118  1  0.11245381  0.64460213  0.27757174  1
  Zn  Zn119  1  0.05877780  0.56756383  0.81575032  1
  Zn  Zn120  1  0.57567146  0.08170555  0.30546833  1
  Zn  Zn121  1  0.56032841  0.06825668  0.80718994  1
  Zn  Zn122  1  0.57134761  0.54470950  0.34335873  1
  Zn  Zn123  1  0.55457126  0.56355879  0.81477054  1
  Zn  Zn124  1  0.42674027  0.19093846  0.42550349  1
  Zn  Zn125  1  0.43849451  0.18757118  0.93250569  1
  Zn  Zn126  1  0.42057975  0.68590074  0.54928978  1
  Zn  Zn127  1  0.43054616  0.68536965  0.94097254  1
  Zn  Zn128  1  0.93731876  0.18506983  0.43239259  1
  Zn  Zn129  1  1.04423457  0.18263384  0.94641400  1
  Zn  Zn130  1  0.94027871  0.69207779  0.43760537  1
  Zn  Zn131  1  0.93220724  0.69089233  0.94052060  1
  Zn  Zn132  1  0.04576036  0.30879700  0.07293606  1
  Zn  Zn133  1  0.10965121  0.34078647  0.53936288  1
  Zn  Zn134  1  0.06599008  0.81104716  0.07041409  1
  Zn  Zn135  1  0.05900123  0.81491308  0.56858044  1
  Zn  Zn136  1  0.56277111  0.32130540  0.05820632  1
  Zn  Zn137  1  0.54972931  0.35666837  0.58008002  1
  Zn  Zn138  1  0.55955226  0.82325647  0.05857066  1
  Zn  Zn139  1  0.56206862  0.81381871  0.57133936  1
  O  O140  1  0.11386042  0.12116639  0.12881622  1
  O  O141  1  0.10634979  0.11859637  0.63179720  1
  O  O142  1  0.12194835  0.61487756  0.11170504  1
  O  O143  1  0.10735005  0.62486403  0.63366777  1
  O  O144  1  0.63633184  0.11850022  0.11534706  1
  O  O145  1  0.63146488  0.13420095  0.60345488  1
  O  O146  1  0.53833546  0.64764147  0.17137423  1
  O  O147  1  0.59312820  0.65398007  0.61712934  1
  O  O148  1  0.36838303  0.37031223  0.36713451  1
  O  O149  1  0.37096753  0.38091923  0.88575418  1
  O  O150  1  0.39771823  0.89489146  0.36292069  1
  O  O151  1  0.39072579  0.88711604  0.86886575  1
  O  O152  1  0.88312624  0.37022098  0.38893666  1
  O  O153  1  0.86290297  0.39050138  0.88979590  1
  O  O154  1  0.88057067  0.87057690  0.39081933  1
  O  O155  1  0.87113184  0.86762143  0.89207663  1
  O  O156  1  0.27120075  -0.00627080  0.35034846  1
  O  O157  1  0.26005521  0.00616897  0.88140713  1
  O  O158  1  0.24310174  0.48516647  0.36162957  1
  O  O159  1  0.25372100  0.51257756  0.86577482  1
  O  O160  1  0.74676023  0.00471202  0.35901562  1
  O  O161  1  0.74606168  0.00148444  0.86009383  1
  O  O162  1  0.75262224  0.51604490  0.39282272  1
  O  O163  1  0.75624025  0.51609833  0.86949624  1
  O  O164  1  0.23210122  0.48565701  0.12235882  1
  O  O165  1  0.24456948  0.51001793  0.63733458  1
  O  O166  1  0.29844240  0.98006509  0.13797839  1
  O  O167  1  0.25718046  1.01456861  0.64801135  1
  O  O168  1  0.75252638  0.48765786  0.12664099  1
  O  O169  1  0.75281718  0.50952410  0.64173475  1
  O  O170  1  0.73691065  0.98814120  0.12718431  1
  O  O171  1  0.75015814  0.99015348  0.63352697  1
  O  O172  1  -0.00261324  0.36331647  0.24225252  1
  O  O173  1  0.00131092  0.36178955  0.74846447  1
  O  O174  1  -0.02783804  0.87544875  0.26358515  1
  O  O175  1  0.00884648  0.86905256  0.74722603  1
  O  O176  1  0.50326481  0.37808694  0.26086770  1
  O  O177  1  0.49400315  0.37463188  0.76850070  1
  O  O178  1  0.58937453  0.85576637  0.30002821  1
  O  O179  1  0.51516320  0.88003484  0.76171812  1
  O  O180  1  0.50057653  0.14674462  0.24582427  1
  O  O181  1  0.48830254  0.14754019  0.75956427  1
  O  O182  1  0.47428360  0.63620088  0.30771038  1
  O  O183  1  0.47561170  0.61929053  0.75529506  1
  O  O184  1  0.98107620  0.12299925  0.24218478  1
  O  O185  1  0.98947270  0.11993200  0.74039396  1
  O  O186  1  0.99824865  0.62630817  0.26502548  1
  O  O187  1  0.98977070  0.63714509  0.74536300  1
  O  O188  1  0.38061806  0.26236154  -0.00191033  1
  O  O189  1  0.35434546  0.24804851  0.49043635  1
  O  O190  1  0.35197399  0.74730287  -0.00595680  1
  O  O191  1  0.38434520  0.78234760  0.50031751  1
  O  O192  1  0.87643420  0.26614226  -0.00455112  1
  O  O193  1  0.87723355  0.25568716  0.50385685  1
  O  O194  1  0.86651963  0.74933805  0.01357583  1
  O  O195  1  0.87113308  0.76105108  0.51299272  1
  O  O196  1  0.13178679  0.23605319  0.49900796  1
  O  O197  1  0.10956494  0.25329253  1.00102469  1
  O  O198  1  0.15973821  0.75160228  0.54150435  1
  O  O199  1  0.12629487  0.73773077  0.99698071  1
  O  O200  1  0.64812790  0.24170341  0.49407134  1
  O  O201  1  0.62349389  0.25285736  0.98579144  1
  O  O202  1  0.64525006  0.76180125  0.50453207  1
  O  O203  1  0.63506226  0.74976166  1.00825300  1
  O  O204  1  0.49464176  0.27428233  0.13811571  1
  O  O205  1  0.51198212  0.25916045  0.64258637  1
  O  O206  1  0.46677339  0.78827727  0.12679662  1
  O  O207  1  0.52752291  0.71296744  0.61654909  1
  O  O208  1  0.99668529  0.23218484  0.14594446  1
  O  O209  1  0.98870666  0.22998042  0.63370375  1
  O  O210  1  0.98487982  0.74593412  0.12667002  1
  O  O211  1  0.99034640  0.74770101  0.63782125  1
  O  O212  1  0.00587437  0.23366704  0.35398775  1
  O  O213  1  -0.00770895  0.23450888  0.85431055  1
  O  O214  1  0.00582018  0.77244644  0.38636343  1
  O  O215  1  0.00599254  0.74231494  0.86416697  1
  O  O216  1  0.49039308  0.26616435  0.35609489  1
  O  O217  1  0.50183368  0.26370598  0.87218128  1
  O  O218  1  0.47778360  0.69907816  0.34477398  1
  O  O219  1  0.49554352  0.76559534  0.88555148  1
  O  O220  1  0.24777431  0.12557557  0.48911653  1
  O  O221  1  0.24887994  0.12150598  0.98980118  1
  O  O222  1  0.29652619  0.64747242  0.47775793  1
  O  O223  1  0.23430578  0.62695230  0.99247579  1
  O  O224  1  0.75773507  0.12964638  0.48748318  1
  O  O225  1  0.76600820  0.11944202  0.99652209  1
  O  O226  1  0.75647416  0.64128675  0.50202974  1
  O  O227  1  0.75015595  0.63252607  0.98983342  1
  O  O228  1  0.25501233  0.36289456  0.00625572  1
  O  O229  1  0.22663479  0.34808371  0.50462229  1
  O  O230  1  0.23333679  0.85910445  0.00565436  1
  O  O231  1  0.27859378  0.91549941  0.50861193  1
  O  O232  1  0.75782773  0.38305093  0.00791637  1
  O  O233  1  0.75839580  0.36071753  0.49478523  1
  O  O234  1  0.75402464  0.85948937  0.00580045  1
  O  O235  1  0.76333126  0.86627163  0.51087674  1
  O  O236  1  0.11753721  0.48045213  0.23508076  1
  O  O237  1  0.12885153  0.49667937  0.75507675  1
  O  O238  1  0.15929802  0.99645393  0.23212526  1
  O  O239  1  0.13304005  0.98618872  0.75981368  1
  O  O240  1  0.62403453  0.48934358  0.25686145  1
  O  O241  1  0.63846479  0.50758057  0.75681480  1
  O  O242  1  0.63894127  1.01202328  0.23437191  1
  O  O243  1  0.63611173  1.00189839  0.74341363  1
  O  O244  1  0.39249703  0.01491170  0.25323971  1
  O  O245  1  0.35979421  -0.00162732  0.76869335  1
  O  O246  1  0.34744761  0.49325988  0.24233741  1
  O  O247  1  0.35761575  0.50465436  0.75586176  1
  O  O248  1  0.85632908  0.01197061  0.23926369  1
  O  O249  1  0.86504187  0.00776973  0.74423335  1
  O  O250  1  0.87425692  0.52229414  0.24761774  1
  O  O251  1  0.87010486  0.51099173  0.75956746  1
  O  O252  1  0.11436614  0.37523982  0.35933157  1
  O  O253  1  0.12787666  0.36118181  0.84682517  1
  O  O254  1  0.10921223  0.88889339  0.33885067  1
  O  O255  1  0.12582742  0.86041956  0.86787332  1
  O  O256  1  0.63059331  0.37260100  0.36277875  1
  O  O257  1  0.61098001  0.37132573  0.87995401  1
  O  O258  1  0.60149850  0.85081500  0.38036362  1
  O  O259  1  0.61958136  0.88350665  0.86410444  1
  O  O260  1  0.38834952  0.12272068  0.13096403  1
  O  O261  1  0.44423154  0.07850950  0.61863217  1
  O  O262  1  0.36681681  0.62160168  0.13324136  1
  O  O263  1  0.36407238  0.62976010  0.63590999  1
  O  O264  1  0.86593760  0.13155620  0.13696757  1
  O  O265  1  0.88435444  0.12755226  0.63047778  1
  O  O266  1  0.87253791  0.63328923  0.13704664  1
  O  O267  1  0.87570685  0.63724629  0.63868529  1
  O  O268  1  0.23936421  0.26061052  0.13674817  1
  O  O269  1  0.25330888  0.22629533  0.61382130  1
  O  O270  1  0.24817211  0.74297811  0.11671971  1
  O  O271  1  0.21563249  0.75189872  0.59525417  1
  O  O272  1  0.74979953  0.27334037  0.12297495  1
  O  O273  1  0.76687169  0.23527973  0.60424068  1
  O  O274  1  0.75431267  0.75135678  0.11211417  1
  O  O275  1  0.75782758  0.75944222  0.62334750  1
  O  O276  1  0.23890673  0.23828149  0.37698102  1
  O  O277  1  0.25158806  0.23553576  0.87216086  1
  O  O278  1  0.23568585  0.80029837  0.40938448  1
  O  O279  1  0.23841486  0.74102165  0.88044713  1
  O  O280  1  0.76189123  0.23825060  0.38382390  1
  O  O281  1  0.73513876  0.25029369  0.86580739  1
  O  O282  1  0.75663542  0.74566830  0.39041087  1
  O  O283  1  0.75113320  0.73836187  0.88733934  1
  O  O284  1  -0.01772266  0.12510505  0.02322934  1
  O  O285  1  -0.00046046  0.10878686  0.50389213  1
  O  O286  1  0.01095723  0.61929537  -0.00687528  1
  O  O287  1  -0.01041108  0.63462696  0.52243659  1
  O  O288  1  0.50363983  0.11281308  -0.00727042  1
  O  O289  1  0.51719826  0.14524608  0.48395878  1
  O  O290  1  0.49180426  0.60671696  -0.00765084  1
  O  O291  1  0.48146612  0.59792029  0.50213851  1
  O  O292  1  0.49359953  0.36634773  0.47744931  1
  O  O293  1  0.48333491  0.38265061  0.98963897  1
  O  O294  1  0.49484047  0.89244444  0.52413045  1
  O  O295  1  0.51093984  0.89182754  0.98030037  1
  O  O296  1  0.99798730  0.36973830  0.50731671  1
  O  O297  1  0.98224058  0.38729339  1.00409477  1
  O  O298  1  0.99087174  0.88460401  0.50293127  1
  O  O299  1  0.98619360  0.85989874  1.00430286  1
  O  O300  1  0.48630485  0.48110728  0.38462314  1
  O  O301  1  0.48619535  0.48878377  0.87815739  1
  O  O302  1  0.50777598  1.00909988  0.36408442  1
  O  O303  1  0.49167594  1.00278232  0.87904792  1
  O  O304  1  1.03988353  0.51727163  0.41150470  1
  O  O305  1  0.98832682  0.50469634  0.88238722  1
  O  O306  1  0.99886902  0.98769086  0.38880971  1
  O  O307  1  1.02755024  0.99810126  0.90806455  1
  O  O308  1  -0.00199256  0.01260783  0.13671974  1
  O  O309  1  -0.00317218  0.00691191  0.60929884  1
  O  O310  1  0.00887362  0.49553209  0.11186154  1
  O  O311  1  -0.00946317  0.51641588  0.63511580  1
  O  O312  1  0.51781934  -0.00534239  0.10763566  1
  O  O313  1  0.48871301  0.02485406  0.64827606  1
  O  O314  1  0.49241567  0.49080270  0.10775812  1
  O  O315  1  0.48790089  0.45840175  0.60228508  1
  O  O316  1  0.23126571  0.37765984  0.23844771  1
  O  O317  1  0.24028378  0.39395942  0.75115430  1
  O  O318  1  0.25574976  0.87518843  0.24619468  1
  O  O319  1  0.24002833  0.88610184  0.75789701  1
  O  O320  1  0.74106853  0.37923043  0.24422669  1
  O  O321  1  0.75949466  0.39705076  0.75484778  1
  O  O322  1  0.75773831  0.88618966  0.24515776  1
  O  O323  1  0.74410041  0.88594127  0.74730100  1
  O  O324  1  0.27266801  0.10886602  0.23455663  1
  O  O325  1  0.23565258  0.10822913  0.77118104  1
  O  O326  1  0.21568765  0.59466885  0.24248585  1
  O  O327  1  0.25074497  0.61816500  0.75737537  1
  O  O328  1  0.75808677  0.12088895  0.26230026  1
  O  O329  1  0.76036777  0.11333860  0.74718139  1
  O  O330  1  0.74589272  0.62336393  0.27567362  1
  O  O331  1  0.75454298  0.62443443  0.75975753  1
  O  O332  1  0.37643364  0.11248505  0.35764841  1
  O  O333  1  0.36439927  0.11417376  0.87855466  1
  O  O334  1  0.31111077  0.70556814  0.31178031  1
  O  O335  1  0.36231849  0.61733713  0.86727804  1
  O  O336  1  0.86508015  0.11854194  0.36738206  1
  O  O337  1  0.87453468  0.12158797  0.85640716  1
  O  O338  1  0.87105611  0.63479899  0.36536368  1
  O  O339  1  0.86815427  0.62164104  0.86625019  1
  O  O340  1  0.12954718  0.37965824  0.11827305  1
  O  O341  1  0.12290104  0.37109498  0.64925611  1
  O  O342  1  0.11050744  0.87493011  0.15057134  1
  O  O343  1  0.12497407  0.87705777  0.64188622  1
  O  O344  1  0.63437609  0.38038557  0.13039513  1
  O  O345  1  0.64927756  0.34437396  0.62770640  1
  O  O346  1  0.63782049  0.87217095  0.12607339  1
  O  O347  1  0.63345062  0.88084071  0.64003895  1
  O  O348  1  0.11091502  0.26659897  0.24460216  1
  O  O349  1  0.10592868  0.24265154  0.74409915  1
  O  O350  1  0.13921161  0.75504283  0.24957494  1
  O  O351  1  0.11901174  0.76125551  0.75729779  1
  O  O352  1  0.60942317  0.27074618  0.24613223  1
  O  O353  1  0.60800641  0.25285239  0.76793117  1
  O  O354  1  0.59791001  0.68576630  0.18675629  1
  O  O355  1  0.63582107  0.76839436  0.75457904  1
  O  O356  1  0.37872920  0.23648539  0.24574837  1
  O  O357  1  0.38292979  0.27442946  0.73265578  1
  O  O358  1  0.52650684  0.82485510  0.27318934  1
  O  O359  1  0.36380453  0.73719477  0.75535279  1
  O  O360  1  0.88009125  0.24016764  0.25572633  1
  O  O361  1  0.87792518  0.23772129  0.74133377  1
  O  O362  1  0.86890036  0.73552187  0.23906388  1
  O  O363  1  0.87792152  0.74823641  0.74653460  1
  O  O364  1  0.36950217  0.48497743  0.50060912  1
  O  O365  1  0.37251618  0.49174007  0.98872792  1
  O  O366  1  0.39172971  1.00106368  0.47614725  1
  O  O367  1  0.39141158  1.00023683  0.99036538  1
  O  O368  1  0.87507950  0.47796752  0.50978251  1
  O  O369  1  0.88334811  0.51004342  0.99188015  1
  O  O370  1  0.87271247  0.98597104  0.50360857  1
  O  O371  1  0.87430548  0.97570018  1.01011462  1
  O  O372  1  0.07970310  -0.00882865  -0.03673216  1
  O  O373  1  0.11878514  -0.01643719  0.49225085  1
  O  O374  1  0.11402152  0.51174664  0.00278308  1
  O  O375  1  0.09247765  0.51225123  0.46118226  1
  O  O376  1  0.62245222  0.00177743  0.00604609  1
  O  O377  1  0.61821571  0.01767034  0.50736114  1
  O  O378  1  0.60538006  0.49407969  -0.00669575  1
  O  O379  1  0.59764942  0.49405306  0.49739921  1
  O  O380  1  0.35499160  0.37754131  0.11137276  1
  O  O381  1  0.36895416  0.32849366  0.67104580  1
  O  O382  1  0.41267314  0.83727806  0.15195407  1
  O  O383  1  0.37612424  0.87696798  0.62658240  1
  O  O384  1  0.86657474  0.37867219  0.11219989  1
  O  O385  1  0.86831551  0.36068296  0.61843024  1
  O  O386  1  0.86164540  0.85754049  0.11987526  1
  O  O387  1  0.86812776  0.86918001  0.62246213  1
  O  O388  1  0.13881617  0.12629737  0.32622094  1
  O  O389  1  0.13013828  0.12534642  0.88423160  1
  O  O390  1  0.15963912  0.65421933  0.38466750  1
  O  O391  1  0.12932202  0.63512913  0.87844745  1
  O  O392  1  0.64666805  0.12357879  0.38629789  1
  O  O393  1  0.62702590  0.13765652  0.87411914  1
  O  O394  1  0.63687041  0.62515950  0.39352620  1
  O  O395  1  0.63517354  0.62660205  0.87083203  1
