# generated using pymatgen
data_V35Zn35O128
_symmetry_space_group_name_H-M   'P 1'
_cell_length_a   16.90030355
_cell_length_b   16.91336686
_cell_length_c   16.94889934
_cell_angle_alpha   90.05602223
_cell_angle_beta   90.04858112
_cell_angle_gamma   90.03810078
_symmetry_Int_Tables_number   1
_chemical_formula_structural   V35Zn35O128
_chemical_formula_sum   'V70 Zn70 O256'
_cell_volume   4844.68578085
_cell_formula_units_Z   2
loop_
 _symmetry_equiv_pos_site_id
 _symmetry_equiv_pos_as_xyz
  1  'x, y, z'
loop_
 _atom_site_type_symbol
 _atom_site_label
 _atom_site_symmetry_multiplicity
 _atom_site_fract_x
 _atom_site_fract_y
 _atom_site_fract_z
 _atom_site_occupancy
  V  V0  1  0.62476967  0.25865652  0.38963253  1
  V  V1  1  0.00145816  0.38668569  0.89362668  1
  V  V2  1  0.70505553  0.73927648  -0.04500758  1
  V  V3  1  0.24264440  0.62645285  0.88230130  1
  V  V4  1  0.25232013  0.74687905  0.50814869  1
  V  V5  1  0.11879221  0.75435789  0.87856135  1
  V  V6  1  0.61793417  0.47506376  0.12404017  1
  V  V7  1  0.00770437  0.10360115  0.12225538  1
  V  V8  1  0.51825848  0.01317365  -0.00420822  1
  V  V9  1  0.25647668  0.86764060  0.62502895  1
  V  V10  1  0.45867744  -0.06104396  0.49061001  1
  V  V11  1  0.87252518  -0.00229434  0.88381996  1
  V  V12  1  0.75487717  0.39297211  0.60668417  1
  V  V13  1  0.49514893  0.27608146  0.73790837  1
  V  V14  1  0.87238422  0.11342271  0.75381295  1
  V  V15  1  0.73852066  0.00115175  0.24574683  1
  V  V16  1  0.37586655  0.01111521  0.86963794  1
  V  V17  1  0.25908720  0.11303398  0.37515608  1
  V  V18  1  0.83610276  0.80016675  0.11174949  1
  V  V19  1  0.49038482  0.50428087  0.50014710  1
  V  V20  1  0.13480033  0.24300155  0.88432904  1
  V  V21  1  0.37349997  0.49321451  0.88741093  1
  V  V22  1  0.00629386  0.38449126  0.37584928  1
  V  V23  1  0.83841771  0.53604604  0.35887575  1
  V  V24  1  0.48439364  0.21725695  0.26406610  1
  V  V25  1  0.36522400  0.62991697  0.74436432  1
  V  V26  1  0.87157513  0.86621201  0.49410850  1
  V  V27  1  0.62130469  0.87062510  0.74364781  1
  V  V28  1  0.11915771  0.38161957  0.74640379  1
  V  V29  1  0.01435353  0.24839389  0.24362022  1
  V  V30  1  0.87011243  0.13172275  0.24322726  1
  V  V31  1  0.62800629  0.76416954  0.37632352  1
  V  V32  1  0.49517895  0.72138259  0.25368426  1
  V  V33  1  0.49606561  0.75096697  0.74469573  1
  V  V34  1  -0.00233320  0.25012329  0.75330150  1
  V  V35  1  0.25941778  0.61609506  0.37341373  1
  V  V36  1  0.13282248  0.10873470  0.00078055  1
  V  V37  1  0.24613276  0.00736891  0.74154454  1
  V  V38  1  0.86150301  0.25373642  0.62303997  1
  V  V39  1  0.11200833  0.60968450  0.50960743  1
  V  V40  1  0.00622770  0.11589316  0.62289735  1
  V  V41  1  0.63789369  0.63188540  0.49005215  1
  V  V42  1  0.60979410  0.11913134  0.52553109  1
  V  V43  1  0.00032710  0.88894799  0.89140952  1
  V  V44  1  0.00331335  0.00272765  0.49907033  1
  V  V45  1  -0.01086861  0.67675175  0.13613082  1
  V  V46  1  0.49057163  0.37402301  0.37623730  1
  V  V47  1  0.74731569  0.13642362  0.39735896  1
  V  V48  1  0.86955929  0.51510059  0.89225789  1
  V  V49  1  0.24175947  0.24038774  0.51398563  1
  V  V50  1  0.12107104  0.23448230  0.38408355  1
  V  V51  1  0.58940946  0.89736698  0.24545630  1
  V  V52  1  0.86910833  0.00453163  0.37937201  1
  V  V53  1  0.25659639  0.34815082  0.10623168  1
  V  V54  1  0.74034869  -0.00055048  0.74442633  1
  V  V55  1  0.38744932  0.12576675  0.72312406  1
  V  V56  1  0.89933298  0.64617251  0.77004563  1
  V  V57  1  0.24338353  0.38330484  0.62640822  1
  V  V58  1  0.11624451  0.74903930  0.37259809  1
  V  V59  1  0.37262892  0.37181611  0.51280447  1
  V  V60  1  0.25629715  0.76816519  0.00536947  1
  V  V61  1  0.49460372  0.87364605  0.87645008  1
  V  V62  1  0.13395174  0.49334112  0.11039885  1
  V  V63  1  0.74917584  0.86287033  0.61536662  1
  V  V64  1  0.49180666  0.63069384  0.61937428  1
  V  V65  1  0.39175894  0.74214554  0.11861052  1
  V  V66  1  0.75387521  0.25832934  0.00009537  1
  V  V67  1  0.64526481  0.39140156  0.75994968  1
  V  V68  1  0.11703143  0.87593317  0.74192509  1
  V  V69  1  0.25718058  0.47118497  0.25079246  1
  Zn  Zn70  1  0.38680212  0.35155650  -0.00490276  1
  Zn  Zn71  1  0.21956296  -0.03350070  0.18314920  1
  Zn  Zn72  1  0.11027800  0.87047548  0.25687182  1
  Zn  Zn73  1  0.24096391  0.50850648  0.74648493  1
  Zn  Zn74  1  0.63523262  0.51218169  0.62304064  1
  Zn  Zn75  1  0.42767342  0.55807646  0.32160255  1
  Zn  Zn76  1  0.19052312  0.17015727  0.19411219  1
  Zn  Zn77  1  0.18295296  0.19103276  0.68970087  1
  Zn  Zn78  1  0.17305403  0.67803349  0.18578026  1
  Zn  Zn79  1  0.16968957  0.68823113  0.69036187  1
  Zn  Zn80  1  0.69689777  0.22980587  0.21454275  1
  Zn  Zn81  1  0.67316734  0.19281490  0.71375370  1
  Zn  Zn82  1  0.68570714  0.73696271  0.18215724  1
  Zn  Zn83  1  0.68521601  0.68971060  0.68359012  1
  Zn  Zn84  1  0.31373042  0.29912782  0.33212372  1
  Zn  Zn85  1  0.31398540  0.30683726  0.80653140  1
  Zn  Zn86  1  0.28561253  0.76786842  0.28814536  1
  Zn  Zn87  1  0.31045118  0.81643086  0.81009674  1
  Zn  Zn88  1  0.85220668  0.36339624  0.25710754  1
  Zn  Zn89  1  0.82754573  0.32803422  0.80759138  1
  Zn  Zn90  1  0.81193882  0.81776646  0.30670867  1
  Zn  Zn91  1  0.79698417  0.81067658  0.83272350  1
  Zn  Zn92  1  0.18143360  0.42963480  0.43172144  1
  Zn  Zn93  1  0.19734845  0.42596084  0.93484471  1
  Zn  Zn94  1  0.18384355  0.93231521  0.43622508  1
  Zn  Zn95  1  0.19562539  0.93958633  0.92887973  1
  Zn  Zn96  1  0.68585413  0.44442591  0.43936842  1
  Zn  Zn97  1  0.70181047  0.44073057  0.93831285  1
  Zn  Zn98  1  0.67924879  0.94556275  0.43849432  1
  Zn  Zn99  1  0.68979832  0.92597360  0.92985864  1
  Zn  Zn100  1  0.31938622  0.06424547  0.05566278  1
  Zn  Zn101  1  0.30593990  0.05015900  0.55452837  1
  Zn  Zn102  1  0.29526427  0.56575884  0.07460718  1
  Zn  Zn103  1  0.30530211  0.56150599  0.56063618  1
  Zn  Zn104  1  0.84243528  0.01081566  0.09202996  1
  Zn  Zn105  1  0.81336410  0.05941285  0.57151175  1
  Zn  Zn106  1  0.83437543  0.61703206  0.05153945  1
  Zn  Zn107  1  0.96366366  0.49734177  0.51665951  1
  Zn  Zn108  1  0.42262923  0.41699854  0.18875804  1
  Zn  Zn109  1  0.42779455  0.45073084  0.68631217  1
  Zn  Zn110  1  0.41039950  0.94458101  0.15824748  1
  Zn  Zn111  1  0.43680732  0.94151743  0.67635034  1
  Zn  Zn112  1  0.92497151  0.49786807  0.16563073  1
  Zn  Zn113  1  0.91858544  0.45755083  0.69522979  1
  Zn  Zn114  1  0.96649425  0.89509735  0.16993595  1
  Zn  Zn115  1  0.95345820  0.89419888  0.66810985  1
  Zn  Zn116  1  0.04393110  0.02279058  0.29094491  1
  Zn  Zn117  1  0.06188557  0.06055663  0.81279368  1
  Zn  Zn118  1  0.07892165  0.56544741  0.29965585  1
  Zn  Zn119  1  0.05497619  0.56516541  0.81263250  1
  Zn  Zn120  1  0.55571041  0.05790407  0.34462172  1
  Zn  Zn121  1  0.55816743  0.07151967  0.80645035  1
  Zn  Zn122  1  0.66998245  0.58286282  0.29626542  1
  Zn  Zn123  1  0.54568592  0.54940499  0.80528393  1
  Zn  Zn124  1  0.43411769  0.18642561  0.45931951  1
  Zn  Zn125  1  0.48884677  0.20898163  0.93007846  1
  Zn  Zn126  1  0.44231435  0.71963516  0.44739987  1
  Zn  Zn127  1  0.42777664  0.69181512  0.92641167  1
  Zn  Zn128  1  0.93206638  0.19242643  0.44048046  1
  Zn  Zn129  1  0.94918224  0.18047076  0.93626560  1
  Zn  Zn130  1  0.93568626  0.67813860  0.42725277  1
  Zn  Zn131  1  0.95448743  0.69270710  0.95833893  1
  Zn  Zn132  1  0.07038857  0.31015881  0.07013106  1
  Zn  Zn133  1  0.05046730  0.31868800  0.56308938  1
  Zn  Zn134  1  0.08765977  0.83212180  0.06700058  1
  Zn  Zn135  1  0.05750298  0.79924655  0.55528430  1
  Zn  Zn136  1  0.55812602  0.27456733  0.08162358  1
  Zn  Zn137  1  0.57025785  0.31458253  0.56940033  1
  Zn  Zn138  1  0.55860090  0.82451905  0.06429305  1
  Zn  Zn139  1  0.55751588  0.81968340  0.56369205  1
  O  O140  1  0.11890506  0.11338065  0.11619696  1
  O  O141  1  0.10462493  0.12623647  0.63213814  1
  O  O142  1  0.18224549  0.58993626  0.11556912  1
  O  O143  1  0.12015227  0.62579778  0.60952025  1
  O  O144  1  0.63538445  0.19933865  0.12348590  1
  O  O145  1  0.63280067  0.13821907  0.62147312  1
  O  O146  1  0.60247298  0.57382297  0.10395132  1
  O  O147  1  0.61282355  0.63169052  0.61008758  1
  O  O148  1  0.38439964  0.37023085  0.39755853  1
  O  O149  1  0.35505064  0.38727576  0.88203564  1
  O  O150  1  0.37507501  0.87497179  0.36928376  1
  O  O151  1  0.39004061  0.89100014  0.85354723  1
  O  O152  1  0.90870573  0.35998467  0.35805077  1
  O  O153  1  0.89300011  0.39826314  0.87412049  1
  O  O154  1  0.85688738  0.89101024  0.38560195  1
  O  O155  1  0.89282687  0.88821709  0.87252295  1
  O  O156  1  0.24662214  0.01553352  0.40045245  1
  O  O157  1  0.26710087  -0.00862333  0.85373661  1
  O  O158  1  0.25010957  0.50856603  0.36579456  1
  O  O159  1  0.24487088  0.51736919  0.87144065  1
  O  O160  1  0.74980246  0.02174954  0.37231036  1
  O  O161  1  0.76569996  -0.01240419  0.85597662  1
  O  O162  1  0.73315996  0.51235963  0.36123479  1
  O  O163  1  0.76865697  0.51102250  0.88550499  1
  O  O164  1  0.26024967  0.46495032  0.13778981  1
  O  O165  1  0.24309895  0.48841409  0.62884270  1
  O  O166  1  0.31638589  1.01015793  0.15090664  1
  O  O167  1  0.24508002  0.98225822  0.63392142  1
  O  O168  1  0.72115952  0.47345970  0.12587533  1
  O  O169  1  0.75940932  0.49140572  0.61790098  1
  O  O170  1  0.74183017  1.01702529  0.14750736  1
  O  O171  1  0.75519632  0.98858205  0.64155388  1
  O  O172  1  0.01644337  0.34686102  0.25413200  1
  O  O173  1  0.00958463  0.36703670  0.76105674  1
  O  O174  1  0.00377400  0.91282689  0.27093591  1
  O  O175  1  0.01549801  0.89112441  0.76429616  1
  O  O176  1  0.48672860  0.37218229  0.27660278  1
  O  O177  1  0.48049468  0.37487969  0.75503919  1
  O  O178  1  0.49091299  0.91015986  0.24717040  1
  O  O179  1  0.50405959  0.86824636  0.74169375  1
  O  O180  1  0.48905375  0.11761988  0.27745384  1
  O  O181  1  0.48383286  0.09824668  0.71909257  1
  O  O182  1  0.50306934  0.62200608  0.25625439  1
  O  O183  1  0.48931094  0.63218487  0.74211647  1
  O  O184  1  0.99454914  0.11695623  0.23907182  1
  O  O185  1  0.99193439  0.12751659  0.74209600  1
  O  O186  1  1.05355122  0.64324727  0.21045991  1
  O  O187  1  0.99887446  0.64259669  0.75005906  1
  O  O188  1  0.36923377  0.21114345  -0.00310940  1
  O  O189  1  0.35502407  0.26198509  0.50729391  1
  O  O190  1  0.36881006  0.74616477  0.00667803  1
  O  O191  1  0.34994725  0.73970578  0.51339556  1
  O  O192  1  0.85546092  0.23323432  -0.00726964  1
  O  O193  1  0.87666640  0.24765933  0.52454540  1
  O  O194  1  0.88125179  0.73462531  0.04227594  1
  O  O195  1  0.88202930  0.76870548  0.48180114  1
  O  O196  1  0.13261661  0.25596460  0.49856848  1
  O  O197  1  0.12339069  0.24156898  0.98713269  1
  O  O198  1  0.12380636  0.73431563  0.49025682  1
  O  O199  1  0.13988926  0.76458263  0.98306153  1
  O  O200  1  0.61661832  0.23767985  0.49550997  1
  O  O201  1  0.65194390  0.28319507  0.99616319  1
  O  O202  1  0.61897025  0.74751285  0.48428504  1
  O  O203  1  0.61076028  0.76049598  0.98844373  1
  O  O204  1  0.49499343  0.23445359  0.16406695  1
  O  O205  1  0.49833200  0.25695933  0.63827511  1
  O  O206  1  0.49802860  0.74358030  0.13354455  1
  O  O207  1  0.49582847  0.73985965  0.63145916  1
  O  O208  1  1.01657617  0.23491543  0.14060474  1
  O  O209  1  0.99040629  0.24326016  0.63710145  1
  O  O210  1  1.00302279  0.78337950  0.13812287  1
  O  O211  1  0.98601111  0.78869079  0.63648816  1
  O  O212  1  0.01295230  0.24137808  0.37576105  1
  O  O213  1  0.00149115  0.25803576  0.86805586  1
  O  O214  1  0.01837898  0.73221153  0.36188633  1
  O  O215  1  0.01432594  0.76497912  0.88631746  1
  O  O216  1  0.50051414  0.25988232  0.38683498  1
  O  O217  1  0.51317329  0.21460211  0.82355761  1
  O  O218  1  0.50718981  0.74573445  0.35645935  1
  O  O219  1  0.48913580  0.76631886  0.86018793  1
  O  O220  1  0.24341174  0.13988092  0.51410830  1
  O  O221  1  0.23226357  0.11926663  1.00498891  1
  O  O222  1  0.23702213  0.63020728  0.49781432  1
  O  O223  1  0.25009467  0.63888247  0.98107807  1
  O  O224  1  0.75655733  0.13133583  0.49671927  1
  O  O225  1  0.72503779  0.16024775  0.98993898  1
  O  O226  1  0.73258233  0.62807685  0.49928039  1
  O  O227  1  0.74093050  0.65653217  1.00559211  1
  O  O228  1  0.25846752  0.35284327  0.00289687  1
  O  O229  1  0.25295233  0.37259454  0.50979763  1
  O  O230  1  0.25847644  0.86813720  -0.00747098  1
  O  O231  1  0.23604146  0.85978840  0.51606871  1
  O  O232  1  0.77159281  0.36428464  0.00263389  1
  O  O233  1  0.75202745  0.37937526  0.50724237  1
  O  O234  1  0.75769024  0.83485194  -0.05462590  1
  O  O235  1  0.75205980  0.87905245  0.50840302  1
  O  O236  1  0.15777113  0.50169196  0.24156780  1
  O  O237  1  0.12181230  0.48372603  0.75850182  1
  O  O238  1  0.14826635  0.98410337  0.27316588  1
  O  O239  1  0.13908988  0.99064127  0.75961005  1
  O  O240  1  0.62323200  0.49022301  0.22623984  1
  O  O241  1  0.61599251  0.49407742  0.73764194  1
  O  O242  1  0.62802256  1.00001561  0.26654494  1
  O  O243  1  0.63749563  0.99250524  0.75064413  1
  O  O244  1  0.34487287  -0.07879980  0.31766722  1
  O  O245  1  0.36290255  0.00558047  0.74066844  1
  O  O246  1  0.36393217  0.49726669  0.24900330  1
  O  O247  1  0.36323335  0.51402966  0.76164633  1
  O  O248  1  0.85607755  0.01708317  0.26582804  1
  O  O249  1  0.87320928  0.00875545  0.75411963  1
  O  O250  1  0.87032475  0.49116946  0.27144001  1
  O  O251  1  0.89059790  0.52656143  0.77970347  1
  O  O252  1  0.11901166  0.35199702  0.37466341  1
  O  O253  1  0.11891918  0.36120178  0.86879731  1
  O  O254  1  0.12213444  0.85171346  0.38614451  1
  O  O255  1  0.11743757  0.87294343  0.86882440  1
  O  O256  1  0.60883238  0.36531963  0.39358683  1
  O  O257  1  0.63359365  0.39705730  0.85998609  1
  O  O258  1  0.62168814  0.87035658  0.36795108  1
  O  O259  1  0.60525212  0.88062277  0.85258381  1
  O  O260  1  0.37404776  0.17734409  0.06361560  1
  O  O261  1  0.36061089  0.12209287  0.62697527  1
  O  O262  1  0.36098224  0.64395016  0.12602119  1
  O  O263  1  0.37728605  0.61785019  0.63580021  1
  O  O264  1  0.88420094  0.11427955  0.13913516  1
  O  O265  1  0.88124845  0.13348046  0.63945952  1
  O  O266  1  0.90331082  0.61210504  0.14552321  1
  O  O267  1  0.84395644  0.63096054  0.67069210  1
  O  O268  1  0.24292810  0.25220102  0.13444897  1
  O  O269  1  0.23774584  0.26379614  0.61885453  1
  O  O270  1  0.23789035  0.74832911  0.10235433  1
  O  O271  1  0.23321484  0.75744964  0.61948018  1
  O  O272  1  0.76782161  0.25554835  0.10189205  1
  O  O273  1  0.76149383  0.24904392  0.64032835  1
  O  O274  1  0.73488678  0.79662974  0.10085672  1
  O  O275  1  0.75214848  0.76419363  0.62460961  1
  O  O276  1  0.23953801  0.24117220  0.39598390  1
  O  O277  1  0.23279157  0.24568771  0.86611443  1
  O  O278  1  0.24426289  0.73934520  0.39693444  1
  O  O279  1  0.24616304  0.74709927  0.88014667  1
  O  O280  1  0.73211700  0.24224473  0.38181631  1
  O  O281  1  0.76241621  0.26905923  0.89492541  1
  O  O282  1  0.72538078  0.75396285  0.35284701  1
  O  O283  1  0.71121178  0.71842427  0.85592431  1
  O  O284  1  0.00550053  0.12895795  0.01900249  1
  O  O285  1  -0.01024773  0.11805230  0.51615699  1
  O  O286  1  0.02560754  0.65440308  0.04501618  1
  O  O287  1  0.00772416  0.61235091  0.48955470  1
  O  O288  1  0.51883601  0.11346160  -0.01889683  1
  O  O289  1  0.50876874  0.12164723  0.51434303  1
  O  O290  1  0.52519925  0.62417551  -0.04103044  1
  O  O291  1  0.49087456  0.62361058  0.50705852  1
  O  O292  1  0.49073170  0.38522005  0.50722017  1
  O  O293  1  0.49176946  0.30261496  0.99435344  1
  O  O294  1  0.47382882  0.83353168  0.48653148  1
  O  O295  1  0.49583472  0.88160332  0.97747169  1
  O  O296  1  1.00582126  0.38525098  0.48265954  1
  O  O297  1  1.00435569  0.36377811  0.99021077  1
  O  O298  1  0.97883221  0.89319294  0.50345698  1
  O  O299  1  1.01077770  0.88190587  0.98930621  1
  O  O300  1  0.49549611  0.48694412  0.38852856  1
  O  O301  1  0.47277260  0.49784072  0.87565350  1
  O  O302  1  0.50974668  0.98374528  0.41515312  1
  O  O303  1  0.49468293  0.99434163  0.87034891  1
  O  O304  1  1.02005336  0.48259789  0.35263647  1
  O  O305  1  1.01526404  0.48818794  0.88862159  1
  O  O306  1  0.98012855  1.02031198  0.39237225  1
  O  O307  1  0.98998342  0.99640572  0.87843316  1
  O  O308  1  -0.00319460  0.00516666  0.12024080  1
  O  O309  1  -0.01023967  0.00918054  0.61612798  1
  O  O310  1  0.03664933  0.49662504  0.13452899  1
  O  O311  1  -0.00642352  0.48187468  0.62032007  1
  O  O312  1  0.48827702  -0.00242767  0.09097339  1
  O  O313  1  0.50001216  -0.04313898  0.58393761  1
  O  O314  1  0.51196615  0.46287721  0.12747297  1
  O  O315  1  0.49932185  0.51510082  0.61676515  1
  O  O316  1  0.25606047  0.37192712  0.26353295  1
  O  O317  1  0.23351799  0.37149140  0.74432725  1
  O  O318  1  0.28293969  0.88523621  0.27300615  1
  O  O319  1  0.23907893  0.87856985  0.74071310  1
  O  O320  1  0.74774017  0.32489859  0.24405124  1
  O  O321  1  0.74709059  0.38171874  0.74656469  1
  O  O322  1  0.74358197  0.90039141  0.25464154  1
  O  O323  1  0.74174277  0.87915143  0.74263483  1
  O  O324  1  0.25269256  0.12015524  0.27466730  1
  O  O325  1  0.24977862  0.11006334  0.73931950  1
  O  O326  1  0.25681155  0.64029499  0.27445572  1
  O  O327  1  0.24996806  0.63098458  0.75549673  1
  O  O328  1  0.76085387  0.13632036  0.25603487  1
  O  O329  1  0.76439250  0.11095352  0.74551494  1
  O  O330  1  0.71215157  0.63502087  0.20925802  1
  O  O331  1  0.77947013  0.62371623  0.71921760  1
  O  O332  1  0.35673925  0.12822928  0.39988695  1
  O  O333  1  0.37931809  0.10930806  0.84467383  1
  O  O334  1  0.36340512  0.62793199  0.39014423  1
  O  O335  1  0.35855537  0.62071166  0.86566966  1
  O  O336  1  0.86074244  0.12651211  0.37366990  1
  O  O337  1  0.88663271  0.11284940  0.86136436  1
  O  O338  1  0.86034291  0.63558403  0.35318609  1
  O  O339  1  0.89778070  0.62600863  0.88224650  1
  O  O340  1  0.14826002  0.37724516  0.12136339  1
  O  O341  1  0.12386747  0.36880550  0.64208787  1
  O  O342  1  0.14395293  0.88766762  0.14555968  1
  O  O343  1  0.12440258  0.87345615  0.64062709  1
  O  O344  1  0.61019658  0.36680572  0.13293544  1
  O  O345  1  0.64501230  0.38611560  0.62331406  1
  O  O346  1  0.60722953  0.88676258  0.14772004  1
  O  O347  1  0.63683054  0.87162575  0.63098968  1
  O  O348  1  0.11899145  0.22834414  0.26972993  1
  O  O349  1  0.11321611  0.25267340  0.76109327  1
  O  O350  1  0.15894045  0.76101762  0.26843885  1
  O  O351  1  0.12826577  0.76775954  0.76591136  1
  O  O352  1  0.60225344  0.23847798  0.28622610  1
  O  O353  1  0.61068539  0.29190474  0.73883062  1
  O  O354  1  0.60005370  0.77489645  0.25326674  1
  O  O355  1  0.60787824  0.75671017  0.74153807  1
  O  O356  1  0.38606321  0.24140318  0.27199013  1
  O  O357  1  0.38297855  0.23501081  0.74669002  1
  O  O358  1  0.39291882  0.74220988  0.24420534  1
  O  O359  1  0.38036366  0.73902546  0.75381235  1
  O  O360  1  0.89904757  0.23144756  0.25411882  1
  O  O361  1  0.88192915  0.24069931  0.75117740  1
  O  O362  1  0.85191226  0.77223817  0.20894806  1
  O  O363  1  0.87319705  0.74383907  0.78148035  1
  O  O364  1  0.38121892  0.49045490  0.50695136  1
  O  O365  1  0.35869539  0.50820841  0.98732506  1
  O  O366  1  0.36317417  0.97266484  0.49908025  1
  O  O367  1  0.38242413  1.01316868  0.97181230  1
  O  O368  1  0.87683131  0.50308274  0.44568532  1
  O  O369  1  0.88083197  0.52435966  0.99407119  1
  O  O370  1  0.87173246  0.99795947  0.49193772  1
  O  O371  1  0.85873633  1.01271376  0.98016061  1
  O  O372  1  0.12454506  0.00999029  -0.01527401  1
  O  O373  1  0.10070102  -0.00749528  0.49578429  1
  O  O374  1  0.13841588  0.48748105  0.00926278  1
  O  O375  1  0.13164105  0.51144777  0.49524685  1
  O  O376  1  0.61661527  -0.01442330  -0.00990399  1
  O  O377  1  0.63974976  0.02189656  0.51189521  1
  O  O378  1  0.62428946  0.46141844  0.01882006  1
  O  O379  1  0.61113247  0.51919475  0.49888648  1
  O  O380  1  0.36637137  0.35778675  0.11268616  1
  O  O381  1  0.35856136  0.38021530  0.62214221  1
  O  O382  1  0.36702777  0.84066466  0.13086272  1
  O  O383  1  0.35425950  0.86382844  0.63465501  1
  O  O384  1  0.88861651  0.39113259  0.15273326  1
  O  O385  1  0.86185708  0.36358948  0.63907255  1
  O  O386  1  0.87037602  0.89856345  0.10470978  1
  O  O387  1  0.85825967  0.88084731  0.60675688  1
  O  O388  1  0.13801397  0.13490674  0.39213260  1
  O  O389  1  0.11196061  0.13481383  0.88695434  1
  O  O390  1  0.13868910  0.63014330  0.38166957  1
  O  O391  1  0.13188208  0.64398961  0.86652058  1
  O  O392  1  0.63557386  0.13041420  0.39733228  1
  O  O393  1  0.63685167  0.14978882  0.81632286  1
  O  O394  1  0.62073149  0.64020385  0.38343916  1
  O  O395  1  0.58123947  0.61279649  0.90929243  1
