# generated using pymatgen
data_V35Zn35O128
_symmetry_space_group_name_H-M   'P 1'
_cell_length_a   16.82722247
_cell_length_b   16.83913076
_cell_length_c   16.85927929
_cell_angle_alpha   89.87764467
_cell_angle_beta   90.07464347
_cell_angle_gamma   89.97027630
_symmetry_Int_Tables_number   1
_chemical_formula_structural   V35Zn35O128
_chemical_formula_sum   'V70 Zn70 O256'
_cell_volume   4777.15896409
_cell_formula_units_Z   2
loop_
 _symmetry_equiv_pos_site_id
 _symmetry_equiv_pos_as_xyz
  1  'x, y, z'
loop_
 _atom_site_type_symbol
 _atom_site_label
 _atom_site_symmetry_multiplicity
 _atom_site_fract_x
 _atom_site_fract_y
 _atom_site_fract_z
 _atom_site_occupancy
  V  V0  1  0.63833133  0.25377115  0.39215174  1
  V  V1  1  0.11786941  0.11646225  0.48337057  1
  V  V2  1  -0.01090810  0.74604318  0.23783279  1
  V  V3  1  0.52982530  -0.00862016  0.51318326  1
  V  V4  1  0.49501453  0.49775155  0.49880434  1
  V  V5  1  0.75479145  0.60114552  0.86325831  1
  V  V6  1  0.24824842  0.63094570  0.87663941  1
  V  V7  1  0.01033759  0.14315525  0.64587342  1
  V  V8  1  0.24802900  0.74935067  0.01389700  1
  V  V9  1  0.36896766  0.86796854  0.01571777  1
  V  V10  1  0.75051086  0.76083102  0.50747262  1
  V  V11  1  0.86992409  0.75395888  0.64294192  1
  V  V12  1  0.24862505  0.24824088  -0.01607666  1
  V  V13  1  0.00299545  0.62777966  0.65059844  1
  V  V14  1  0.76023803  0.61603633  0.37138392  1
  V  V15  1  0.37884979  0.24903333  0.13141159  1
  V  V16  1  0.23140085  0.24504892  0.49251950  1
  V  V17  1  0.13674728  0.86746491  0.22474791  1
  V  V18  1  0.75758028  0.01477298  0.25766319  1
  V  V19  1  0.49994082  0.75935220  0.74894124  1
  V  V20  1  0.12608869  0.75435294  0.36952310  1
  V  V21  1  0.59220176  0.38533218  0.77212683  1
  V  V22  1  0.50664693  -0.00218867  0.00218256  1
  V  V23  1  0.86608410  0.25491035  0.62705679  1
  V  V24  1  0.38518929  0.37524568  -0.00156577  1
  V  V25  1  -0.01707766  0.61979683  0.12444696  1
  V  V26  1  0.37065550  0.36483433  0.50406274  1
  V  V27  1  0.24153437  0.87905498  0.63513265  1
  V  V28  1  0.35494539  0.00414905  0.87364100  1
  V  V29  1  0.39090880  0.63821041  0.24262763  1
  V  V30  1  0.75716006  0.49675296  0.24166707  1
  V  V31  1  0.36857135  0.63289049  0.74658327  1
  V  V32  1  0.35014361  -0.00229593  0.37412677  1
  V  V33  1  0.01806610  0.26030500  0.25637447  1
  V  V34  1  0.36874735  0.12468308  0.25791591  1
  V  V35  1  0.13052598  0.49837019  0.13497865  1
  V  V36  1  0.50202833  0.51392810  0.01445649  1
  V  V37  1  0.86775101  0.37634794  0.49222918  1
  V  V38  1  0.62488931  0.62082717  0.50257199  1
  V  V39  1  0.00683107  0.86151193  0.85783774  1
  V  V40  1  0.49632143  0.87426101  0.36920170  1
  V  V41  1  0.62946341  0.62846167  0.00855613  1
  V  V42  1  0.24492166  0.37384379  0.13617538  1
  V  V43  1  0.60903261  0.37182081  0.25200590  1
  V  V44  1  0.87464280  0.14206461  0.26359371  1
  V  V45  1  0.24671281  0.62001556  0.36433541  1
  V  V46  1  0.50535098  0.12137546  0.13515750  1
  V  V47  1  0.49846459  0.87732194  0.87557125  1
  V  V48  1  0.01674779  0.38303403  0.37650196  1
  V  V49  1  0.11869064  -0.00128383  0.64004966  1
  V  V50  1  -0.00887944  0.48427031  -0.00189878  1
  V  V51  1  0.49672436  0.62698399  0.62706446  1
  V  V52  1  0.39199281  0.15497071  0.69537942  1
  V  V53  1  0.61789784  0.74490437  0.36099166  1
  V  V54  1  0.24345430  -0.00206776  0.22448421  1
  V  V55  1  0.62919770  0.13589820  -0.00320565  1
  V  V56  1  0.38003437  0.49745636  0.86828465  1
  V  V57  1  -0.00498742  0.14331561  0.11964150  1
  V  V58  1  0.36144246  0.87406913  0.50509172  1
  V  V59  1  0.87126476  -0.00372976  0.85651165  1
  V  V60  1  0.76775665  0.87333843  0.13172385  1
  V  V61  1  0.63247448  0.75396576  0.87533483  1
  V  V62  1  -0.00392428  -0.00851706  0.01861370  1
  V  V63  1  0.24588186  0.74192475  0.50323089  1
  V  V64  1  0.37519975  0.49638804  0.36938366  1
  V  V65  1  0.00399420  0.52499444  0.49203104  1
  V  V66  1  0.23640558  0.38093166  0.63615972  1
  V  V67  1  0.75821608  0.35849536  0.11845505  1
  V  V68  1  -0.03006688  0.37510269  0.86274886  1
  V  V69  1  0.61992276  0.89506219  0.24382382  1
  Zn  Zn70  1  0.13306753  0.12420623  0.01068037  1
  Zn  Zn71  1  0.87318707  0.86718635  0.00376218  1
  Zn  Zn72  1  0.75027523  0.11012362  0.88593664  1
  Zn  Zn73  1  0.63200270  0.48952165  0.63285030  1
  Zn  Zn74  1  -0.05801119  -0.07666619  0.42233461  1
  Zn  Zn75  1  0.12279231  0.62171422  -0.00373847  1
  Zn  Zn76  1  0.18788870  0.18587927  0.18420176  1
  Zn  Zn77  1  0.21277586  0.17850839  0.67118353  1
  Zn  Zn78  1  0.19430520  0.67615974  0.18597054  1
  Zn  Zn79  1  0.17623511  0.69616843  0.69341011  1
  Zn  Zn80  1  0.68475197  0.19669218  0.19523119  1
  Zn  Zn81  1  0.66127527  0.26239040  0.63793112  1
  Zn  Zn82  1  0.69885555  0.68656773  0.18634925  1
  Zn  Zn83  1  0.68496414  0.68739390  0.69016465  1
  Zn  Zn84  1  0.31087621  0.31122423  0.31736905  1
  Zn  Zn85  1  0.34004674  0.30480135  0.80240288  1
  Zn  Zn86  1  0.31021996  0.81190134  0.30714542  1
  Zn  Zn87  1  0.31299901  0.81653213  0.81951960  1
  Zn  Zn88  1  0.81191819  0.31784941  0.31581194  1
  Zn  Zn89  1  0.80956234  0.30478013  0.81171263  1
  Zn  Zn90  1  0.80293151  0.81722134  0.31781379  1
  Zn  Zn91  1  0.84981527  0.77163391  0.85695951  1
  Zn  Zn92  1  0.18603964  0.44572144  0.44954077  1
  Zn  Zn93  1  0.19666549  0.44494471  0.94846341  1
  Zn  Zn94  1  0.13801266  0.91724900  0.45580748  1
  Zn  Zn95  1  0.17698264  0.93614263  0.94960851  1
  Zn  Zn96  1  0.68254347  0.43445445  0.43316964  1
  Zn  Zn97  1  0.68216606  0.43408030  0.93885828  1
  Zn  Zn98  1  0.74416167  0.97531757  0.46577335  1
  Zn  Zn99  1  0.69095616  0.93276696  0.94350944  1
  Zn  Zn100  1  0.32030923  0.06534275  0.05412646  1
  Zn  Zn101  1  0.30622028  0.06039226  0.56048832  1
  Zn  Zn102  1  0.31524727  0.56191789  0.06408160  1
  Zn  Zn103  1  0.30705553  0.55830950  0.56424515  1
  Zn  Zn104  1  0.81390244  0.05767028  0.07735780  1
  Zn  Zn105  1  0.87583166  0.06456017  0.54432464  1
  Zn  Zn106  1  0.80429143  0.55356051  0.05464199  1
  Zn  Zn107  1  0.83499126  0.57669638  0.54928724  1
  Zn  Zn108  1  0.43417098  0.44200887  0.18586743  1
  Zn  Zn109  1  0.42907475  0.43848061  0.68267287  1
  Zn  Zn110  1  0.43417121  0.93885293  0.18844919  1
  Zn  Zn111  1  0.46516584  0.98450785  0.71202935  1
  Zn  Zn112  1  0.93267076  0.43511568  0.18931063  1
  Zn  Zn113  1  0.94399336  0.44107552  0.67125661  1
  Zn  Zn114  1  0.94707800  0.94349116  0.21687189  1
  Zn  Zn115  1  0.93804663  0.93092301  0.68093189  1
  Zn  Zn116  1  0.05759720  0.05518505  0.30183430  1
  Zn  Zn117  1  0.05480882  0.04530528  0.81481734  1
  Zn  Zn118  1  0.05806158  0.56304097  0.31037840  1
  Zn  Zn119  1  0.06470832  0.55015894  0.81779894  1
  Zn  Zn120  1  0.55871250  0.06647049  0.32689309  1
  Zn  Zn121  1  0.55132758  0.16180966  0.80462963  1
  Zn  Zn122  1  0.56579884  0.55498516  0.30767740  1
  Zn  Zn123  1  0.56181434  0.56642776  0.81786719  1
  Zn  Zn124  1  0.45023549  0.17521022  0.45527638  1
  Zn  Zn125  1  0.43567842  0.18648005  0.93723409  1
  Zn  Zn126  1  0.43220351  0.68619911  0.43367625  1
  Zn  Zn127  1  0.43716229  0.68954403  0.93839219  1
  Zn  Zn128  1  0.94585487  0.19732855  0.43959519  1
  Zn  Zn129  1  0.93662120  0.18593476  0.92050773  1
  Zn  Zn130  1  0.92895417  0.72237564  0.42348250  1
  Zn  Zn131  1  0.93560161  0.67760115  0.94738905  1
  Zn  Zn132  1  0.06558716  0.30962503  0.05668216  1
  Zn  Zn133  1  0.06243245  0.31902916  0.56124260  1
  Zn  Zn134  1  0.06397954  0.80328161  0.05577734  1
  Zn  Zn135  1  0.04163862  0.81423674  0.57007029  1
  Zn  Zn136  1  0.56817456  0.31608518  0.06928100  1
  Zn  Zn137  1  0.54308958  0.31312508  0.56600909  1
  Zn  Zn138  1  0.56144833  0.80578874  0.06784834  1
  Zn  Zn139  1  0.54635542  0.80118452  0.54670891  1
  O  O140  1  0.10418126  0.13083849  0.12642013  1
  O  O141  1  0.12238648  0.11699958  0.62771774  1
  O  O142  1  0.12914711  0.60685953  0.12052120  1
  O  O143  1  0.10382193  0.63633193  0.63071456  1
  O  O144  1  0.60769949  0.12892451  0.12817586  1
  O  O145  1  0.71542037  0.09381117  0.58139471  1
  O  O146  1  0.63379931  0.63572739  0.10769576  1
  O  O147  1  0.61670796  0.61657146  0.61799529  1
  O  O148  1  0.36504464  0.39086013  0.38506496  1
  O  O149  1  0.37237886  0.39061515  0.88281005  1
  O  O150  1  0.37738307  0.88241117  0.37452995  1
  O  O151  1  0.38303705  0.87841793  0.88979888  1
  O  O152  1  0.88801206  0.37006133  0.38730615  1
  O  O153  1  0.86982747  0.38160422  0.87014296  1
  O  O154  1  0.88942922  0.82733476  0.38520864  1
  O  O155  1  0.88921975  0.88498905  0.88029533  1
  O  O156  1  0.25179132  -0.00434309  0.36492550  1
  O  O157  1  0.25521963  -0.00924842  0.88837990  1
  O  O158  1  0.25982452  0.51438123  0.38647772  1
  O  O159  1  0.27123060  0.51696442  0.88886627  1
  O  O160  1  0.73289566  0.00416380  0.35478150  1
  O  O161  1  0.76491177  -0.01055362  0.87737751  1
  O  O162  1  0.74976766  0.51228448  0.37403204  1
  O  O163  1  0.74932910  0.50111522  0.87212552  1
  O  O164  1  0.24143425  0.48548266  0.11731665  1
  O  O165  1  0.24983535  0.48343355  0.62316469  1
  O  O166  1  0.25088936  1.00101885  0.12580326  1
  O  O167  1  0.24052539  0.98610433  0.62381628  1
  O  O168  1  0.74534091  0.50301052  0.13976733  1
  O  O169  1  0.76825427  0.50528796  0.63692128  1
  O  O170  1  0.74697769  0.98990752  0.14833471  1
  O  O171  1  0.76066277  1.04780201  0.62384144  1
  O  O172  1  -0.00168697  0.36861391  0.25944499  1
  O  O173  1  -0.01032165  0.39976808  0.76486236  1
  O  O174  1  0.02251208  0.84994711  0.22831178  1
  O  O175  1  0.00698506  0.87596400  0.75810409  1
  O  O176  1  0.50829580  0.37927745  0.24585676  1
  O  O177  1  0.49204856  0.37806386  0.75515757  1
  O  O178  1  0.50820313  0.88272735  0.25644931  1
  O  O179  1  0.49398333  0.87066519  0.76312405  1
  O  O180  1  0.48660082  0.10987567  0.23934192  1
  O  O181  1  0.47575910  0.10083008  0.73823188  1
  O  O182  1  0.49011757  0.62076233  0.25684587  1
  O  O183  1  0.49135132  0.63429079  0.74436238  1
  O  O184  1  0.99503426  0.14256575  0.24537389  1
  O  O185  1  1.00652391  0.12691020  0.74462390  1
  O  O186  1  1.00407828  0.62990219  0.23221545  1
  O  O187  1  0.99885483  0.61030041  0.74987801  1
  O  O188  1  0.37077560  0.25624460  0.01156606  1
  O  O189  1  0.37782242  0.26401341  0.48954839  1
  O  O190  1  0.36904621  0.76106100  -0.00185146  1
  O  O191  1  0.35929972  0.76322237  0.48856320  1
  O  O192  1  0.83029602  0.23886398  -0.03658616  1
  O  O193  1  0.88703318  0.26539511  0.50831402  1
  O  O194  1  0.86047754  0.75724619  -0.02323273  1
  O  O195  1  0.85200539  0.73748641  0.51100556  1
  O  O196  1  0.12668677  0.24066991  0.49417214  1
  O  O197  1  0.14300117  0.25206256  0.99191565  1
  O  O198  1  0.13661942  0.75032203  0.47789348  1
  O  O199  1  0.14282318  0.74109918  1.00086099  1
  O  O200  1  0.63010353  0.27450774  0.49182073  1
  O  O201  1  0.61993602  0.23492201  1.00688277  1
  O  O202  1  0.63081676  0.73862282  0.49989592  1
  O  O203  1  0.61778622  0.73938755  0.98642068  1
  O  O204  1  0.48763895  0.23531124  0.12174013  1
  O  O205  1  0.55485512  0.22244325  0.63208142  1
  O  O206  1  0.48807599  0.74034590  0.11956021  1
  O  O207  1  0.50517087  0.73963927  0.63335476  1
  O  O208  1  0.99977662  0.25061355  0.13600300  1
  O  O209  1  1.01488391  0.24457701  0.63614449  1
  O  O210  1  1.00492008  0.72885935  0.12498464  1
  O  O211  1  0.98695887  0.73911313  0.63261721  1
  O  O212  1  0.00772325  0.26439553  0.36404215  1
  O  O213  1  -0.00926191  0.27410938  0.87467617  1
  O  O214  1  0.02194014  0.73399082  0.34868305  1
  O  O215  1  -0.01294427  0.76084504  0.87576199  1
  O  O216  1  0.52262552  0.22478632  0.38058392  1
  O  O217  1  0.49448648  0.23998994  0.86065201  1
  O  O218  1  0.50976976  0.75971758  0.38675472  1
  O  O219  1  0.50303289  0.75819637  0.86815893  1
  O  O220  1  0.23383994  0.13693141  0.50490528  1
  O  O221  1  0.25087647  0.14299253  1.00691547  1
  O  O222  1  0.25846561  0.63810125  0.49234231  1
  O  O223  1  0.25930819  0.63473544  0.99088403  1
  O  O224  1  0.74220406  0.10356610  0.50637456  1
  O  O225  1  0.72933735  0.10925358  1.01275498  1
  O  O226  1  0.73894779  0.62270549  0.49073022  1
  O  O227  1  0.73352406  0.61476082  0.98570535  1
  O  O228  1  0.26337100  0.36605412  0.00671598  1
  O  O229  1  0.25498990  0.36859887  0.50336810  1
  O  O230  1  0.25835329  0.86131384  0.00025609  1
  O  O231  1  0.25030119  0.86515573  0.49688463  1
  O  O232  1  0.73693585  0.38287023  0.02103776  1
  O  O233  1  0.76798361  0.38681179  0.49613860  1
  O  O234  1  0.75476916  0.88554482  0.02748634  1
  O  O235  1  0.74163149  0.85778591  0.49564289  1
  O  O236  1  0.12178309  0.49818983  0.23424043  1
  O  O237  1  0.14171921  0.45692126  0.78802688  1
  O  O238  1  0.13698745  0.98371442  0.24183116  1
  O  O239  1  0.13046019  1.00107406  0.73934210  1
  O  O240  1  0.63745611  0.48175168  0.26292107  1
  O  O241  1  0.61280749  0.49007221  0.74991402  1
  O  O242  1  0.62172249  0.99690959  0.24838052  1
  O  O243  1  0.64804956  1.11729365  0.72955949  1
  O  O244  1  0.35999532  0.00260543  0.25359824  1
  O  O245  1  0.36910609  -0.01595773  0.77427632  1
  O  O246  1  0.37701391  0.50231188  0.26724980  1
  O  O247  1  0.38035557  0.51342572  0.76223201  1
  O  O248  1  0.86133175  0.01680202  0.25652205  1
  O  O249  1  0.87626533  -0.00754015  0.75627100  1
  O  O250  1  0.85816283  0.49899191  0.25261364  1
  O  O251  1  0.80959047  0.48061263  0.69607251  1
  O  O252  1  0.11683417  0.38532419  0.37499048  1
  O  O253  1  0.14318882  0.40298254  0.84287731  1
  O  O254  1  0.13592577  0.85711623  0.35469698  1
  O  O255  1  0.10215559  0.87477720  0.89157553  1
  O  O256  1  0.62183776  0.36562158  0.36624659  1
  O  O257  1  0.60137968  0.38798741  0.87310022  1
  O  O258  1  0.61554778  0.85842839  0.35640039  1
  O  O259  1  0.61134190  0.86464969  0.88788555  1
  O  O260  1  0.38014364  0.13135008  0.13394774  1
  O  O261  1  0.38643422  0.13478508  0.59359440  1
  O  O262  1  0.36960788  0.61441792  0.14623054  1
  O  O263  1  0.37918841  0.62131317  0.63897242  1
  O  O264  1  0.88988230  0.12519071  0.14088470  1
  O  O265  1  0.90122137  0.14321067  0.61777557  1
  O  O266  1  0.88446392  0.61805327  0.12050177  1
  O  O267  1  0.88530543  0.63950548  0.63015374  1
  O  O268  1  0.25714143  0.26010886  0.11850358  1
  O  O269  1  0.24631336  0.26386023  0.60259201  1
  O  O270  1  0.25692977  0.73955490  0.11239498  1
  O  O271  1  0.23598292  0.75905175  0.60726003  1
  O  O272  1  0.75183563  0.25736626  0.12560439  1
  O  O273  1  0.76760590  0.24499776  0.61330929  1
  O  O274  1  0.75727565  0.77230633  0.14579325  1
  O  O275  1  0.75103506  0.74764604  0.61714754  1
  O  O276  1  0.25108320  0.25359200  0.39311444  1
  O  O277  1  0.27173306  0.25578570  0.88681834  1
  O  O278  1  0.24525979  0.73816375  0.37808736  1
  O  O279  1  0.25723945  0.73619945  0.88362998  1
  O  O280  1  0.73954592  0.25123483  0.37508074  1
  O  O281  1  0.77657715  0.23412985  0.90544823  1
  O  O282  1  0.73133081  0.73870013  0.38268755  1
  O  O283  1  0.73046698  0.76231197  0.86612191  1
  O  O284  1  -0.00751999  0.13496761  0.01315933  1
  O  O285  1  0.01548100  0.13039951  0.51047908  1
  O  O286  1  0.00430328  0.61214494  0.01118412  1
  O  O287  1  -0.01375451  0.62370582  0.47965748  1
  O  O288  1  0.50705287  0.11370163  0.01036924  1
  O  O289  1  0.51003944  0.08922501  0.50153188  1
  O  O290  1  0.50589029  0.62100220  0.00144173  1
  O  O291  1  0.50288816  0.62341853  0.50821309  1
  O  O292  1  0.48303618  0.38658534  0.50348191  1
  O  O293  1  0.49037198  0.38490162  1.01103767  1
  O  O294  1  0.48056954  0.87657117  0.49216778  1
  O  O295  1  0.49197633  0.88154600  1.00070926  1
  O  O296  1  1.00254283  0.38393848  0.48561380  1
  O  O297  1  0.99929521  0.37971135  0.99395133  1
  O  O298  1  1.03152303  0.88008631  0.48239274  1
  O  O299  1  0.99598367  0.88612192  1.01656655  1
  O  O300  1  0.48530006  0.50827999  0.38827153  1
  O  O301  1  0.48317498  0.51257885  0.88896178  1
  O  O302  1  0.49948922  0.98249064  0.38708470  1
  O  O303  1  0.49077218  0.99040898  0.89297555  1
  O  O304  1  0.99723766  0.49276471  0.37735441  1
  O  O305  1  1.00165464  0.48891914  0.89187949  1
  O  O306  1  0.98779555  0.97140721  0.32584966  1
  O  O307  1  0.98698148  0.98899049  0.88440771  1
  O  O308  1  -0.00173770  0.01214257  0.12078603  1
  O  O309  1  0.01306226  0.00983882  0.62939621  1
  O  O310  1  0.00876950  0.50305461  0.12130715  1
  O  O311  1  -0.00676185  0.52448735  0.60854686  1
  O  O312  1  0.48837731  0.01138269  0.11352889  1
  O  O313  1  0.51201897  -0.02977448  0.61218694  1
  O  O314  1  0.49661898  0.50635242  0.11364657  1
  O  O315  1  0.49335171  0.51336800  0.61437953  1
  O  O316  1  0.25500185  0.37198093  0.23498927  1
  O  O317  1  0.26353212  0.35958844  0.73205102  1
  O  O318  1  0.24774109  0.88535160  0.24166371  1
  O  O319  1  0.25350827  0.86124651  0.73167436  1
  O  O320  1  0.74805287  0.38402924  0.24281052  1
  O  O321  1  0.70794616  0.33864186  0.76768269  1
  O  O322  1  0.73668944  0.88603395  0.25173765  1
  O  O323  1  0.71866055  0.92197360  0.72161677  1
  O  O324  1  0.25560728  0.10934645  0.24281048  1
  O  O325  1  0.29696131  0.12895685  0.72856458  1
  O  O326  1  0.26405265  0.62198067  0.26232981  1
  O  O327  1  0.26242574  0.63213725  0.75780888  1
  O  O328  1  0.76215455  0.12480095  0.24523711  1
  O  O329  1  0.71927288  0.11581375  0.75400669  1
  O  O330  1  0.73884663  0.61268068  0.26390822  1
  O  O331  1  0.73660890  0.62036093  0.76463427  1
  O  O332  1  0.38083999  0.10928840  0.36568430  1
  O  O333  1  0.37136766  0.10275106  0.89149499  1
  O  O334  1  0.36751695  0.61733209  0.36799867  1
  O  O335  1  0.37076695  0.62184231  0.86426683  1
  O  O336  1  0.88703952  0.13141596  0.36331886  1
  O  O337  1  0.87190265  0.10368029  0.87303794  1
  O  O338  1  0.85675606  0.63575972  0.37440740  1
  O  O339  1  0.85291920  0.63031234  0.87542597  1
  O  O340  1  0.13748892  0.37969799  0.12120822  1
  O  O341  1  0.13429822  0.37516503  0.62869110  1
  O  O342  1  0.13796818  0.86533571  0.12594075  1
  O  O343  1  0.13082650  0.88603901  0.62086433  1
  O  O344  1  0.63528143  0.36981383  0.14438892  1
  O  O345  1  0.61422206  0.37653802  0.64212388  1
  O  O346  1  0.62541403  0.86885110  0.14390428  1
  O  O347  1  0.65876932  0.92430044  0.68004008  1
  O  O348  1  0.11724386  0.25268499  0.24866437  1
  O  O349  1  0.14461583  0.19655635  0.81005375  1
  O  O350  1  0.14025026  0.75624037  0.25004111  1
  O  O351  1  0.14195458  0.75963112  0.77652087  1
  O  O352  1  0.62505537  0.26482383  0.26343122  1
  O  O353  1  0.64593507  0.27934103  0.76238900  1
  O  O354  1  0.62073024  0.73828486  0.26194060  1
  O  O355  1  0.61023818  0.74766117  0.76209391  1
  O  O356  1  0.36470803  0.23762307  0.24349308  1
  O  O357  1  0.39909957  0.25332719  0.71889367  1
  O  O358  1  0.37834058  0.73844117  0.25610723  1
  O  O359  1  0.38423654  0.73992726  0.75510252  1
  O  O360  1  0.88308045  0.24490985  0.25352747  1
  O  O361  1  0.87210325  0.25926397  0.72868597  1
  O  O362  1  0.89233336  0.75204756  0.24577677  1
  O  O363  1  0.85633299  0.75830942  0.74162003  1
  O  O364  1  0.37903149  0.49699432  0.49246768  1
  O  O365  1  0.38536277  0.49521323  0.99676427  1
  O  O366  1  0.36171968  0.98445843  0.48776746  1
  O  O367  1  0.37911979  0.98386274  0.99706671  1
  O  O368  1  0.89176179  0.48738753  0.50125231  1
  O  O369  1  0.89209397  0.49778152  1.00793183  1
  O  O370  1  0.85965599  0.98139796  0.47953809  1
  O  O371  1  0.88865134  1.00052945  1.00305993  1
  O  O372  1  0.10011380  0.01555808  -0.01010807  1
  O  O373  1  0.13310753  0.01615037  0.51333401  1
  O  O374  1  0.11475630  0.49782638  0.01069496  1
  O  O375  1  0.10536436  0.51295230  0.49413889  1
  O  O376  1  0.60863166  -0.00146058  0.00223231  1
  O  O377  1  0.62824035  -0.02509735  0.50098924  1
  O  O378  1  0.60836974  0.51438549  -0.00539764  1
  O  O379  1  0.61368525  0.50613892  0.50125427  1
  O  O380  1  0.36703410  0.36932117  0.12031796  1
  O  O381  1  0.36637572  0.37814776  0.60695350  1
  O  O382  1  0.37678464  0.87266241  0.11510616  1
  O  O383  1  0.35699983  0.87638123  0.60689328  1
  O  O384  1  0.85905718  0.37646449  0.12650239  1
  O  O385  1  0.88879277  0.36357694  0.60881355  1
  O  O386  1  0.86946142  0.88557893  0.14260302  1
  O  O387  1  0.88622283  0.85343350  0.61662142  1
  O  O388  1  0.11557028  0.11086953  0.38397512  1
  O  O389  1  0.13383127  0.13763235  0.85523867  1
  O  O390  1  0.14126534  0.63060037  0.36146236  1
  O  O391  1  0.14528602  0.61230505  0.87524177  1
  O  O392  1  0.61937095  0.14502491  0.37716178  1
  O  O393  1  0.62829062  0.12358491  0.89237226  1
  O  O394  1  0.62016346  0.63215129  0.38625478  1
  O  O395  1  0.63108709  0.63759953  0.88074116  1
