# generated using pymatgen
data_V35Zn35O128
_symmetry_space_group_name_H-M   'P 1'
_cell_length_a   16.86788185
_cell_length_b   16.86163356
_cell_length_c   16.83914738
_cell_angle_alpha   90.10734282
_cell_angle_beta   90.05564755
_cell_angle_gamma   89.99138969
_symmetry_Int_Tables_number   1
_chemical_formula_structural   V35Zn35O128
_chemical_formula_sum   'V70 Zn70 O256'
_cell_volume   4789.38029744
_cell_formula_units_Z   2
loop_
 _symmetry_equiv_pos_site_id
 _symmetry_equiv_pos_as_xyz
  1  'x, y, z'
loop_
 _atom_site_type_symbol
 _atom_site_label
 _atom_site_symmetry_multiplicity
 _atom_site_fract_x
 _atom_site_fract_y
 _atom_site_fract_z
 _atom_site_occupancy
  V  V0  1  0.34865740  0.87184186  0.51534882  1
  V  V1  1  0.24221484  0.13469580  0.39300286  1
  V  V2  1  0.87051094  0.00177705  0.38060516  1
  V  V3  1  0.24349347  0.63079778  0.87703542  1
  V  V4  1  0.25647807  0.50006080  0.25223709  1
  V  V5  1  0.49394024  0.86776020  0.88087264  1
  V  V6  1  0.25322298  0.01062645  0.74863967  1
  V  V7  1  0.63502741  0.25362918  0.88154328  1
  V  V8  1  0.00128041  0.37664347  0.87644893  1
  V  V9  1  0.48716282  0.49730449  0.51141485  1
  V  V10  1  0.24578649  0.75864584  -0.00652040  1
  V  V11  1  0.86620995  0.86475607  0.01011293  1
  V  V12  1  0.75466613  0.86471997  0.62087491  1
  V  V13  1  0.35676498  0.25374439  0.62953564  1
  V  V14  1  -0.00459446  0.49708856  0.49291026  1
  V  V15  1  0.25362976  0.01719031  0.24761641  1
  V  V16  1  0.01379593  0.74646826  0.22685941  1
  V  V17  1  0.00356481  0.00417828  -0.00208762  1
  V  V18  1  0.35862772  0.24069253  0.12777092  1
  V  V19  1  0.64287295  0.62403947  0.47114450  1
  V  V20  1  0.13883443  0.12467466  -0.01579694  1
  V  V21  1  0.13190913  0.51377220  0.11093373  1
  V  V22  1  0.52869652  0.62021152  0.13150585  1
  V  V23  1  0.38289027  0.64315582  0.74837284  1
  V  V24  1  0.51860292  0.50349787  0.00210398  1
  V  V25  1  0.75397954  0.49104257  0.74149118  1
  V  V26  1  0.37782222  0.00037431  0.36953341  1
  V  V27  1  0.86347675  0.25874923  0.62185819  1
  V  V28  1  0.62950845  0.00542861  0.63994040  1
  V  V29  1  0.87823955  0.64284046  0.73425327  1
  V  V30  1  0.62805446  0.74335212  0.89735618  1
  V  V31  1  0.88196975  0.63322736  0.29005613  1
  V  V32  1  0.37159840  0.01116543  0.87308906  1
  V  V33  1  0.12908085  0.86204215  0.75049335  1
  V  V34  1  0.86896375  0.36894227  0.00715751  1
  V  V35  1  0.62581174  0.12581791  0.49210580  1
  V  V36  1  0.35958270  0.36677187  0.49797438  1
  V  V37  1  0.49701476  0.01234547  0.00044919  1
  V  V38  1  0.87224297  0.00107534  0.87435679  1
  V  V39  1  0.48973281  0.38539806  0.36399861  1
  V  V40  1  0.26353885  0.88007864  0.12842650  1
  V  V41  1  0.75462976  0.62407047  0.87964301  1
  V  V42  1  0.01377618  0.86984430  0.37024888  1
  V  V43  1  0.49194084  0.12880210  0.63302996  1
  V  V44  1  0.37683899  0.50440607  0.87437032  1
  V  V45  1  0.50140768  0.37794684  0.86754071  1
  V  V46  1  0.00191903  0.86304812  0.86810495  1
  V  V47  1  0.88711743  0.12283229  0.23556143  1
  V  V48  1  0.62424208  0.25399124  0.37088970  1
  V  V49  1  0.00228953  0.51359050  -0.00220706  1
  V  V50  1  0.25559353  0.25117579  -0.02247218  1
  V  V51  1  0.00132285  0.24560272  0.76787337  1
  V  V52  1  0.05218957  0.17743261  0.57445663  1
  V  V53  1  0.74693638  0.12238884  0.89515339  1
  V  V54  1  0.62361280  0.85691642  0.74942625  1
  V  V55  1  0.75062570  -0.00267728  0.24165937  1
  V  V56  1  0.62206227  0.86641864  0.25979566  1
  V  V57  1  0.12315684  -0.00178588  0.12816045  1
  V  V58  1  0.11881066  0.35912346  0.24047212  1
  V  V59  1  -0.00824755  0.36115635  0.36831118  1
  V  V60  1  0.49875239  -0.01018711  0.49947817  1
  V  V61  1  0.50382861  0.64631064  0.62569904  1
  V  V62  1  0.49244637  0.22640184  0.24602601  1
  V  V63  1  0.12138517  -0.00053451  0.62527386  1
  V  V64  1  0.38169728  0.73478083  0.12475102  1
  V  V65  1  0.62367345  0.00289861  0.11493301  1
  V  V66  1  -0.00016061  -0.00153453  0.50380425  1
  V  V67  1  0.14196665  0.47335181  0.62083718  1
  V  V68  1  0.86683871  0.12205605  0.74466901  1
  V  V69  1  0.23390914  0.63942175  0.36405517  1
  Zn  Zn70  1  0.91481983  0.27919374  0.14841519  1
  Zn  Zn71  1  0.25753481  0.37645128  0.11413636  1
  Zn  Zn72  1  0.48584359  0.76544510  0.27635528  1
  Zn  Zn73  1  0.62977695  0.49001228  0.62555953  1
  Zn  Zn74  1  0.49679114  0.25546081  0.75122183  1
  Zn  Zn75  1  0.74964302  0.25786768  0.50360099  1
  Zn  Zn76  1  0.06533903  0.17814938  0.16781214  1
  Zn  Zn77  1  0.18689958  0.18989871  0.70407708  1
  Zn  Zn78  1  0.19322595  0.69011150  0.18408515  1
  Zn  Zn79  1  0.17825130  0.66402926  0.70118213  1
  Zn  Zn80  1  0.68449998  0.17546488  0.19400240  1
  Zn  Zn81  1  0.68464413  0.19230776  0.69981104  1
  Zn  Zn82  1  0.67118145  0.65834096  0.26304442  1
  Zn  Zn83  1  0.69194989  0.67781231  0.68216661  1
  Zn  Zn84  1  0.30615787  0.31068885  0.30562999  1
  Zn  Zn85  1  0.30608885  0.32737423  0.80474008  1
  Zn  Zn86  1  0.31177798  0.82095681  0.31268365  1
  Zn  Zn87  1  0.31256655  0.81761456  0.80757254  1
  Zn  Zn88  1  0.81195996  0.30501265  0.30799585  1
  Zn  Zn89  1  0.82002332  0.31259862  0.81775702  1
  Zn  Zn90  1  0.83252155  0.82405764  0.29282577  1
  Zn  Zn91  1  0.80636881  0.81394107  0.81275235  1
  Zn  Zn92  1  0.17633206  0.43196276  0.42464198  1
  Zn  Zn93  1  0.18881876  0.42916014  0.91739502  1
  Zn  Zn94  1  0.18710008  0.94745587  0.43670393  1
  Zn  Zn95  1  0.18936164  0.93306765  0.93537985  1
  Zn  Zn96  1  0.66491599  0.43623206  0.44388318  1
  Zn  Zn97  1  0.68983617  0.43720053  0.92271870  1
  Zn  Zn98  1  0.68973061  0.93988167  0.43693417  1
  Zn  Zn99  1  0.68688411  0.93303995  0.93565674  1
  Zn  Zn100  1  0.31733169  0.06807980  0.06210080  1
  Zn  Zn101  1  0.31160232  0.06074952  0.56476923  1
  Zn  Zn102  1  0.31441633  0.56107455  0.05241022  1
  Zn  Zn103  1  0.31418793  0.56325384  0.56951853  1
  Zn  Zn104  1  0.81368666  0.05113160  0.06234311  1
  Zn  Zn105  1  0.80718452  0.06307107  0.56192605  1
  Zn  Zn106  1  0.78943564  0.52437370  0.03653022  1
  Zn  Zn107  1  0.82056588  0.55789944  0.56217308  1
  Zn  Zn108  1  0.43482611  0.43476067  0.17206144  1
  Zn  Zn109  1  0.42338060  0.43840584  0.69022959  1
  Zn  Zn110  1  0.44321976  0.93732803  0.18649306  1
  Zn  Zn111  1  0.44164994  0.93234113  0.69106300  1
  Zn  Zn112  1  0.94355889  0.45907811  0.18666156  1
  Zn  Zn113  1  0.93495076  0.44566710  0.68867784  1
  Zn  Zn114  1  0.94234287  0.93141279  0.18901999  1
  Zn  Zn115  1  0.93685004  0.93657682  0.68882329  1
  Zn  Zn116  1  0.06316223  0.06548147  0.31817293  1
  Zn  Zn117  1  0.05779593  0.05914559  0.80890907  1
  Zn  Zn118  1  0.06450481  0.55803248  0.30902488  1
  Zn  Zn119  1  0.04960515  0.57091022  0.81913653  1
  Zn  Zn120  1  0.56397787  0.05553290  0.31284781  1
  Zn  Zn121  1  0.56094267  0.06724298  0.81903826  1
  Zn  Zn122  1  0.51722106  0.59143783  0.33592394  1
  Zn  Zn123  1  0.56884560  0.56294769  0.80441176  1
  Zn  Zn124  1  0.43468850  0.18577737  0.43820171  1
  Zn  Zn125  1  0.43378376  0.18959677  0.93639056  1
  Zn  Zn126  1  0.42099096  0.69438211  0.45006457  1
  Zn  Zn127  1  0.44034929  0.68494823  0.94899230  1
  Zn  Zn128  1  0.93159519  0.18772829  0.42896818  1
  Zn  Zn129  1  0.93356220  0.19133595  0.96038506  1
  Zn  Zn130  1  0.96540713  0.68924538  0.46759927  1
  Zn  Zn131  1  0.93489124  0.68674587  0.93446819  1
  Zn  Zn132  1  0.07261548  0.31950319  0.05062094  1
  Zn  Zn133  1  0.04985699  0.34435166  0.57585208  1
  Zn  Zn134  1  0.06700832  0.81811345  0.05758275  1
  Zn  Zn135  1  0.04585029  0.81995558  0.57764915  1
  Zn  Zn136  1  0.53494831  0.30086073  0.04830950  1
  Zn  Zn137  1  0.55317537  0.31094562  0.55745720  1
  Zn  Zn138  1  0.56309916  0.81893164  0.07131606  1
  Zn  Zn139  1  0.58436175  0.80914095  0.55102592  1
  O  O140  1  0.12958871  0.10362129  0.10482220  1
  O  O141  1  0.11659502  0.11889353  0.63416393  1
  O  O142  1  0.14180650  0.61335612  0.11222287  1
  O  O143  1  0.10334198  0.58322886  0.66399838  1
  O  O144  1  0.62433917  0.10343189  0.12964313  1
  O  O145  1  0.61509022  0.11799124  0.62116273  1
  O  O146  1  0.62623319  0.62891765  0.15001421  1
  O  O147  1  0.60735586  0.62245899  0.61794736  1
  O  O148  1  0.38438645  0.36465797  0.38557723  1
  O  O149  1  0.38790935  0.39533732  0.87097171  1
  O  O150  1  0.36381857  0.89347658  0.39266396  1
  O  O151  1  0.39162525  0.88055627  0.86908177  1
  O  O152  1  0.89044064  0.37423939  0.34899249  1
  O  O153  1  0.88345343  0.37099099  0.89538997  1
  O  O154  1  0.89093793  0.89595669  0.36852719  1
  O  O155  1  0.88384884  0.88333405  0.87398989  1
  O  O156  1  0.25865835  0.00900446  0.36691491  1
  O  O157  1  0.26579542  -0.00663769  0.87009646  1
  O  O158  1  0.24165316  0.50056797  0.35422238  1
  O  O159  1  0.26986019  0.52190677  0.88938058  1
  O  O160  1  0.76482593  -0.00244282  0.36730583  1
  O  O161  1  0.75864953  0.01123874  0.88221879  1
  O  O162  1  0.75813527  0.47718063  0.37457435  1
  O  O163  1  0.74048766  0.51799676  0.85858876  1
  O  O164  1  0.24656459  0.49625675  0.12066055  1
  O  O165  1  0.23980772  0.50411591  0.62693490  1
  O  O166  1  0.25070385  0.99614661  0.12674605  1
  O  O167  1  0.24089153  1.00610412  0.64045717  1
  O  O168  1  0.74339186  0.50554354  0.15051878  1
  O  O169  1  0.74908874  0.50186534  0.63451180  1
  O  O170  1  0.73882678  0.99525770  0.13230847  1
  O  O171  1  0.73087454  0.99926312  0.62453915  1
  O  O172  1  0.01145112  0.38030171  0.24492732  1
  O  O173  1  -0.01481577  0.36045897  0.76704806  1
  O  O174  1  -0.00079153  0.86033786  0.25988989  1
  O  O175  1  0.00940253  0.87997346  0.76016152  1
  O  O176  1  0.49274481  0.38534218  0.26368240  1
  O  O177  1  0.50023102  0.38178867  0.76311298  1
  O  O178  1  0.51304950  0.87690124  0.25410411  1
  O  O179  1  0.51516682  0.88386867  0.76616662  1
  O  O180  1  0.49538163  0.12727068  0.25230334  1
  O  O181  1  0.49701921  0.11968487  0.73513742  1
  O  O182  1  0.49254371  0.60477001  0.22480698  1
  O  O183  1  0.49609171  0.62773556  0.73540452  1
  O  O184  1  0.99384889  0.11746518  0.24144060  1
  O  O185  1  0.98154764  0.13546705  0.76278304  1
  O  O186  1  1.00154391  0.64349106  0.25769627  1
  O  O187  1  0.97676831  0.63169259  0.76234509  1
  O  O188  1  0.36146168  0.24180908  0.00761007  1
  O  O189  1  0.38139602  0.25981947  0.51293137  1
  O  O190  1  0.37178766  0.75111583  0.01751311  1
  O  O191  1  0.36250425  0.77240768  0.50118051  1
  O  O192  1  0.86196781  0.26643562  0.01308213  1
  O  O193  1  0.86730298  0.23687995  0.51542435  1
  O  O194  1  0.88218762  0.76600769  -0.00406814  1
  O  O195  1  0.80640149  0.75284726  0.45898275  1
  O  O196  1  0.10707553  0.24400195  0.52783643  1
  O  O197  1  0.14188987  0.23205649  0.99785469  1
  O  O198  1  0.15757450  0.73488645  0.53995257  1
  O  O199  1  0.14624203  0.75274695  1.00308636  1
  O  O200  1  0.61243292  0.23674400  0.48709701  1
  O  O201  1  0.60859402  0.24547589  0.98017468  1
  O  O202  1  0.62129721  0.72193972  0.48793635  1
  O  O203  1  0.62658706  0.75391364  0.99635745  1
  O  O204  1  0.50978930  0.25474503  0.14643983  1
  O  O205  1  0.50040666  0.23806387  0.62958358  1
  O  O206  1  0.49519874  0.73358150  0.12298840  1
  O  O207  1  0.50393908  0.74426824  0.61368022  1
  O  O208  1  1.00354557  0.23913689  0.09433347  1
  O  O209  1  0.98781785  0.24237103  0.63425164  1
  O  O210  1  1.00387078  0.75241838  0.12624230  1
  O  O211  1  0.97146749  0.74324032  0.56527536  1
  O  O212  1  -0.00387738  0.25856646  0.36713674  1
  O  O213  1  -0.01464633  0.25195418  0.87181698  1
  O  O214  1  0.00802070  0.77218468  0.39131950  1
  O  O215  1  0.00018281  0.76492896  0.87514985  1
  O  O216  1  0.49954900  0.25523806  0.36154456  1
  O  O217  1  0.49197046  0.26900563  0.87549157  1
  O  O218  1  0.48871709  0.69827996  0.36358633  1
  O  O219  1  0.51008797  0.76142832  0.88533611  1
  O  O220  1  0.24703714  0.12012702  0.49391004  1
  O  O221  1  0.24458139  0.12650582  0.99224492  1
  O  O222  1  0.27566846  0.61696386  0.47077371  1
  O  O223  1  0.25946623  0.64188685  0.98555231  1
  O  O224  1  0.72815513  0.12951331  0.50591613  1
  O  O225  1  0.75491842  0.12581469  0.99500555  1
  O  O226  1  0.73840857  0.60928602  0.49396185  1
  O  O227  1  0.74861787  0.61381373  0.98086824  1
  O  O228  1  0.24316656  0.35344453  -0.00567299  1
  O  O229  1  0.26281372  0.37277782  0.48373476  1
  O  O230  1  0.25647931  0.86591036  0.00333905  1
  O  O231  1  0.24900604  0.88835125  0.51246280  1
  O  O232  1  0.76991013  0.41027843  0.00226100  1
  O  O233  1  0.70702944  0.36852253  0.52867236  1
  O  O234  1  0.76684166  0.87790369  -0.00653477  1
  O  O235  1  0.73295688  0.88146674  0.52134187  1
  O  O236  1  0.13454117  0.49820819  0.22728810  1
  O  O237  1  0.10885448  0.52081701  0.72395575  1
  O  O238  1  0.13423974  1.00759790  0.23261983  1
  O  O239  1  0.13286212  0.99642575  0.74427771  1
  O  O240  1  0.74953444  0.45937380  0.30239492  1
  O  O241  1  0.64088297  0.50225006  0.74201183  1
  O  O242  1  0.63744717  0.99650926  0.24679555  1
  O  O243  1  0.62166074  1.00331992  0.74073385  1
  O  O244  1  0.37397511  -0.00564827  0.26453697  1
  O  O245  1  0.36259476  -0.00743359  0.75766033  1
  O  O246  1  0.35548301  0.49123750  0.23720617  1
  O  O247  1  0.38184258  0.51539244  0.76565855  1
  O  O248  1  0.86796179  0.00173498  0.25158548  1
  O  O249  1  0.88153365  0.01364971  0.76224811  1
  O  O250  1  0.89159985  0.53912201  0.24555210  1
  O  O251  1  0.86294994  0.51456348  0.74483600  1
  O  O252  1  0.11734092  0.36950665  0.34821522  1
  O  O253  1  0.09786158  0.35526797  0.89051127  1
  O  O254  1  0.11240427  0.89288145  0.37108825  1
  O  O255  1  0.11281444  0.87943379  0.86359687  1
  O  O256  1  0.60281104  0.36192390  0.37831594  1
  O  O257  1  0.61686624  0.36253112  0.87386514  1
  O  O258  1  0.62913501  0.88330216  0.36019020  1
  O  O259  1  0.62249515  0.86241134  0.86646834  1
  O  O260  1  0.38323803  0.14042062  0.12071624  1
  O  O261  1  0.38536483  0.13762158  0.61830973  1
  O  O262  1  0.36743589  0.63594708  0.12788504  1
  O  O263  1  0.38480744  0.62433005  0.63951978  1
  O  O264  1  0.87798979  0.11152656  0.13490269  1
  O  O265  1  0.86866583  0.12298910  0.64134837  1
  O  O266  1  0.83192304  0.65467234  0.11769223  1
  O  O267  1  0.87229778  0.63137522  0.63273264  1
  O  O268  1  0.25871093  0.24418784  0.12288644  1
  O  O269  1  0.25857119  0.24069689  0.63017842  1
  O  O270  1  0.26120381  0.76341699  0.11810997  1
  O  O271  1  0.21160184  0.71405781  0.58788674  1
  O  O272  1  0.73244608  0.27801596  0.15159139  1
  O  O273  1  0.75966575  0.24349543  0.63036074  1
  O  O274  1  0.78123566  0.70671880  0.11664030  1
  O  O275  1  0.73831777  0.76480067  0.62425236  1
  O  O276  1  0.26292605  0.23216153  0.37452020  1
  O  O277  1  0.26553792  0.24459941  0.87901076  1
  O  O278  1  0.24712914  0.73937134  0.35801910  1
  O  O279  1  0.25966155  0.74696104  0.88493789  1
  O  O280  1  0.72903767  0.26589587  0.38053256  1
  O  O281  1  0.74118277  0.24289136  0.87889283  1
  O  O282  1  0.76726230  0.76946696  0.39916082  1
  O  O283  1  0.73373258  0.74230275  0.87392733  1
  O  O284  1  0.00928435  0.10922347  -0.00567387  1
  O  O285  1  -0.00007460  0.12093599  0.50298607  1
  O  O286  1  0.00960290  0.61191814  -0.02273409  1
  O  O287  1  0.02112227  0.59352400  0.50387401  1
  O  O288  1  0.50440084  0.11113912  -0.01135367  1
  O  O289  1  0.50669549  0.11720645  0.51084579  1
  O  O290  1  0.50891789  0.61574565  0.01569763  1
  O  O291  1  0.48100631  0.60918303  0.51746951  1
  O  O292  1  0.49171156  0.38392246  0.49123479  1
  O  O293  1  0.50310379  0.39153995  0.98686423  1
  O  O294  1  0.51283774  0.89060844  0.50305581  1
  O  O295  1  0.50802083  0.88663070  0.98499654  1
  O  O296  1  1.00049325  0.37179262  0.47408160  1
  O  O297  1  0.98781075  0.38172679  0.99328601  1
  O  O298  1  1.00172530  0.89410437  0.49123939  1
  O  O299  1  0.99841903  0.88405843  0.98489761  1
  O  O300  1  0.49379887  0.49081456  0.38879820  1
  O  O301  1  0.50198006  0.49682992  0.87963250  1
  O  O302  1  0.48914146  1.00508135  0.38799418  1
  O  O303  1  0.49454488  0.99319069  0.88163929  1
  O  O304  1  1.01309469  0.48481485  0.38329771  1
  O  O305  1  1.00873031  0.48503336  0.88300824  1
  O  O306  1  0.99470113  0.99912409  0.38423716  1
  O  O307  1  0.98994167  0.99403788  0.88048352  1
  O  O308  1  0.01744469  -0.01399256  0.11532637  1
  O  O309  1  0.00531847  -0.00058424  0.61788252  1
  O  O310  1  0.02053598  0.50677563  0.10808254  1
  O  O311  1  0.01262848  0.45798226  0.60569144  1
  O  O312  1  0.50589702  -0.00213945  0.10856464  1
  O  O313  1  0.50633364  0.00929162  0.61721084  1
  O  O314  1  0.50709498  0.50320713  0.11071836  1
  O  O315  1  0.50359396  0.48724613  0.61569538  1
  O  O316  1  0.23823271  0.38268626  0.24404988  1
  O  O317  1  0.22463426  0.40235458  0.80912376  1
  O  O318  1  0.25380767  0.88797430  0.23267580  1
  O  O319  1  0.23361333  0.88541529  0.75734601  1
  O  O320  1  0.74019931  0.33188141  0.20678896  1
  O  O321  1  0.76008725  0.39136201  0.76085062  1
  O  O322  1  0.74545688  0.88738651  0.25130812  1
  O  O323  1  0.72946139  0.87566663  0.74364156  1
  O  O324  1  0.25932248  0.11458505  0.25451326  1
  O  O325  1  0.24721182  0.10957547  0.76003115  1
  O  O326  1  0.24789817  0.61399180  0.25527412  1
  O  O327  1  0.26942470  0.63503001  0.76539101  1
  O  O328  1  0.76151389  0.10619620  0.24742474  1
  O  O329  1  0.76423437  0.12983917  0.76575336  1
  O  O330  1  0.78010899  0.64579651  0.28024928  1
  O  O331  1  0.75767858  0.62077165  0.75463134  1
  O  O332  1  0.36599080  0.10628253  0.38725219  1
  O  O333  1  0.38384182  0.10958063  0.86669734  1
  O  O334  1  0.33870046  0.61215765  0.41183624  1
  O  O335  1  0.38502180  0.62437910  0.86395876  1
  O  O336  1  0.88298389  0.10903342  0.35626615  1
  O  O337  1  0.86479279  0.11962778  0.87873807  1
  O  O338  1  0.89900579  0.63491123  0.39008234  1
  O  O339  1  0.85702686  0.63456395  0.86693143  1
  O  O340  1  0.13254775  0.38349052  0.12773949  1
  O  O341  1  0.14279311  0.37450857  0.64282604  1
  O  O342  1  0.14531686  0.89162331  0.11134223  1
  O  O343  1  0.11486797  0.88471608  0.64039238  1
  O  O344  1  0.67934376  0.46828340  0.15539997  1
  O  O345  1  0.64773789  0.37064070  0.59275696  1
  O  O346  1  0.61946568  0.89162609  0.14131206  1
  O  O347  1  0.62051704  0.88692500  0.63754783  1
  O  O348  1  0.12181351  0.25998902  0.22999964  1
  O  O349  1  0.10070280  0.24218754  0.75482010  1
  O  O350  1  0.11511041  0.75159121  0.23972301  1
  O  O351  1  0.13165864  0.76266277  0.74143594  1
  O  O352  1  0.61304244  0.23647330  0.26680748  1
  O  O353  1  0.61107759  0.23686395  0.77444284  1
  O  O354  1  0.62491721  0.76405185  0.25193322  1
  O  O355  1  0.61894286  0.75736780  0.74824701  1
  O  O356  1  0.38590990  0.24836779  0.24143916  1
  O  O357  1  0.37570039  0.26494659  0.73413791  1
  O  O358  1  0.37805315  0.76725298  0.22847902  1
  O  O359  1  0.38168791  0.74348327  0.75151904  1
  O  O360  1  0.86918006  0.22812505  0.24162222  1
  O  O361  1  0.87927710  0.23979190  0.74219480  1
  O  O362  1  0.89759593  0.74131980  0.25577487  1
  O  O363  1  0.86551006  0.74414195  0.74737929  1
  O  O364  1  0.38108831  0.48168442  0.51139712  1
  O  O365  1  0.39508864  0.51413223  0.98241610  1
  O  O366  1  0.38747382  0.99239838  0.50015440  1
  O  O367  1  0.38664453  1.00329980  0.98706529  1
  O  O368  1  0.89383663  0.49587818  0.50209729  1
  O  O369  1  0.89937905  0.50308190  1.00858010  1
  O  O370  1  0.88038300  1.01253681  0.48795048  1
  O  O371  1  0.88523455  0.99118746  0.99172075  1
  O  O372  1  0.12291977  0.00424215  0.00020313  1
  O  O373  1  0.11635086  0.00240088  0.51633902  1
  O  O374  1  0.12268931  0.48874742  0.00287935  1
  O  O375  1  0.12501200  0.47815813  0.51410353  1
  O  O376  1  0.61815065  -0.00480032  0.00814070  1
  O  O377  1  0.61440742  0.01200415  0.50250106  1
  O  O378  1  0.61818079  0.50118346  -0.00835875  1
  O  O379  1  0.60517177  0.51743780  0.49997148  1
  O  O380  1  0.37569351  0.35169982  0.12068807  1
  O  O381  1  0.37084174  0.36377466  0.61375750  1
  O  O382  1  0.36601038  0.88202844  0.11826858  1
  O  O383  1  0.37597242  0.88507598  0.61311680  1
  O  O384  1  0.88461427  0.38562069  0.11599409  1
  O  O385  1  0.87459376  0.35624052  0.62935925  1
  O  O386  1  0.87806353  0.88040181  0.10998679  1
  O  O387  1  0.85298140  0.88530776  0.63385893  1
  O  O388  1  0.14307784  0.12101126  0.37298839  1
  O  O389  1  0.12465529  0.11500714  0.88527585  1
  O  O390  1  0.13590073  0.62349056  0.37786303  1
  O  O391  1  0.14550398  0.62239085  0.86323644  1
  O  O392  1  0.61808944  0.13187760  0.38560293  1
  O  O393  1  0.64163570  0.12650779  0.87760222  1
  O  O394  1  0.63330996  0.60822755  0.36565443  1
  O  O395  1  0.62486034  0.64141600  0.87225665  1
