# generated using pymatgen
data_V35Zn35O128
_symmetry_space_group_name_H-M   'P 1'
_cell_length_a   16.90272589
_cell_length_b   16.95182628
_cell_length_c   16.90871945
_cell_angle_alpha   90.11395853
_cell_angle_beta   90.20697497
_cell_angle_gamma   89.60438761
_symmetry_Int_Tables_number   1
_chemical_formula_structural   V35Zn35O128
_chemical_formula_sum   'V70 Zn70 O256'
_cell_volume   4844.73398819
_cell_formula_units_Z   2
loop_
 _symmetry_equiv_pos_site_id
 _symmetry_equiv_pos_as_xyz
  1  'x, y, z'
loop_
 _atom_site_type_symbol
 _atom_site_label
 _atom_site_symmetry_multiplicity
 _atom_site_fract_x
 _atom_site_fract_y
 _atom_site_fract_z
 _atom_site_occupancy
  V  V0  1  0.12645825  0.25476710  0.86980584  1
  V  V1  1  0.89336514  0.13148246  0.24277654  1
  V  V2  1  0.88901972  0.37839116  0.48736718  1
  V  V3  1  0.36212988  0.36808177  0.49500535  1
  V  V4  1  0.63214818  0.38154220  0.23534164  1
  V  V5  1  0.86248079  0.12405322  0.75206686  1
  V  V6  1  0.01267907  0.87163208  0.86777283  1
  V  V7  1  0.74377286  0.49567356  0.72891414  1
  V  V8  1  0.74567974  0.25814405  0.49836769  1
  V  V9  1  0.37300082  -0.00182552  0.88368265  1
  V  V10  1  0.61321081  0.87322861  0.24770449  1
  V  V11  1  0.50655392  -0.00266655  0.00399282  1
  V  V12  1  0.15835591  0.12591670  0.50004720  1
  V  V13  1  0.73745968  -0.00171164  0.73794238  1
  V  V14  1  0.63343714  0.12975970  -0.00071401  1
  V  V15  1  0.39287667  0.87028356  0.48577501  1
  V  V16  1  0.25094666  0.01256380  0.25842147  1
  V  V17  1  -0.01098415  0.75962543  0.25392908  1
  V  V18  1  0.74680596  0.00067020  0.24077545  1
  V  V19  1  0.48193400  0.24477647  0.24454446  1
  V  V20  1  0.25297572  0.24859472  0.01294189  1
  V  V21  1  -0.00289785  0.24919585  0.74947301  1
  V  V22  1  0.10832533  0.37481698  0.25215027  1
  V  V23  1  0.25182682  0.86087237  0.61800587  1
  V  V24  1  -0.01613734  0.37816589  0.87186305  1
  V  V25  1  0.12842499  0.00700550  0.12654433  1
  V  V26  1  0.62350277  0.24722644  0.36670694  1
  V  V27  1  0.23906116  0.35977944  0.62067658  1
  V  V28  1  0.53750253  0.53502952  0.01454986  1
  V  V29  1  0.86671974  0.00256406  0.87439859  1
  V  V30  1  0.00454664  0.87967167  0.38611827  1
  V  V31  1  0.38323325  0.00951549  0.37375735  1
  V  V32  1  0.86224533  0.25360866  0.62562004  1
  V  V33  1  0.48659818  0.13057021  0.12159814  1
  V  V34  1  0.37318796  0.38877561  -0.00503325  1
  V  V35  1  0.24663323  0.39203723  0.13640526  1
  V  V36  1  0.39254550  0.62175071  0.76321585  1
  V  V37  1  0.13259683  0.63177684  -0.02773767  1
  V  V38  1  0.00247911  0.00495951  0.00433680  1
  V  V39  1  0.85859623  0.62981135  0.75847011  1
  V  V40  1  0.62244817  0.86183243  0.74276635  1
  V  V41  1  0.00162374  0.50055792  -0.00137278  1
  V  V42  1  0.50323900  0.86854570  0.87233950  1
  V  V43  1  -0.00330830  0.12171585  0.61548459  1
  V  V44  1  0.25340498  -0.00709964  0.74551973  1
  V  V45  1  0.37740463  0.14110329  0.74681358  1
  V  V46  1  0.87963263  0.87666630  0.00189303  1
  V  V47  1  0.37310716  0.76929295  0.12414118  1
  V  V48  1  0.38151728  0.62214893  0.24208381  1
  V  V49  1  0.61699296  0.11160991  0.50123794  1
  V  V50  1  0.74052592  0.75091803  -0.00826286  1
  V  V51  1  0.00992554  0.74257131  0.75068943  1
  V  V52  1  0.87521348  -0.01174956  0.38707335  1
  V  V53  1  0.35083473  0.49586930  0.36602577  1
  V  V54  1  0.12686019  0.24766259  0.37022442  1
  V  V55  1  0.61957994  0.26381229  0.87299881  1
  V  V56  1  0.25314471  0.76123309  -0.00986002  1
  V  V57  1  0.49629780  0.38304064  0.37081896  1
  V  V58  1  0.76265127  0.61023726  0.38733236  1
  V  V59  1  0.88158421  0.60546670  0.25370306  1
  V  V60  1  0.24419838  0.64935328  0.38161529  1
  V  V61  1  0.86897877  0.75446221  0.61857699  1
  V  V62  1  0.01599430  0.63021555  0.12651510  1
  V  V63  1  0.12194357  -0.00323490  0.62615313  1
  V  V64  1  0.74252642  0.88034684  0.12086144  1
  V  V65  1  0.75213780  0.12338679  0.37109759  1
  V  V66  1  0.76421943  0.26418626  0.01038483  1
  V  V67  1  0.60142278  0.60004942  0.49016169  1
  V  V68  1  0.40856402  0.75066968  0.62436805  1
  V  V69  1  0.13410728  0.86849476  0.24603557  1
  Zn  Zn70  1  0.11682252  0.49644709  0.63017426  1
  Zn  Zn71  1  0.87905161  0.74931296  0.12030010  1
  Zn  Zn72  1  0.24558287  0.12445128  0.87495966  1
  Zn  Zn73  1  0.25272365  0.50121750  0.74583169  1
  Zn  Zn74  1  0.49742335  0.12665849  0.62696669  1
  Zn  Zn75  1  0.12006304  0.12922784  0.00210102  1
  Zn  Zn76  1  0.18277295  0.18738924  0.19058686  1
  Zn  Zn77  1  0.18980568  0.18066788  0.68886964  1
  Zn  Zn78  1  0.20468131  0.69469815  0.19069736  1
  Zn  Zn79  1  0.18627285  0.65847661  0.77505431  1
  Zn  Zn80  1  0.68053895  0.18520954  0.17960383  1
  Zn  Zn81  1  0.64904046  0.21285594  0.67090367  1
  Zn  Zn82  1  0.73820079  0.73866171  0.25815113  1
  Zn  Zn83  1  0.68498071  0.68546682  0.66679881  1
  Zn  Zn84  1  0.30011181  0.30275973  0.31387971  1
  Zn  Zn85  1  0.30573083  0.32600763  0.81139661  1
  Zn  Zn86  1  0.31853675  0.81063527  0.30805406  1
  Zn  Zn87  1  0.32282721  0.80623186  0.80639275  1
  Zn  Zn88  1  0.81631544  0.31526117  0.30623602  1
  Zn  Zn89  1  0.79143757  0.31140855  0.82304787  1
  Zn  Zn90  1  0.76364493  0.76085675  0.48014749  1
  Zn  Zn91  1  0.81152904  0.81586507  0.81069563  1
  Zn  Zn92  1  0.17584295  0.43429116  0.43712213  1
  Zn  Zn93  1  0.18223793  0.43709857  0.93645292  1
  Zn  Zn94  1  0.18922039  0.93701660  0.44014688  1
  Zn  Zn95  1  0.18894050  0.93561070  0.93831938  1
  Zn  Zn96  1  0.68621295  0.44043408  0.43088625  1
  Zn  Zn97  1  0.67630967  0.42666633  0.97186906  1
  Zn  Zn98  1  0.68293091  0.92843526  0.43126707  1
  Zn  Zn99  1  0.68448078  0.93648364  0.93232653  1
  Zn  Zn100  1  0.30588269  0.06254316  0.06357634  1
  Zn  Zn101  1  0.34323045  0.05313134  0.57063344  1
  Zn  Zn102  1  0.30289455  0.56369482  0.06310566  1
  Zn  Zn103  1  0.27768831  0.59998273  0.60188638  1
  Zn  Zn104  1  0.82150660  0.07172899  0.06271996  1
  Zn  Zn105  1  0.80345954  0.06704719  0.56365375  1
  Zn  Zn106  1  0.83277085  0.57847640  0.05119172  1
  Zn  Zn107  1  0.83119285  0.56137619  0.57305738  1
  Zn  Zn108  1  0.43666522  0.43971871  0.17741926  1
  Zn  Zn109  1  0.42290322  0.43890155  0.67752906  1
  Zn  Zn110  1  0.42929226  0.94377305  0.18375665  1
  Zn  Zn111  1  0.44309792  0.94249941  0.68562519  1
  Zn  Zn112  1  0.95763937  0.43933798  0.18492594  1
  Zn  Zn113  1  0.92344295  0.43825722  0.68387433  1
  Zn  Zn114  1  0.93665127  0.94776250  0.19069440  1
  Zn  Zn115  1  0.93060425  0.93593059  0.69113380  1
  Zn  Zn116  1  0.06648851  0.06030812  0.32443155  1
  Zn  Zn117  1  0.05999866  0.06443576  0.81267218  1
  Zn  Zn118  1  0.10554572  0.58571268  0.27616845  1
  Zn  Zn119  1  0.03709075  0.54017480  0.77371601  1
  Zn  Zn120  1  0.56278759  0.06047963  0.30647561  1
  Zn  Zn121  1  0.55993187  0.07124861  0.81904959  1
  Zn  Zn122  1  0.56839625  0.56761641  0.30977849  1
  Zn  Zn123  1  0.54670443  0.52086074  0.81125039  1
  Zn  Zn124  1  0.43347551  0.18710796  0.43160460  1
  Zn  Zn125  1  0.43677258  0.19113242  0.92897378  1
  Zn  Zn126  1  0.39262769  0.64561696  0.48099203  1
  Zn  Zn127  1  0.44019148  0.68433701  0.94762914  1
  Zn  Zn128  1  0.93424941  0.19037541  0.43226607  1
  Zn  Zn129  1  0.93631342  0.18628902  0.93421992  1
  Zn  Zn130  1  0.94039822  0.68637102  0.43189948  1
  Zn  Zn131  1  0.93688410  0.68828989  0.93396089  1
  Zn  Zn132  1  0.07088578  0.32331530  0.05554267  1
  Zn  Zn133  1  0.06307722  0.30116207  0.55968488  1
  Zn  Zn134  1  0.07058353  0.81401158  0.06283034  1
  Zn  Zn135  1  0.02958212  0.83588437  0.58982076  1
  Zn  Zn136  1  0.55691319  0.31038009  0.05867585  1
  Zn  Zn137  1  0.53892262  0.30073902  0.55320415  1
  Zn  Zn138  1  0.56029432  0.80760133  0.06988006  1
  Zn  Zn139  1  0.58556412  0.82949486  0.55185488  1
  O  O140  1  0.12112555  0.11049054  0.12542636  1
  O  O141  1  0.11856935  0.11878524  0.61606348  1
  O  O142  1  0.11542546  0.62273546  0.15483512  1
  O  O143  1  0.13112218  0.67569065  0.55550370  1
  O  O144  1  0.60616508  0.12779740  0.10795776  1
  O  O145  1  0.63462286  0.11574293  0.60190092  1
  O  O146  1  0.73183698  0.50717332  0.15629947  1
  O  O147  1  0.63540593  0.65892659  0.56770944  1
  O  O148  1  0.37954890  0.37775079  0.36472682  1
  O  O149  1  0.35747770  0.38152224  0.89315059  1
  O  O150  1  0.37974791  0.87254479  0.38172425  1
  O  O151  1  0.38773642  0.89169395  0.86416690  1
  O  O152  1  0.87503755  0.36845072  0.38739095  1
  O  O153  1  0.88679414  0.36545586  0.88046673  1
  O  O154  1  0.88759737  0.88605310  0.37916333  1
  O  O155  1  0.88192172  0.88610686  0.88480199  1
  O  O156  1  0.25120930  -0.00569203  0.36096251  1
  O  O157  1  0.25852764  -0.00506620  0.86754615  1
  O  O158  1  0.25091494  0.48911743  0.36634487  1
  O  O159  1  0.25203798  0.47171438  0.85812594  1
  O  O160  1  0.75781456  0.00161711  0.36401236  1
  O  O161  1  0.76303578  -0.00314203  0.87074423  1
  O  O162  1  0.75156128  0.51066145  0.36788176  1
  O  O163  1  0.73940796  0.53282000  0.88295425  1
  O  O164  1  0.23524218  0.48989587  0.12661849  1
  O  O165  1  0.23197960  0.49701240  0.61943842  1
  O  O166  1  0.23675644  1.00084410  0.13475262  1
  O  O167  1  0.24820553  0.99574191  0.63648143  1
  O  O168  1  0.78815890  0.48217270  0.11581569  1
  O  O169  1  0.74910489  0.49946868  0.62898171  1
  O  O170  1  0.76189867  0.99541509  0.13468400  1
  O  O171  1  0.75216328  0.99782144  0.63896707  1
  O  O172  1  0.00910962  0.35885785  0.24531901  1
  O  O173  1  -0.01393511  0.35683576  0.75950472  1
  O  O174  1  0.00399838  0.86896900  0.25370700  1
  O  O175  1  -0.00373792  0.86606936  0.76265543  1
  O  O176  1  0.50040796  0.35808322  0.25202162  1
  O  O177  1  0.51077529  0.40637155  0.75967356  1
  O  O178  1  0.51599848  0.88551163  0.22500663  1
  O  O179  1  0.50826777  0.88330774  0.76232373  1
  O  O180  1  0.50527716  0.13368158  0.23351996  1
  O  O181  1  0.48071192  0.11659943  0.75128454  1
  O  O182  1  0.48130677  0.62544195  0.26191471  1
  O  O183  1  0.49321484  0.60844707  0.75190318  1
  O  O184  1  0.99186080  0.11615598  0.25873502  1
  O  O185  1  0.98896845  0.13163145  0.74155433  1
  O  O186  1  0.99632713  0.64106742  0.25070123  1
  O  O187  1  0.98226821  0.64313224  0.76732173  1
  O  O188  1  0.35272289  0.25331062  -0.01046043  1
  O  O189  1  0.37187014  0.26838696  0.48161195  1
  O  O190  1  0.36089000  0.74336088  0.01030081  1
  O  O191  1  0.38151190  0.76627419  0.50950898  1
  O  O192  1  0.86137954  0.23266523  0.00062018  1
  O  O193  1  0.86350966  0.25187442  0.50588261  1
  O  O194  1  0.87326292  0.76563030  0.00147291  1
  O  O195  1  0.87911523  0.74055903  0.51133663  1
  O  O196  1  0.13173491  0.22853823  0.50028929  1
  O  O197  1  0.12965557  0.24860207  0.99072552  1
  O  O198  1  0.11046894  0.73390843  0.51658276  1
  O  O199  1  0.13790516  0.73876721  1.00568690  1
  O  O200  1  0.62943847  0.24489057  0.48280766  1
  O  O201  1  0.63153592  0.24168604  0.99827791  1
  O  O202  1  0.55427039  0.75798568  0.40140906  1
  O  O203  1  0.64198068  0.76434815  1.00634201  1
  O  O204  1  0.49336328  0.24058022  0.13385623  1
  O  O205  1  0.53790281  0.23379924  0.63944872  1
  O  O206  1  0.47411879  0.75628513  0.11445488  1
  O  O207  1  0.50580488  0.76197926  0.61502665  1
  O  O208  1  0.95971216  0.28647705  0.10884807  1
  O  O209  1  0.98947356  0.23955251  0.63327514  1
  O  O210  1  1.00365164  0.74753423  0.13595562  1
  O  O211  1  0.99677016  0.74401621  0.64544604  1
  O  O212  1  0.02473786  0.23311527  0.38570673  1
  O  O213  1  0.00420032  0.25464865  0.86958049  1
  O  O214  1  -0.00328948  0.76477274  0.36322390  1
  O  O215  1  -0.00489422  0.76655763  0.87091282  1
  O  O216  1  0.50552462  0.24782245  0.35786639  1
  O  O217  1  0.51784858  0.24929136  0.87772318  1
  O  O218  1  0.49951642  0.75587339  0.35423233  1
  O  O219  1  0.49060501  0.77230555  0.88526435  1
  O  O220  1  0.25573972  0.11797825  0.51416391  1
  O  O221  1  0.24398038  0.13700762  0.99599262  1
  O  O222  1  0.27042351  0.62638686  0.48370924  1
  O  O223  1  0.23352614  0.62490075  0.99474566  1
  O  O224  1  0.74054221  0.13219419  0.48553362  1
  O  O225  1  0.73336579  0.11494292  1.00546127  1
  O  O226  1  0.77191903  0.61862987  0.48739233  1
  O  O227  1  0.76027605  0.65382875  1.01547050  1
  O  O228  1  0.24327656  0.36458926  0.01466668  1
  O  O229  1  0.25463575  0.37648528  0.50305908  1
  O  O230  1  0.24491911  0.86046262  0.00169463  1
  O  O231  1  0.25409696  0.87599052  0.51458094  1
  O  O232  1  0.76434919  0.36604148  0.00924907  1
  O  O233  1  0.75089391  0.35981482  0.48879122  1
  O  O234  1  0.75803842  0.88022570  0.00799418  1
  O  O235  1  0.68273546  0.83655273  0.49514920  1
  O  O236  1  0.10894978  0.47537471  0.26080504  1
  O  O237  1  0.14520260  0.55043973  0.74329379  1
  O  O238  1  0.13132458  0.99586980  0.24237501  1
  O  O239  1  0.14137362  1.01108472  0.73927085  1
  O  O240  1  0.61184744  0.47967427  0.25073946  1
  O  O241  1  0.64658060  0.51168604  0.75597510  1
  O  O242  1  0.64239916  1.00014051  0.24501253  1
  O  O243  1  0.63815648  1.01191262  0.75694458  1
  O  O244  1  0.35822651  -0.00707639  0.25885188  1
  O  O245  1  0.36249262  0.00759208  0.75813043  1
  O  O246  1  0.37799957  0.50532639  0.25785924  1
  O  O247  1  0.37310153  0.51602818  0.73961247  1
  O  O248  1  0.86560667  0.00794089  0.26141511  1
  O  O249  1  0.86504798  0.00299059  0.75565338  1
  O  O250  1  0.88903588  0.50663117  0.24394028  1
  O  O251  1  0.86225839  0.52224076  0.74568791  1
  O  O252  1  0.12441841  0.35833998  0.36617056  1
  O  O253  1  0.10969374  0.35794864  0.87720347  1
  O  O254  1  0.11108736  0.89121981  0.35921797  1
  O  O255  1  0.11140710  0.87975409  0.87519110  1
  O  O256  1  0.61032042  0.36474903  0.36582126  1
  O  O257  1  0.62696954  0.36437371  0.89284858  1
  O  O258  1  0.61835237  0.88830347  0.34645305  1
  O  O259  1  0.61053241  0.88131986  0.86453618  1
  O  O260  1  0.38672512  0.12205996  0.12009235  1
  O  O261  1  0.36534145  0.14519557  0.64478788  1
  O  O262  1  0.36948506  0.61490754  0.14149887  1
  O  O263  1  0.38757577  0.64898083  0.60395607  1
  O  O264  1  0.88302591  0.11827914  0.14276074  1
  O  O265  1  0.87731668  0.13091749  0.63247833  1
  O  O266  1  0.89828876  0.62938285  0.13622474  1
  O  O267  1  0.87762178  0.64343291  0.63946498  1
  O  O268  1  0.24673360  0.24495811  0.11394121  1
  O  O269  1  0.24318545  0.26034545  0.62647895  1
  O  O270  1  0.26157760  0.74316061  0.10925341  1
  O  O271  1  0.24461600  0.76547008  0.62958839  1
  O  O272  1  0.74651234  0.24038479  0.10910604  1
  O  O273  1  0.75180635  0.24164304  0.61139833  1
  O  O274  1  0.76186829  0.77668848  0.12402866  1
  O  O275  1  0.76787122  0.76144848  0.62101725  1
  O  O276  1  0.23176834  0.24141939  0.37774173  1
  O  O277  1  0.23180270  0.25451623  0.87687069  1
  O  O278  1  0.25169013  0.74877108  0.37945721  1
  O  O279  1  0.25982135  0.75279466  0.88612413  1
  O  O280  1  0.74216992  0.23965192  0.37672548  1
  O  O281  1  0.73849895  0.24801553  0.90039009  1
  O  O282  1  0.75793530  0.71988756  0.37003769  1
  O  O283  1  0.75154775  0.76424172  0.89251300  1
  O  O284  1  0.00145403  0.10802319  -0.00737419  1
  O  O285  1  -0.01207049  0.12187380  0.51640942  1
  O  O286  1  0.01786530  0.63269577  0.00831243  1
  O  O287  1  0.00670388  0.59927253  0.49700527  1
  O  O288  1  0.49969172  0.12005309  0.00694636  1
  O  O289  1  0.51512634  0.13533572  0.49561947  1
  O  O290  1  0.51835217  0.63543107  0.01180545  1
  O  O291  1  0.50316752  0.61697918  0.47522269  1
  O  O292  1  0.48866116  0.36643210  0.47526307  1
  O  O293  1  0.46987766  0.36122736  1.00752207  1
  O  O294  1  0.49103570  0.87937791  0.49895517  1
  O  O295  1  0.50820833  0.89257384  0.99055741  1
  O  O296  1  0.98785481  0.36208056  0.50104220  1
  O  O297  1  1.00514213  0.39357498  0.98892456  1
  O  O298  1  1.01835637  0.87070011  0.48314223  1
  O  O299  1  0.99715427  0.88243677  0.99157075  1
  O  O300  1  0.49764234  0.48130489  0.36403579  1
  O  O301  1  0.51693983  0.50261803  0.91811091  1
  O  O302  1  0.48267845  1.00218262  0.35983636  1
  O  O303  1  0.48792246  0.99977877  0.88618234  1
  O  O304  1  1.04013189  0.54147911  0.45738658  1
  O  O305  1  1.00202429  0.48080726  0.86700043  1
  O  O306  1  0.98681503  0.99044590  0.37476822  1
  O  O307  1  0.99401058  0.98890690  0.87873261  1
  O  O308  1  0.01191364  -0.00600874  0.11453511  1
  O  O309  1  0.01612237  0.00541769  0.63839910  1
  O  O310  1  0.00368755  0.50925911  0.10516454  1
  O  O311  1  0.01128889  0.50287158  0.66568678  1
  O  O312  1  0.49164843  0.00960976  0.10846615  1
  O  O313  1  0.45213079  0.02274164  0.60921793  1
  O  O314  1  0.49773403  0.49409023  0.10095486  1
  O  O315  1  0.53877829  0.40773779  0.63032934  1
  O  O316  1  0.24114206  0.36937544  0.23913271  1
  O  O317  1  0.26484373  0.38098858  0.72090151  1
  O  O318  1  0.23545836  0.87868111  0.25420864  1
  O  O319  1  0.25889369  0.88667549  0.73970167  1
  O  O320  1  0.73140050  0.36889235  0.25395016  1
  O  O321  1  0.76599566  0.40022519  0.75856873  1
  O  O322  1  0.74690249  0.88912513  0.23510421  1
  O  O323  1  0.73357960  0.88946613  0.75776304  1
  O  O324  1  0.24577857  0.11111473  0.25108132  1
  O  O325  1  0.25860049  0.11426991  0.75569604  1
  O  O326  1  0.26176749  0.63068209  0.26826622  1
  O  O327  1  0.28138449  0.63101193  0.72242336  1
  O  O328  1  0.75051157  0.11476395  0.25481265  1
  O  O329  1  0.76086278  0.11290939  0.74820605  1
  O  O330  1  0.78087940  0.62796241  0.24516337  1
  O  O331  1  0.75379363  0.62465619  0.73966100  1
  O  O332  1  0.36978834  0.10812221  0.38150047  1
  O  O333  1  0.37040334  0.10994847  0.87131776  1
  O  O334  1  0.36164393  0.60675211  0.36732094  1
  O  O335  1  0.38101910  0.63302802  0.86174993  1
  O  O336  1  0.86479069  0.11578327  0.36952758  1
  O  O337  1  0.88476146  0.11174411  0.86148012  1
  O  O338  1  0.88000501  0.61580499  0.36201316  1
  O  O339  1  0.86339554  0.64013496  0.85980161  1
  O  O340  1  0.13181201  0.36355020  0.14110730  1
  O  O341  1  0.13516411  0.37352869  0.61348909  1
  O  O342  1  0.12054478  0.88726441  0.13994344  1
  O  O343  1  0.13287769  0.89120623  0.62263348  1
  O  O344  1  0.61929246  0.36592436  0.13612744  1
  O  O345  1  0.56643637  0.38636981  0.70341880  1
  O  O346  1  0.64037876  0.88533461  0.12094692  1
  O  O347  1  0.61009770  0.89127076  0.64819441  1
  O  O348  1  0.12365066  0.25069836  0.26269433  1
  O  O349  1  0.11138037  0.24084626  0.76029928  1
  O  O350  1  0.11867066  0.76609617  0.24641245  1
  O  O351  1  0.10942228  0.74198660  0.75253493  1
  O  O352  1  0.61868301  0.25293058  0.25618193  1
  O  O353  1  0.64964681  0.25258634  0.77542482  1
  O  O354  1  0.63283141  0.77343028  0.23586824  1
  O  O355  1  0.63231871  0.76338359  0.73822994  1
  O  O356  1  0.38431674  0.24447634  0.25531086  1
  O  O357  1  0.36972756  0.23688148  0.77485474  1
  O  O358  1  0.36840435  0.73872645  0.23344883  1
  O  O359  1  0.38850741  0.74131524  0.73179420  1
  O  O360  1  0.87391447  0.22965827  0.25922963  1
  O  O361  1  0.87313930  0.24052778  0.74445564  1
  O  O362  1  0.88830099  0.75378307  0.24418296  1
  O  O363  1  0.87420706  0.74866884  0.74128590  1
  O  O364  1  0.37445028  0.48045916  0.46788906  1
  O  O365  1  0.36485875  0.48919067  1.00383954  1
  O  O366  1  0.36467408  0.98189413  0.47890090  1
  O  O367  1  0.37720980  1.00189576  0.98837055  1
  O  O368  1  0.87612183  0.47577030  0.51150024  1
  O  O369  1  0.90487500  0.52657172  0.98089012  1
  O  O370  1  0.86117682  1.00338091  0.48518937  1
  O  O371  1  0.88375714  0.99741959  0.99279779  1
  O  O372  1  0.12218664  -0.00203778  0.01281610  1
  O  O373  1  0.13521212  0.01138376  0.51858080  1
  O  O374  1  0.11199230  0.52063337  -0.01695811  1
  O  O375  1  0.10339843  0.50504872  0.49988888  1
  O  O376  1  0.61078775  0.01141380  -0.00807369  1
  O  O377  1  0.62538380  0.01458953  0.48116291  1
  O  O378  1  0.64068042  0.51799141  0.02316856  1
  O  O379  1  0.61957753  0.50117740  0.50247801  1
  O  O380  1  0.35157150  0.37768140  0.11940327  1
  O  O381  1  0.36921548  0.37746824  0.59935367  1
  O  O382  1  0.36251027  0.86839477  0.12960049  1
  O  O383  1  0.36889801  0.86363945  0.62072746  1
  O  O384  1  0.90961015  0.34181810  0.11967307  1
  O  O385  1  0.87494472  0.35564350  0.61928682  1
  O  O386  1  0.87462406  0.88447814  0.11106502  1
  O  O387  1  0.90411271  0.85731269  0.61622219  1
  O  O388  1  0.13441275  0.11709877  0.39658941  1
  O  O389  1  0.12317754  0.13702478  0.87869135  1
  O  O390  1  0.14420640  0.62783013  0.37290928  1
  O  O391  1  0.12486569  0.64041798  0.87530107  1
  O  O392  1  0.63291302  0.13066164  0.37278290  1
  O  O393  1  0.61814949  0.13420331  0.89437240  1
  O  O394  1  0.64096166  0.61725992  0.38797198  1
  O  O395  1  0.69800354  0.59268487  0.88828908  1
