# generated using pymatgen
data_V35Zn35O128
_symmetry_space_group_name_H-M   'P 1'
_cell_length_a   16.85397463
_cell_length_b   16.88227512
_cell_length_c   16.89084501
_cell_angle_alpha   90.10682892
_cell_angle_beta   90.10809334
_cell_angle_gamma   89.81046473
_symmetry_Int_Tables_number   1
_chemical_formula_structural   V35Zn35O128
_chemical_formula_sum   'V70 Zn70 O256'
_cell_volume   4805.96703111
_cell_formula_units_Z   2
loop_
 _symmetry_equiv_pos_site_id
 _symmetry_equiv_pos_as_xyz
  1  'x, y, z'
loop_
 _atom_site_type_symbol
 _atom_site_label
 _atom_site_symmetry_multiplicity
 _atom_site_fract_x
 _atom_site_fract_y
 _atom_site_fract_z
 _atom_site_occupancy
  V  V0  1  0.63252536  0.61609857  -0.00074317  1
  V  V1  1  0.38597452  0.74787541  0.63005084  1
  V  V2  1  0.75903420  0.11997894  0.37868013  1
  V  V3  1  0.74300694  0.25192175  0.50660829  1
  V  V4  1  0.11660545  0.50970506  0.61728239  1
  V  V5  1  0.13021188  0.63509154  -0.00897040  1
  V  V6  1  0.12034060  0.39064590  0.75662132  1
  V  V7  1  0.50225858  0.38029295  0.87810912  1
  V  V8  1  0.88778141  0.24579330  0.12412011  1
  V  V9  1  0.61714663  0.02332978  0.60222482  1
  V  V10  1  -0.03537068  0.73630869  0.74891978  1
  V  V11  1  0.49087815  0.00012879  -0.00596594  1
  V  V12  1  0.62679391  0.37462963  0.24985897  1
  V  V13  1  0.87183061  0.87580752  0.50586120  1
  V  V14  1  0.75340961  -0.00715948  0.24591431  1
  V  V15  1  0.74524504  0.87520113  0.62408421  1
  V  V16  1  0.49074571  0.49106271  0.49532796  1
  V  V17  1  0.88370541  0.51668759  0.38079647  1
  V  V18  1  0.88889922  0.37068253  0.48475713  1
  V  V19  1  0.11775123  0.38219763  0.26454492  1
  V  V20  1  0.24881103  0.74801550  0.50053288  1
  V  V21  1  0.24665055  0.86945794  0.12264245  1
  V  V22  1  0.00437389  0.25230808  0.26637319  1
  V  V23  1  0.51080124  0.87096738  0.86605391  1
  V  V24  1  0.75511236  0.51012232  0.25905969  1
  V  V25  1  0.88343150  0.25469454  0.62313876  1
  V  V26  1  0.25364828  0.37536604  0.62401151  1
  V  V27  1  0.75777400  0.11681001  0.87090298  1
  V  V28  1  -0.00433574  0.85290867  0.38275022  1
  V  V29  1  0.49163026  0.90211168  0.37791958  1
  V  V30  1  0.87735407  0.87697468  -0.02270008  1
  V  V31  1  0.25651662  0.88362549  0.62233387  1
  V  V32  1  0.75289644  0.24944875  0.00056466  1
  V  V33  1  0.62515948  0.24462845  0.37418179  1
  V  V34  1  0.62026910  0.86397536  0.25629215  1
  V  V35  1  0.88442414  0.11638421  0.24143340  1
  V  V36  1  0.50062767  0.24797307  0.24950239  1
  V  V37  1  0.12905693  0.88663665  0.77058241  1
  V  V38  1  0.49973376  0.49675298  0.01016790  1
  V  V39  1  0.13407291  0.13919270  0.48073893  1
  V  V40  1  0.75126727  0.37750795  0.12695114  1
  V  V41  1  0.14108920  0.12004451  0.00584622  1
  V  V42  1  0.41908473  0.62583328  0.74934950  1
  V  V43  1  0.63049909  0.12031450  -0.00121350  1
  V  V44  1  0.00319994  0.24882850  0.75374769  1
  V  V45  1  0.62102828  0.24574391  0.87242025  1
  V  V46  1  0.12146225  0.01187279  0.62466237  1
  V  V47  1  0.25094544  0.61205690  0.37071120  1
  V  V48  1  0.47541758  0.24272095  0.73677397  1
  V  V49  1  0.62984574  0.36474417  0.73414126  1
  V  V50  1  0.36693809  0.36638000  0.48320148  1
  V  V51  1  0.37564914  0.85632997  -0.00296304  1
  V  V52  1  0.62129707  0.50561034  0.61925142  1
  V  V53  1  0.26186886  0.00217368  0.25861808  1
  V  V54  1  0.89020124  0.38280060  -0.00826304  1
  V  V55  1  0.10810217  0.63533622  0.50239689  1
  V  V56  1  0.86683712  0.76042409  0.14050132  1
  V  V57  1  0.11826122  0.87205312  0.26972819  1
  V  V58  1  0.50022267  0.12465565  0.12951463  1
  V  V59  1  0.74584493  0.75269326  -0.00392520  1
  V  V60  1  0.36379259  0.24658394  0.12306984  1
  V  V61  1  0.62464317  0.63448551  0.48152980  1
  V  V62  1  0.75274784  0.49337044  0.75351331  1
  V  V63  1  0.24519188  0.38941263  0.12822310  1
  V  V64  1  0.10655660  0.50060247  0.11770719  1
  V  V65  1  0.63113612  -0.00791505  0.12651162  1
  V  V66  1  0.87814641  0.11373916  0.74175192  1
  V  V67  1  0.00057682  0.00891731  0.48672870  1
  V  V68  1  -0.00874155  0.63759081  0.13293121  1
  V  V69  1  0.13699299  0.23764579  0.87360341  1
  Zn  Zn70  1  0.72886445  -0.00739543  0.74844184  1
  Zn  Zn71  1  0.35876900  0.51728201  0.86987625  1
  Zn  Zn72  1  0.49713628  0.62829516  0.13330016  1
  Zn  Zn73  1  0.34382499  0.38007904  -0.01903677  1
  Zn  Zn74  1  0.25968999  0.01374398  0.76883407  1
  Zn  Zn75  1  0.37710820  0.73887388  0.12479766  1
  Zn  Zn76  1  0.17524257  0.18044933  0.18678288  1
  Zn  Zn77  1  0.19001460  0.19298647  0.67421210  1
  Zn  Zn78  1  0.18444758  0.69005705  0.18581204  1
  Zn  Zn79  1  0.16828984  0.71046756  0.67939330  1
  Zn  Zn80  1  0.69328811  0.18379497  0.18669990  1
  Zn  Zn81  1  0.68198896  0.17928345  0.68510970  1
  Zn  Zn82  1  0.68254150  0.68233297  0.17761922  1
  Zn  Zn83  1  0.77518538  0.68181520  0.67743651  1
  Zn  Zn84  1  0.30925142  0.31620823  0.30026810  1
  Zn  Zn85  1  0.30419777  0.33603520  0.81595481  1
  Zn  Zn86  1  0.30573075  0.82331558  0.32270868  1
  Zn  Zn87  1  0.34936277  0.84045033  0.79040610  1
  Zn  Zn88  1  0.81305950  0.30531417  0.31245101  1
  Zn  Zn89  1  0.81277387  0.31334807  0.81297137  1
  Zn  Zn90  1  0.81250284  0.80776877  0.32891611  1
  Zn  Zn91  1  0.78089685  0.79815334  0.80632913  1
  Zn  Zn92  1  0.18359278  0.44352602  0.44387084  1
  Zn  Zn93  1  0.17975920  0.43672607  0.93757179  1
  Zn  Zn94  1  0.18749083  0.94057653  0.43950162  1
  Zn  Zn95  1  0.16302743  0.91720139  0.97650860  1
  Zn  Zn96  1  0.69034592  0.43328756  0.43795187  1
  Zn  Zn97  1  0.68558706  0.43574806  0.93516568  1
  Zn  Zn98  1  0.68290239  0.93787692  0.43517569  1
  Zn  Zn99  1  0.69138353  0.93392948  0.93672033  1
  Zn  Zn100  1  0.30869056  0.05828452  0.07704245  1
  Zn  Zn101  1  0.30550249  0.07285008  0.55630047  1
  Zn  Zn102  1  0.31478794  0.56702522  0.06064293  1
  Zn  Zn103  1  0.30797428  0.56029289  0.57620202  1
  Zn  Zn104  1  0.94484774  0.03713988  0.05535303  1
  Zn  Zn105  1  0.81407213  0.05705350  0.56451307  1
  Zn  Zn106  1  0.81635105  0.56126414  0.06750842  1
  Zn  Zn107  1  0.79231619  0.53948786  0.56060537  1
  Zn  Zn108  1  0.43629106  0.43161779  0.19066501  1
  Zn  Zn109  1  0.44316138  0.43478177  0.69064575  1
  Zn  Zn110  1  0.43703951  0.93335645  0.18720743  1
  Zn  Zn111  1  0.44822788  0.94538086  0.67358666  1
  Zn  Zn112  1  0.93315401  0.43703570  0.19215328  1
  Zn  Zn113  1  0.93743555  0.43633610  0.67915157  1
  Zn  Zn114  1  0.94191968  0.92689969  0.18982540  1
  Zn  Zn115  1  0.94738971  0.92077287  0.69214326  1
  Zn  Zn116  1  0.07146558  0.05582491  0.30132881  1
  Zn  Zn117  1  0.05959782  0.05067104  0.81573205  1
  Zn  Zn118  1  0.06517897  0.57156193  0.31636168  1
  Zn  Zn119  1  0.05569542  0.58415714  0.80139457  1
  Zn  Zn120  1  0.56824732  0.06326309  0.31613326  1
  Zn  Zn121  1  0.55441690  0.06174398  0.80146900  1
  Zn  Zn122  1  0.56384526  0.54672106  0.32448180  1
  Zn  Zn123  1  0.63095664  0.65911069  0.79042332  1
  Zn  Zn124  1  0.42436034  0.19946386  0.42793987  1
  Zn  Zn125  1  0.43145970  0.19232202  0.94541980  1
  Zn  Zn126  1  0.42773940  0.66636500  0.45555076  1
  Zn  Zn127  1  0.45585204  0.68332173  0.92888186  1
  Zn  Zn128  1  0.93832134  0.18136054  0.43775928  1
  Zn  Zn129  1  0.93684126  0.19657785  0.92993178  1
  Zn  Zn130  1  0.89309585  0.66398428  0.51134317  1
  Zn  Zn131  1  0.95513760  0.71118624  0.95107746  1
  Zn  Zn132  1  0.06999406  0.30700505  0.06099047  1
  Zn  Zn133  1  0.06684190  0.31458925  0.56496857  1
  Zn  Zn134  1  0.05512816  0.80638695  0.05728709  1
  Zn  Zn135  1  0.05955117  0.82236345  0.57890375  1
  Zn  Zn136  1  0.56558384  0.31123691  0.06435626  1
  Zn  Zn137  1  0.54684499  0.30063569  0.55845362  1
  Zn  Zn138  1  0.56072746  0.80486562  0.06981241  1
  Zn  Zn139  1  0.56893848  0.82035656  0.55655154  1
  O  O140  1  0.10996097  0.14383180  0.10023917  1
  O  O141  1  0.12977388  0.11485318  0.61289426  1
  O  O142  1  0.12164334  0.61157061  0.11883726  1
  O  O143  1  0.13267170  0.61761266  0.62243645  1
  O  O144  1  0.62228908  0.11835168  0.11552310  1
  O  O145  1  0.61946241  0.12678518  0.60957700  1
  O  O146  1  0.61084284  0.62352959  0.11124006  1
  O  O147  1  0.62085702  0.60371212  0.61153002  1
  O  O148  1  0.36115390  0.37368408  0.38267464  1
  O  O149  1  0.40376988  0.35006205  0.88293757  1
  O  O150  1  0.39409452  0.87600657  0.36496862  1
  O  O151  1  0.38301738  0.87929784  0.89486192  1
  O  O152  1  0.87894320  0.36723618  0.38247842  1
  O  O153  1  0.87426387  0.36364184  0.89260689  1
  O  O154  1  0.88923873  0.87744191  0.38695563  1
  O  O155  1  0.85415092  0.86750464  0.87935881  1
  O  O156  1  0.25287709  -0.01303388  0.36063474  1
  O  O157  1  0.31609249  0.06571029  0.87769769  1
  O  O158  1  0.23920541  0.51221664  0.37285685  1
  O  O159  1  0.27957132  0.43763758  0.88404594  1
  O  O160  1  0.74543042  0.01583307  0.36201984  1
  O  O161  1  0.74624200  0.01469945  0.86960152  1
  O  O162  1  0.75868630  0.49052992  0.36347085  1
  O  O163  1  0.74647454  0.48310271  0.85463597  1
  O  O164  1  0.23810958  0.49115461  0.12902809  1
  O  O165  1  0.23024541  0.49247161  0.62899986  1
  O  O166  1  0.25757779  0.97596184  0.13617845  1
  O  O167  1  0.24551949  0.98993580  0.60781338  1
  O  O168  1  0.76150559  0.48481900  0.14404452  1
  O  O169  1  0.72608204  0.47782003  0.63033560  1
  O  O170  1  0.74027198  1.00282528  0.14074651  1
  O  O171  1  0.73634928  1.00429023  0.62549851  1
  O  O172  1  0.00481860  0.36244656  0.25000801  1
  O  O173  1  0.01198981  0.35937926  0.73775357  1
  O  O174  1  0.00726425  0.87915900  0.27357554  1
  O  O175  1  0.03136450  0.92587623  0.77747035  1
  O  O176  1  0.51869978  0.36459004  0.24236988  1
  O  O177  1  0.50914452  0.35829955  0.76132797  1
  O  O178  1  0.51331912  0.88037709  0.25895461  1
  O  O179  1  0.46858614  0.89001396  0.77128665  1
  O  O180  1  0.51075257  0.13236297  0.23650488  1
  O  O181  1  0.48797771  0.14624750  0.76743953  1
  O  O182  1  0.47776526  0.57550159  0.24877382  1
  O  O183  1  0.51739583  0.63595478  0.74987611  1
  O  O184  1  0.98957120  0.13276053  0.25771878  1
  O  O185  1  0.98484237  0.13525544  0.75349034  1
  O  O186  1  1.01565667  0.63002196  0.23126889  1
  O  O187  1  1.00535445  0.64592688  0.72353495  1
  O  O188  1  0.38030119  0.26529288  0.02049245  1
  O  O189  1  0.36575440  0.26635239  0.49870442  1
  O  O190  1  0.38347810  0.75547704  -0.00494596  1
  O  O191  1  0.35839178  0.73975726  0.51780315  1
  O  O192  1  0.86962025  0.25215070  0.00670678  1
  O  O193  1  0.87189327  0.25100387  0.50706532  1
  O  O194  1  0.86407970  0.75656196  0.01000423  1
  O  O195  1  0.88465350  0.77761927  0.51049385  1
  O  O196  1  0.11287193  0.23684581  0.49792082  1
  O  O197  1  0.11348325  0.23970381  0.97799255  1
  O  O198  1  0.13355376  0.74290344  0.52548290  1
  O  O199  1  0.12840499  0.73657221  0.99527105  1
  O  O200  1  0.63542131  0.25468100  0.49089338  1
  O  O201  1  0.63385838  0.23832349  0.99739680  1
  O  O202  1  0.61919933  0.73119116  0.50546733  1
  O  O203  1  0.63919587  0.74261695  1.01174946  1
  O  O204  1  0.49981891  0.24187865  0.13043756  1
  O  O205  1  0.48618128  0.24395790  0.63642990  1
  O  O206  1  0.49143785  0.74586226  0.13443136  1
  O  O207  1  0.48247056  0.76477065  0.61557086  1
  O  O208  1  0.99010129  0.25251813  0.13104487  1
  O  O209  1  0.98825638  0.24576721  0.63082017  1
  O  O210  1  0.98501155  0.74563938  0.12787697  1
  O  O211  1  0.98844120  0.80677265  0.67017286  1
  O  O212  1  -0.00358516  0.24999501  0.36448224  1
  O  O213  1  0.00661089  0.25195041  0.85718755  1
  O  O214  1  -0.00250711  0.75752760  0.38283233  1
  O  O215  1  -0.01297281  0.74728450  0.84851701  1
  O  O216  1  0.51009994  0.23581081  0.36237244  1
  O  O217  1  0.51519829  0.24907785  0.88611702  1
  O  O218  1  0.46238534  0.72885673  0.33281028  1
  O  O219  1  0.50803919  0.77086979  0.87619544  1
  O  O220  1  0.23585967  0.13255375  0.49614636  1
  O  O221  1  0.24260362  0.12559433  1.01304264  1
  O  O222  1  0.23947080  0.63621729  0.50004788  1
  O  O223  1  0.23015379  0.60883276  0.99858377  1
  O  O224  1  0.76509675  0.13403355  0.48406768  1
  O  O225  1  0.74485391  0.13286342  0.98602481  1
  O  O226  1  0.72008878  0.59896463  0.48916390  1
  O  O227  1  0.73721780  0.62163082  1.00974614  1
  O  O228  1  0.23530583  0.36642511  0.02696526  1
  O  O229  1  0.26058273  0.39018004  0.51101971  1
  O  O230  1  0.27111234  0.87649129  0.00843345  1
  O  O231  1  0.24060913  0.86330687  0.51469913  1
  O  O232  1  0.74877259  0.36205486  0.00807398  1
  O  O233  1  0.76180337  0.35332834  0.49252471  1
  O  O234  1  0.75180592  0.85952669  -0.00071472  1
  O  O235  1  0.76812003  0.89173743  0.49685773  1
  O  O236  1  0.11266653  0.48582419  0.24174218  1
  O  O237  1  0.11303781  0.49274398  0.75296432  1
  O  O238  1  0.13308660  0.97534544  0.24635119  1
  O  O239  1  0.14408208  1.01434580  0.73605802  1
  O  O240  1  0.63796001  0.47980724  0.25877274  1
  O  O241  1  0.62221769  0.47223698  0.73424614  1
  O  O242  1  0.63564635  0.99787912  0.24341280  1
  O  O243  1  0.61982833  1.01516321  0.72606023  1
  O  O244  1  0.36375719  0.00067248  0.24432319  1
  O  O245  1  0.37010293  0.03151917  0.71623404  1
  O  O246  1  0.41405317  0.52751697  0.25498005  1
  O  O247  1  0.39474645  0.52260087  0.74842489  1
  O  O248  1  0.86426962  0.00832462  0.24569036  1
  O  O249  1  0.88006120  0.01487107  0.74097338  1
  O  O250  1  0.86545771  0.49960780  0.26546928  1
  O  O251  1  0.85247596  0.48402324  0.73451553  1
  O  O252  1  0.12734143  0.38102957  0.36334156  1
  O  O253  1  0.12058907  0.36603291  0.85841659  1
  O  O254  1  0.11779055  0.86575222  0.37489633  1
  O  O255  1  0.16187670  0.90188665  0.86551808  1
  O  O256  1  0.63589022  0.35661997  0.35981125  1
  O  O257  1  0.61887069  0.36193739  0.86654812  1
  O  O258  1  0.61681727  0.88007047  0.36102572  1
  O  O259  1  0.61034098  0.89145437  0.86608736  1
  O  O260  1  0.38688472  0.13858918  0.11979878  1
  O  O261  1  0.34713921  0.10525884  0.68133872  1
  O  O262  1  0.37984085  0.62450231  0.12946870  1
  O  O263  1  0.37626029  0.63669232  0.63964697  1
  O  O264  1  0.87750346  0.13126084  0.13680423  1
  O  O265  1  0.86822008  0.13687768  0.63713984  1
  O  O266  1  0.88647616  0.63174475  0.12692739  1
  O  O267  1  0.84708070  0.62570792  0.60645117  1
  O  O268  1  0.26370220  0.24567042  0.13653142  1
  O  O269  1  0.23775858  0.27535694  0.61631409  1
  O  O270  1  0.26358447  0.76397559  0.13779861  1
  O  O271  1  0.25676798  0.76485620  0.62536403  1
  O  O272  1  0.76053309  0.25178238  0.11688308  1
  O  O273  1  0.75748079  0.24099869  0.60934325  1
  O  O274  1  0.76390178  0.73871766  0.11681328  1
  O  O275  1  0.75246495  0.77784035  0.60847303  1
  O  O276  1  0.27367445  0.21032451  0.35128093  1
  O  O277  1  0.23489312  0.25482951  0.86817061  1
  O  O278  1  0.25003792  0.75532036  0.39873030  1
  O  O279  1  0.24560357  0.71086831  0.84552784  1
  O  O280  1  0.74608489  0.23850089  0.38178743  1
  O  O281  1  0.74044828  0.24280324  0.88241093  1
  O  O282  1  0.75108141  0.74499431  0.39467279  1
  O  O283  1  0.75620419  0.73095893  0.89939905  1
  O  O284  1  -0.00314888  0.10243679  -0.03189700  1
  O  O285  1  0.01048597  0.11355554  0.49666467  1
  O  O286  1  0.01241548  0.63403720  0.02009780  1
  O  O287  1  0.01034115  0.64286184  0.50931973  1
  O  O288  1  0.50921185  0.11763968  0.00660002  1
  O  O289  1  0.45821642  0.11236426  0.50222909  1
  O  O290  1  0.50241916  0.60480792  0.00091591  1
  O  O291  1  0.50961703  0.60159040  0.50011058  1
  O  O292  1  0.47552791  0.37500080  0.50669167  1
  O  O293  1  0.51687378  0.38292870  0.98976304  1
  O  O294  1  0.50936951  0.86883781  0.47152737  1
  O  O295  1  0.49707155  0.88640675  0.99495613  1
  O  O296  1  0.98767552  0.36893813  0.49952621  1
  O  O297  1  0.98914123  0.37033091  1.00552657  1
  O  O298  1  1.00037026  0.88467889  0.49502465  1
  O  O299  1  0.98033305  0.85852878  0.98729995  1
  O  O300  1  0.50355706  0.47994875  0.39576889  1
  O  O301  1  0.49496964  0.48066520  0.87959760  1
  O  O302  1  0.49558729  1.00374057  0.37499709  1
  O  O303  1  0.50094076  1.00380583  0.89182492  1
  O  O304  1  0.98350768  0.50750500  0.37036608  1
  O  O305  1  0.94082515  0.53825839  0.85948113  1
  O  O306  1  1.01015044  0.99506611  0.38661934  1
  O  O307  1  0.98804434  1.04373623  0.90748897  1
  O  O308  1  0.00229034  0.00514281  0.14229647  1
  O  O309  1  0.02007402  -0.00666278  0.61793361  1
  O  O310  1  0.00280078  0.50842124  0.12887657  1
  O  O311  1  0.01609113  0.50108158  0.63043765  1
  O  O312  1  0.51006821  0.00806677  0.11768635  1
  O  O313  1  0.51694453  -0.00410721  0.60683291  1
  O  O314  1  0.50034595  0.48564808  0.11010722  1
  O  O315  1  0.51458134  0.48224018  0.61581682  1
  O  O316  1  0.22675360  0.36448925  0.23861934  1
  O  O317  1  0.22503306  0.37277713  0.73734865  1
  O  O318  1  0.24200972  0.87783903  0.24319997  1
  O  O319  1  0.25568296  0.89494715  0.74187671  1
  O  O320  1  0.74469299  0.36856812  0.24257873  1
  O  O321  1  0.73427657  0.36584911  0.74796610  1
  O  O322  1  0.74337772  0.89066623  0.26280891  1
  O  O323  1  0.76156487  0.88415504  0.72923677  1
  O  O324  1  0.23291485  0.09831786  0.23784541  1
  O  O325  1  0.27571012  0.12659055  0.72344208  1
  O  O326  1  0.23195824  0.63967951  0.27477407  1
  O  O327  1  0.22750276  0.66109461  0.79415693  1
  O  O328  1  0.76352406  0.11987141  0.25466001  1
  O  O329  1  0.75902455  0.12977928  0.75974909  1
  O  O330  1  0.73933756  0.60695298  0.24833378  1
  O  O331  1  0.72680797  0.59287705  0.74349238  1
  O  O332  1  0.33056192  0.15944048  0.35982469  1
  O  O333  1  0.35990031  0.12615620  0.86504867  1
  O  O334  1  0.35113838  0.62340281  0.38559047  1
  O  O335  1  0.38798261  0.62937797  0.85314773  1
  O  O336  1  0.86560748  0.12969836  0.35938286  1
  O  O337  1  0.86153194  0.13468754  0.86155427  1
  O  O338  1  0.87153692  0.61244629  0.40396596  1
  O  O339  1  0.89198969  0.58997608  0.87989234  1
  O  O340  1  0.12492664  0.38437879  0.13282677  1
  O  O341  1  0.12645313  0.39027788  0.62930719  1
  O  O342  1  0.14623989  0.87139118  0.09076250  1
  O  O343  1  0.14018863  0.89124798  0.64097938  1
  O  O344  1  0.63958985  0.36386807  0.13789043  1
  O  O345  1  0.61924642  0.35048374  0.63545725  1
  O  O346  1  0.61760711  0.88649503  0.13761657  1
  O  O347  1  0.64098432  0.89090216  0.60966959  1
  O  O348  1  0.10879433  0.25606007  0.24753968  1
  O  O349  1  0.11361398  0.24171514  0.75193504  1
  O  O350  1  0.12190204  0.78145628  0.22484075  1
  O  O351  1  0.12595781  0.78528783  0.75618815  1
  O  O352  1  0.62154938  0.25284248  0.25295068  1
  O  O353  1  0.61894068  0.24885060  0.75847988  1
  O  O354  1  0.63613598  0.76689982  0.24345987  1
  O  O355  1  0.69429313  0.73999684  0.74790565  1
  O  O356  1  0.39227398  0.26079776  0.23591192  1
  O  O357  1  0.37904133  0.26457396  0.75614741  1
  O  O358  1  0.40440826  0.73428210  0.28599119  1
  O  O359  1  0.37943060  0.74014923  0.73947707  1
  O  O360  1  0.88472051  0.24051338  0.24295214  1
  O  O361  1  0.88339243  0.25180047  0.73860014  1
  O  O362  1  0.86428524  0.75707898  0.24050572  1
  O  O363  1  0.86227825  0.72951435  0.74867582  1
  O  O364  1  0.38564762  0.49575936  0.51101070  1
  O  O365  1  0.38861251  0.49299632  0.99560428  1
  O  O366  1  0.40884419  1.05267838  0.50537712  1
  O  O367  1  0.39098980  1.00240839  1.01003195  1
  O  O368  1  0.86502797  0.47760337  0.48764421  1
  O  O369  1  0.86887645  0.48067621  1.00649347  1
  O  O370  1  0.89641465  1.00225315  0.50119036  1
  O  O371  1  0.86588734  0.97619480  1.00141083  1
  O  O372  1  0.12525967  0.02043398  -0.00472333  1
  O  O373  1  0.11976928  0.00686694  0.50702823  1
  O  O374  1  0.11637818  0.49283213  0.01605008  1
  O  O375  1  0.11933838  0.51646902  0.51086955  1
  O  O376  1  0.62234140  0.00570887  0.00733656  1
  O  O377  1  0.63331368  0.01350203  0.50074515  1
  O  O378  1  0.61689071  0.50577954  -0.00309838  1
  O  O379  1  0.61342233  0.48048763  0.50925204  1
  O  O380  1  0.35473560  0.37125486  0.13535066  1
  O  O381  1  0.35479636  0.38423480  0.63572166  1
  O  O382  1  0.37532789  0.86787455  0.11215000  1
  O  O383  1  0.36344377  0.86862083  0.63095291  1
  O  O384  1  0.86820861  0.36389707  0.11890162  1
  O  O385  1  0.87538380  0.35842647  0.61177399  1
  O  O386  1  0.87454742  0.86215390  0.12270145  1
  O  O387  1  0.86428689  0.90066370  0.61042973  1
  O  O388  1  0.12330221  0.12247258  0.38127964  1
  O  O389  1  0.13255557  0.13304451  0.87383899  1
  O  O390  1  0.12766932  0.62739082  0.39806752  1
  O  O391  1  0.10856364  0.60563413  0.89535161  1
  O  O392  1  0.64401529  0.13635549  0.36497737  1
  O  O393  1  0.63400381  0.12792041  0.88163423  1
  O  O394  1  0.60849041  0.63191712  0.37903029  1
  O  O395  1  0.61507811  0.63380471  0.90062416  1
