# generated using pymatgen
data_V35Zn35O128
_symmetry_space_group_name_H-M   'P 1'
_cell_length_a   16.87913288
_cell_length_b   16.90675934
_cell_length_c   16.90555493
_cell_angle_alpha   90.11729565
_cell_angle_beta   90.11898949
_cell_angle_gamma   90.15876438
_symmetry_Int_Tables_number   1
_chemical_formula_structural   V35Zn35O128
_chemical_formula_sum   'V70 Zn70 O256'
_cell_volume   4824.32341853
_cell_formula_units_Z   2
loop_
 _symmetry_equiv_pos_site_id
 _symmetry_equiv_pos_as_xyz
  1  'x, y, z'
loop_
 _atom_site_type_symbol
 _atom_site_label
 _atom_site_symmetry_multiplicity
 _atom_site_fract_x
 _atom_site_fract_y
 _atom_site_fract_z
 _atom_site_occupancy
  V  V0  1  -0.00454301  0.37817124  0.87877612  1
  V  V1  1  0.00252306  0.24631813  0.74338967  1
  V  V2  1  0.12295336  0.25099025  0.87783344  1
  V  V3  1  0.49968124  0.50749186  0.01342634  1
  V  V4  1  0.37355564  0.50686832  0.87307988  1
  V  V5  1  -0.00352939  0.87297817  0.88818138  1
  V  V6  1  0.75629445  0.76896040  -0.00373317  1
  V  V7  1  0.14108185  0.13356447  0.49775394  1
  V  V8  1  0.26142423  0.73125471  -0.01904398  1
  V  V9  1  0.25095341  0.13804154  0.36829702  1
  V  V10  1  0.24561393  0.37561428  0.12285277  1
  V  V11  1  0.22495268  0.00271129  0.24416405  1
  V  V12  1  -0.00579469  0.12260114  0.13635825  1
  V  V13  1  0.63191930  0.73653890  0.38416348  1
  V  V14  1  0.74386425  0.51725497  0.25239166  1
  V  V15  1  0.62469227  0.71553555  0.86835771  1
  V  V16  1  0.85529468  0.24146092  0.62653379  1
  V  V17  1  0.74432878  0.24908581  0.47254048  1
  V  V18  1  0.50549418  0.62483298  0.61175229  1
  V  V19  1  0.63169884  0.49097205  0.62065358  1
  V  V20  1  0.25313450  0.87844743  0.11318331  1
  V  V21  1  0.74765770  0.38524463  0.12124397  1
  V  V22  1  0.62505865  0.25223156  0.87525049  1
  V  V23  1  0.25234691  0.36634572  0.60969283  1
  V  V24  1  0.11179165  0.37240381  0.25973044  1
  V  V25  1  0.38255553  0.24849697  0.61459530  1
  V  V26  1  0.11683710  0.50748979  0.61814910  1
  V  V27  1  0.88155605  -0.00131651  0.89729522  1
  V  V28  1  0.00522885  0.63483196  0.14071268  1
  V  V29  1  0.26113059  0.50034538  0.25950864  1
  V  V30  1  0.75126589  0.61825149  0.42069327  1
  V  V31  1  0.12447430  0.50735086  0.11617740  1
  V  V32  1  0.35829478  0.87768186  0.49535409  1
  V  V33  1  -0.00361823  0.51887612  -0.01350581  1
  V  V34  1  0.11323173  0.88173274  0.73361258  1
  V  V35  1  0.50050923  0.86749602  0.36154525  1
  V  V36  1  0.63769904  0.36843478  0.26318529  1
  V  V37  1  0.87217071  0.88210015  0.48015119  1
  V  V38  1  0.00330588  0.00507609  0.45925336  1
  V  V39  1  0.75363886  0.09744556  0.36233729  1
  V  V40  1  0.87491809  0.75472608  0.14228906  1
  V  V41  1  0.37492501  0.37343616  0.00443466  1
  V  V42  1  0.64130010  0.60817610  0.02367459  1
  V  V43  1  0.12731977  0.84604181  0.25297016  1
  V  V44  1  0.74596209  0.12119577  0.87808156  1
  V  V45  1  0.25003244  0.24883256  0.00382893  1
  V  V46  1  0.12437645  0.74610534  0.86745600  1
  V  V47  1  0.87905802  0.10888749  0.75053328  1
  V  V48  1  0.87684704  0.38733381  0.51558933  1
  V  V49  1  0.48519734  0.48427661  0.49742452  1
  V  V50  1  0.01032544  0.11035677  0.62159103  1
  V  V51  1  0.24297573  0.11371738  0.87661688  1
  V  V52  1  0.48902915  0.36625356  0.37629963  1
  V  V53  1  0.85938098  0.50536909  0.84392695  1
  V  V54  1  0.37514411  0.13215653  0.75813162  1
  V  V55  1  0.49334041  0.24547768  0.22981608  1
  V  V56  1  0.76277665  0.26071592  -0.00448142  1
  V  V57  1  0.24940536  -0.00244590  0.72837453  1
  V  V58  1  0.37836221  0.63063880  0.74331176  1
  V  V59  1  0.61891620  0.11614883  0.49367373  1
  V  V60  1  0.89135327  0.50839784  0.36657949  1
  V  V61  1  0.49704223  0.37100571  0.86787583  1
  V  V62  1  0.35960739  0.74689516  0.60859169  1
  V  V63  1  0.11089491  0.11390615  0.00538338  1
  V  V64  1  0.13007344  0.37492586  0.74895459  1
  V  V65  1  0.24016670  0.63275215  0.38215806  1
  V  V66  1  0.25109048  0.50554081  0.75219210  1
  V  V67  1  0.88319006  0.26252704  0.14706283  1
  V  V68  1  0.36943994  0.00022453  0.35550401  1
  V  V69  1  0.63896109  0.37135379  0.74474493  1
  Zn  Zn70  1  0.47628330  0.92484250  0.94400084  1
  Zn  Zn71  1  0.52120529  0.11214814  0.65358210  1
  Zn  Zn72  1  0.49801678  -0.00299503  0.49963150  1
  Zn  Zn73  1  0.20029608  0.76559467  0.50218545  1
  Zn  Zn74  1  0.42673635  0.66712083  0.19541324  1
  Zn  Zn75  1  0.64935248  -0.03102781  0.63375503  1
  Zn  Zn76  1  0.18253963  0.18927973  0.18592680  1
  Zn  Zn77  1  0.19076770  0.18518488  0.68488358  1
  Zn  Zn78  1  0.23529434  0.68779926  0.17691021  1
  Zn  Zn79  1  0.18471446  0.69178336  0.68979732  1
  Zn  Zn80  1  0.70252776  0.19987761  0.19859188  1
  Zn  Zn81  1  0.69798535  0.11898643  0.67897157  1
  Zn  Zn82  1  0.59077782  0.69439977  0.20388465  1
  Zn  Zn83  1  0.59337699  0.84658524  0.75092663  1
  Zn  Zn84  1  0.31601115  0.31691174  0.30169083  1
  Zn  Zn85  1  0.31148343  0.31280136  0.81513223  1
  Zn  Zn86  1  0.28601064  0.81340737  0.32202820  1
  Zn  Zn87  1  0.32038065  0.82047510  0.80425314  1
  Zn  Zn88  1  0.93606886  0.32867368  0.32956345  1
  Zn  Zn89  1  0.81602075  0.31085790  0.80844606  1
  Zn  Zn90  1  0.84987819  0.77762297  0.35046797  1
  Zn  Zn91  1  0.78402525  0.83256217  0.82163432  1
  Zn  Zn92  1  0.18336435  0.44533056  0.43630207  1
  Zn  Zn93  1  0.18517569  0.44245648  0.93628041  1
  Zn  Zn94  1  0.17708323  0.94537790  0.43023794  1
  Zn  Zn95  1  0.17599704  0.93235446  0.93530694  1
  Zn  Zn96  1  0.69401158  0.43298866  0.44214292  1
  Zn  Zn97  1  0.68659091  0.44196625  0.93426883  1
  Zn  Zn98  1  0.68374275  0.92129816  0.43978716  1
  Zn  Zn99  1  0.67141192  0.93310042  0.91023671  1
  Zn  Zn100  1  0.29894863  0.03595549  0.04316729  1
  Zn  Zn101  1  0.33938694  0.05619824  0.57364788  1
  Zn  Zn102  1  0.31510259  0.56510432  0.06340555  1
  Zn  Zn103  1  0.31211038  0.55038180  0.56324628  1
  Zn  Zn104  1  0.81708926  0.07728452  0.06547864  1
  Zn  Zn105  1  0.80862543  0.04861290  0.54177711  1
  Zn  Zn106  1  0.82814039  0.56291370  0.06784927  1
  Zn  Zn107  1  0.83352809  0.55456466  0.63603537  1
  Zn  Zn108  1  0.44126855  0.42978378  0.19277665  1
  Zn  Zn109  1  0.43645097  0.43380511  0.68370637  1
  Zn  Zn110  1  0.46363972  0.85376892  0.14817425  1
  Zn  Zn111  1  0.45464871  0.93140357  0.67063058  1
  Zn  Zn112  1  0.93514163  0.44888960  0.18107123  1
  Zn  Zn113  1  0.93809561  0.42429449  0.68653451  1
  Zn  Zn114  1  0.97064041  0.92289844  0.17684964  1
  Zn  Zn115  1  0.92711837  0.92611930  0.67854818  1
  Zn  Zn116  1  0.06093427  0.19278432  0.32107324  1
  Zn  Zn117  1  0.06268204  0.05521855  0.81322997  1
  Zn  Zn118  1  0.07713453  0.56499073  0.30609572  1
  Zn  Zn119  1  0.05200916  0.56675127  0.78942465  1
  Zn  Zn120  1  0.55168566  0.07444550  0.32208871  1
  Zn  Zn121  1  0.56674321  0.04254218  0.81684368  1
  Zn  Zn122  1  0.56328811  0.55577992  0.32130791  1
  Zn  Zn123  1  0.55603517  0.55356401  0.80304791  1
  Zn  Zn124  1  0.43369849  0.19067493  0.42684289  1
  Zn  Zn125  1  0.43035621  0.19247398  0.93034334  1
  Zn  Zn126  1  0.43780792  0.68301144  0.42995626  1
  Zn  Zn127  1  0.44442402  0.68881031  0.93220173  1
  Zn  Zn128  1  0.92610954  0.17787202  0.43883602  1
  Zn  Zn129  1  0.93523561  0.19119433  0.93822887  1
  Zn  Zn130  1  0.93422659  0.67375332  0.49161838  1
  Zn  Zn131  1  0.93206495  0.68881239  0.91704813  1
  Zn  Zn132  1  0.05944819  0.31656020  0.06220987  1
  Zn  Zn133  1  0.06370801  0.31211752  0.55587093  1
  Zn  Zn134  1  0.07980213  0.80591276  0.06251706  1
  Zn  Zn135  1  0.02751297  0.84290644  0.55982636  1
  Zn  Zn136  1  0.57075130  0.31863769  0.05773044  1
  Zn  Zn137  1  0.56651009  0.29881113  0.56234559  1
  Zn  Zn138  1  0.55000618  0.77718289  0.03317234  1
  Zn  Zn139  1  0.55631008  0.81607370  0.54871492  1
  O  O140  1  0.11079753  0.13481593  0.11140565  1
  O  O141  1  0.11752358  0.12556985  0.61604026  1
  O  O142  1  0.11760678  0.61412614  0.12526072  1
  O  O143  1  0.13014410  0.60681843  0.63704414  1
  O  O144  1  0.65635620  0.11157886  0.11165807  1
  O  O145  1  0.61716126  0.14863612  0.59546678  1
  O  O146  1  0.63081055  0.61417717  0.12133136  1
  O  O147  1  0.60515101  0.60327055  0.62335590  1
  O  O148  1  0.39066994  0.37697563  0.36763847  1
  O  O149  1  0.37730604  0.38174248  0.88579258  1
  O  O150  1  0.36883657  0.88106261  0.37911189  1
  O  O151  1  0.42347334  0.87517075  0.84128157  1
  O  O152  1  0.87839383  0.40601047  0.39900518  1
  O  O153  1  0.88825555  0.39190865  0.85376841  1
  O  O154  1  0.86256619  0.89022405  0.37797110  1
  O  O155  1  0.88135431  0.89131493  0.87041063  1
  O  O156  1  0.25264811  0.00670182  0.35934509  1
  O  O157  1  0.24163595  0.01291952  0.87880713  1
  O  O158  1  0.25994060  0.48505435  0.35949901  1
  O  O159  1  0.26263448  0.49522431  0.86676221  1
  O  O160  1  0.73952342  -0.00190991  0.37133128  1
  O  O161  1  0.76271878  0.01720485  0.88563011  1
  O  O162  1  0.75268665  0.51373040  0.37284951  1
  O  O163  1  0.76287584  0.49430819  0.86728167  1
  O  O164  1  0.24055344  0.49105476  0.12174134  1
  O  O165  1  0.24567765  0.48481055  0.63492382  1
  O  O166  1  0.24911274  1.00114487  0.14072785  1
  O  O167  1  0.24785938  1.00519787  0.62932889  1
  O  O168  1  0.76675868  0.49084166  0.14170413  1
  O  O169  1  0.72906536  0.50157200  0.62925741  1
  O  O170  1  0.70110868  1.05130982  0.10109076  1
  O  O171  1  0.74819297  1.02395085  0.63135344  1
  O  O172  1  0.00685304  0.38501250  0.24900615  1
  O  O173  1  0.01335404  0.36423612  0.75542528  1
  O  O174  1  0.02570855  0.85552052  0.24662330  1
  O  O175  1  0.01059894  0.88434023  0.75429450  1
  O  O176  1  0.51605775  0.37517805  0.25960928  1
  O  O177  1  0.49058329  0.37222307  0.76627605  1
  O  O178  1  0.47846821  0.86280169  0.26390377  1
  O  O179  1  0.47939027  0.89066345  0.77693838  1
  O  O180  1  0.50343445  0.14678704  0.25000551  1
  O  O181  1  0.47588012  0.12057199  0.76805625  1
  O  O182  1  0.51201071  0.63111217  0.25995710  1
  O  O183  1  0.48565433  0.61235758  0.72618004  1
  O  O184  1  1.01156041  0.13718338  0.23256835  1
  O  O185  1  1.00037311  0.12877625  0.74371928  1
  O  O186  1  1.00695597  0.62928140  0.23966381  1
  O  O187  1  0.96815154  0.63323806  0.72863999  1
  O  O188  1  0.36019431  0.26026396  -0.00692385  1
  O  O189  1  0.37485519  0.23827826  0.51549041  1
  O  O190  1  0.36072911  0.75390251  -0.02561191  1
  O  O191  1  0.37252669  0.75532575  0.50208674  1
  O  O192  1  0.86606088  0.26484718  -0.00782158  1
  O  O193  1  0.85729554  0.24098587  0.51683167  1
  O  O194  1  0.85452605  0.75031110  -0.02616638  1
  O  O195  1  0.89421352  0.77325052  0.46112781  1
  O  O196  1  0.12527216  0.23332422  0.50455775  1
  O  O197  1  0.12954320  0.25004463  0.99043989  1
  O  O198  1  0.08725223  0.74378297  0.53159416  1
  O  O199  1  0.13273958  0.75081251  0.97286894  1
  O  O200  1  0.64052421  0.24878205  0.48855732  1
  O  O201  1  0.64457142  0.26466763  0.98584591  1
  O  O202  1  0.64360038  0.79976445  0.47059990  1
  O  O203  1  0.64824920  0.71908383  1.00583619  1
  O  O204  1  0.51027330  0.25691949  0.12951900  1
  O  O205  1  0.48490110  0.24362491  0.62734782  1
  O  O206  1  0.50745560  0.74346317  0.13781433  1
  O  O207  1  0.49579867  0.72814749  0.60405600  1
  O  O208  1  0.98541777  0.25428902  0.12081229  1
  O  O209  1  1.00427301  0.24255629  0.63738396  1
  O  O210  1  1.00208829  0.73649822  0.11643255  1
  O  O211  1  0.97711438  0.66305582  0.65682175  1
  O  O212  1  -0.00836459  0.25066684  0.38636927  1
  O  O213  1  0.00527483  0.25606271  0.86533220  1
  O  O214  1  0.05400394  0.68292345  0.48788154  1
  O  O215  1  0.00708285  0.76506762  0.86803473  1
  O  O216  1  0.49843197  0.26249982  0.36263124  1
  O  O217  1  0.51204677  0.25905388  0.89370806  1
  O  O218  1  0.51865940  0.75744672  0.38703275  1
  O  O219  1  0.53549788  0.75821826  0.90992215  1
  O  O220  1  0.24372873  0.12036687  0.48962951  1
  O  O221  1  0.23472489  0.13154228  0.99644731  1
  O  O222  1  0.27871973  0.60549806  0.47208662  1
  O  O223  1  0.25514404  0.63179462  0.98430253  1
  O  O224  1  0.73880224  0.13140432  0.48729540  1
  O  O225  1  0.76355005  0.14393401  0.98267581  1
  O  O226  1  0.74824063  0.61556731  0.51648074  1
  O  O227  1  0.73942973  0.59434524  1.00503992  1
  O  O228  1  0.25293421  0.36944309  0.00295263  1
  O  O229  1  0.24545213  0.37648468  0.51185299  1
  O  O230  1  0.25630202  0.91735729  0.01470276  1
  O  O231  1  0.25314422  0.87095394  0.49217835  1
  O  O232  1  0.74867894  0.38110033  0.01514312  1
  O  O233  1  0.76456124  0.35666373  0.49536228  1
  O  O234  1  0.73387984  0.86716658  -0.01237997  1
  O  O235  1  0.77539350  0.89532472  0.50836193  1
  O  O236  1  0.13396680  0.48775575  0.23552283  1
  O  O237  1  0.13446615  0.49074213  0.74951547  1
  O  O238  1  0.12845122  0.99317525  0.24902793  1
  O  O239  1  0.13544839  0.99116971  0.75131170  1
  O  O240  1  0.64024840  0.49079775  0.25768944  1
  O  O241  1  0.61332077  0.47965070  0.73779809  1
  O  O242  1  0.59881930  1.00572369  0.22506752  1
  O  O243  1  0.60562645  1.04824661  0.71298664  1
  O  O244  1  0.36591603  -0.00046100  0.25840106  1
  O  O245  1  0.35307853  0.02092639  0.74643576  1
  O  O246  1  0.35894589  0.49551213  0.23677666  1
  O  O247  1  0.36826257  0.50372682  0.75399299  1
  O  O248  1  0.86605287  -0.01913528  0.24293176  1
  O  O249  1  0.88017700  0.00686791  0.74989188  1
  O  O250  1  0.86518306  0.50192943  0.26412284  1
  O  O251  1  0.86678970  0.50016455  0.73801656  1
  O  O252  1  0.12373463  0.38400947  0.35798126  1
  O  O253  1  0.12001265  0.36827834  0.86712023  1
  O  O254  1  0.14779134  0.86464277  0.35363173  1
  O  O255  1  0.10884438  0.87327546  0.86568487  1
  O  O256  1  0.62760449  0.37479280  0.36520082  1
  O  O257  1  0.61680865  0.37510317  0.86491101  1
  O  O258  1  0.59554852  0.89939571  0.36256517  1
  O  O259  1  0.68666150  0.88678297  0.80545789  1
  O  O260  1  0.40017915  0.10594107  0.07560654  1
  O  O261  1  0.35664595  0.14464023  0.64378341  1
  O  O262  1  0.33445479  0.64699140  0.13594010  1
  O  O263  1  0.37845803  0.63152118  0.62227406  1
  O  O264  1  0.88345067  0.14845148  0.12505479  1
  O  O265  1  0.89224514  0.13379864  0.63376783  1
  O  O266  1  0.89593935  0.63763869  0.12126735  1
  O  O267  1  0.79787016  0.66813041  0.67097838  1
  O  O268  1  0.24031642  0.26086826  0.11274554  1
  O  O269  1  0.25079472  0.26333791  0.62698954  1
  O  O270  1  0.23827778  0.77108467  0.08140281  1
  O  O271  1  0.25563382  0.73849026  0.60560992  1
  O  O272  1  0.76434812  0.26355754  0.11909010  1
  O  O273  1  0.75880694  0.22885168  0.63825082  1
  O  O274  1  0.77420397  0.75041030  0.10329917  1
  O  O275  1  0.73572378  0.77256206  0.60952966  1
  O  O276  1  0.26684130  0.23591385  0.36610593  1
  O  O277  1  0.23695837  0.24451172  0.88317415  1
  O  O278  1  0.22942676  0.73592446  0.39429334  1
  O  O279  1  0.24035663  0.76515210  0.87569067  1
  O  O280  1  0.75653658  0.24270682  0.37673288  1
  O  O281  1  0.74760265  0.24992580  0.87854333  1
  O  O282  1  0.75253619  0.71930526  0.38947190  1
  O  O283  1  0.72749278  0.74473912  0.88650765  1
  O  O284  1  0.00746480  0.13395979  0.00586107  1
  O  O285  1  0.00258795  0.11839736  0.51330794  1
  O  O286  1  0.00304697  0.61906320  -0.01276855  1
  O  O287  1  -0.07086748  0.62340155  0.59817829  1
  O  O288  1  0.44401663  0.08075903  0.01317057  1
  O  O289  1  0.51517393  0.12428890  0.47651078  1
  O  O290  1  0.50425134  0.61106826  0.00203410  1
  O  O291  1  0.48896345  0.60230011  0.50346421  1
  O  O292  1  0.50442558  0.37150259  0.48709601  1
  O  O293  1  0.49152132  0.38521901  0.99337542  1
  O  O294  1  0.47802626  0.87827608  0.48234071  1
  O  O295  1  0.50505499  0.87928775  1.04355922  1
  O  O296  1  0.97646623  0.36850650  0.51405527  1
  O  O297  1  1.00366346  0.38078016  0.98131682  1
  O  O298  1  1.01253646  0.90164823  0.46017284  1
  O  O299  1  1.00678687  0.87046408  0.98642761  1
  O  O300  1  0.50787707  0.48475896  0.39129672  1
  O  O301  1  0.48724028  0.49003428  0.88025030  1
  O  O302  1  0.47817026  0.99462857  0.37298874  1
  O  O303  1  0.56992520  0.98238848  0.90900627  1
  O  O304  1  0.98959362  0.51544752  0.36589965  1
  O  O305  1  1.00221075  0.49703910  0.87439175  1
  O  O306  1  0.99774202  1.03198665  0.36732640  1
  O  O307  1  0.98942189  0.99146922  0.87863846  1
  O  O308  1  -0.01689743  0.02277815  0.12823340  1
  O  O309  1  0.00235620  0.01328041  0.63234435  1
  O  O310  1  0.00256333  0.51572678  0.11079991  1
  O  O311  1  0.01913710  0.49038645  0.64070543  1
  O  O312  1  0.55559560  -0.00924582  0.16701904  1
  O  O313  1  0.45706396  0.02532298  0.60569237  1
  O  O314  1  0.49177163  0.49526605  0.11155121  1
  O  O315  1  0.50044206  0.49667464  0.61130037  1
  O  O316  1  0.24067229  0.38056656  0.23751758  1
  O  O317  1  0.24172420  0.38222754  0.75040387  1
  O  O318  1  0.24289579  0.88821763  0.23827965  1
  O  O319  1  0.24729241  0.89428072  0.75027233  1
  O  O320  1  0.74125843  0.37941895  0.24345465  1
  O  O321  1  0.73784392  0.37214504  0.74821371  1
  O  O322  1  0.81077134  0.98995597  0.19506836  1
  O  O323  1  0.74545488  0.83064862  0.65213396  1
  O  O324  1  0.23732532  0.11798734  0.25926837  1
  O  O325  1  0.24114507  0.11547612  0.76048679  1
  O  O326  1  0.23914657  0.60414794  0.26675533  1
  O  O327  1  0.26260546  0.61305295  0.74215183  1
  O  O328  1  0.74410095  0.11904747  0.26199066  1
  O  O329  1  0.76972062  0.13350737  0.77177175  1
  O  O330  1  0.74336323  0.61285850  0.24666683  1
  O  O331  1  0.80196232  0.69284843  0.74387634  1
  O  O332  1  0.36086330  0.10908299  0.38060149  1
  O  O333  1  0.35489089  0.13491381  0.86708050  1
  O  O334  1  0.35728315  0.65943013  0.34744135  1
  O  O335  1  0.38995276  0.61597159  0.85797638  1
  O  O336  1  0.85241831  0.11277891  0.38458187  1
  O  O337  1  0.88092516  0.11153086  0.87002555  1
  O  O338  1  0.86774184  0.60538820  0.41276644  1
  O  O339  1  0.88255104  0.60270196  0.86032790  1
  O  O340  1  0.12949212  0.38434681  0.12686536  1
  O  O341  1  0.13578959  0.37617209  0.63364796  1
  O  O342  1  0.13863678  0.87293366  0.13568045  1
  O  O343  1  0.11334755  0.87295017  0.63392296  1
  O  O344  1  0.64328542  0.37862724  0.13266684  1
  O  O345  1  0.61702138  0.37387979  0.63803095  1
  O  O346  1  0.69226701  0.88619585  0.19108455  1
  O  O347  1  0.57066877  0.88523234  0.64280739  1
  O  O348  1  0.12312671  0.26778798  0.24823916  1
  O  O349  1  0.12242776  0.25437875  0.75957949  1
  O  O350  1  0.15856858  0.74956696  0.23810430  1
  O  O351  1  0.13856083  0.77459860  0.75549244  1
  O  O352  1  0.62037001  0.26573170  0.24529980  1
  O  O353  1  0.62156643  0.26496232  0.76734316  1
  O  O354  1  0.64304353  0.75927647  0.28680612  1
  O  O355  1  0.61143639  0.73206883  0.77053856  1
  O  O356  1  0.39342666  0.26538764  0.23563752  1
  O  O357  1  0.36522119  0.23884686  0.74904140  1
  O  O358  1  0.35766669  0.72235552  0.28869656  1
  O  O359  1  0.36559115  0.74091059  0.72599034  1
  O  O360  1  0.87998984  0.26255830  0.24552485  1
  O  O361  1  0.88658385  0.23980741  0.74425327  1
  O  O362  1  0.86619084  0.75117141  0.24164565  1
  O  O363  1  0.84741691  0.76106728  0.75412622  1
  O  O364  1  0.38665801  0.47962327  0.50474468  1
  O  O365  1  0.38135891  0.49675831  0.99239830  1
  O  O366  1  0.35987599  0.98315562  0.48703114  1
  O  O367  1  0.39954587  1.01607283  0.97538705  1
  O  O368  1  0.86679809  0.48328302  0.54119729  1
  O  O369  1  0.89519677  0.50126824  0.99253516  1
  O  O370  1  0.89907189  0.99466261  0.49878454  1
  O  O371  1  0.87488838  1.00317788  0.99589518  1
  O  O372  1  0.11719954  0.01596237  -0.00252433  1
  O  O373  1  0.11228809  0.02092707  0.48794319  1
  O  O374  1  0.11112094  0.49511255  0.00545154  1
  O  O375  1  0.12455157  0.49395328  0.51898900  1
  O  O376  1  0.65130655  -0.11266336  0.13109305  1
  O  O377  1  0.62112705  0.00851987  0.50945272  1
  O  O378  1  0.60828825  0.50071614  -0.00153204  1
  O  O379  1  0.61764676  0.48032672  0.51664901  1
  O  O380  1  0.36211117  0.38186643  0.11069091  1
  O  O381  1  0.36234513  0.36033793  0.63089758  1
  O  O382  1  0.35004889  0.86764788  0.13504225  1
  O  O383  1  0.37680847  0.85697994  0.60783360  1
  O  O384  1  0.86616533  0.36999232  0.13025082  1
  O  O385  1  0.87041710  0.34930724  0.62694666  1
  O  O386  1  0.89876214  0.85070773  0.12150899  1
  O  O387  1  0.91872807  0.85914325  0.58957320  1
  O  O388  1  0.14097893  0.13567605  0.38434141  1
  O  O389  1  0.12283184  0.13317895  0.88527418  1
  O  O390  1  0.14420766  0.59841535  0.38914535  1
  O  O391  1  0.11453529  0.64860362  0.84444786  1
  O  O392  1  0.63761580  0.11737895  0.38415912  1
  O  O393  1  0.64266333  0.13466893  0.87066072  1
  O  O394  1  0.63503351  0.62964983  0.39659999  1
  O  O395  1  0.61810694  0.61375773  0.88050842  1
