# generated using pymatgen
data_V35Zn35O128
_symmetry_space_group_name_H-M   'P 1'
_cell_length_a   16.90004787
_cell_length_b   16.86616588
_cell_length_c   16.88588280
_cell_angle_alpha   90.01709413
_cell_angle_beta   89.95144106
_cell_angle_gamma   90.00696637
_symmetry_Int_Tables_number   1
_chemical_formula_structural   V35Zn35O128
_chemical_formula_sum   'V70 Zn70 O256'
_cell_volume   4813.13334916
_cell_formula_units_Z   2
loop_
 _symmetry_equiv_pos_site_id
 _symmetry_equiv_pos_as_xyz
  1  'x, y, z'
loop_
 _atom_site_type_symbol
 _atom_site_label
 _atom_site_symmetry_multiplicity
 _atom_site_fract_x
 _atom_site_fract_y
 _atom_site_fract_z
 _atom_site_occupancy
  V  V0  1  -0.00078452  0.01503511  0.50020066  1
  V  V1  1  0.12753157  0.73606909  0.37187388  1
  V  V2  1  0.88227595  0.86141577  0.51051351  1
  V  V3  1  0.24671609  0.88045309  0.13117665  1
  V  V4  1  0.12307299  0.88551634  0.25765426  1
  V  V5  1  0.87946223  0.24383239  0.61175573  1
  V  V6  1  -0.00388936  0.87478118  0.37487548  1
  V  V7  1  0.49226881  0.00351034  -0.01070559  1
  V  V8  1  0.24332145  0.37984201  0.62608423  1
  V  V9  1  0.62362288  0.51050835  0.61958727  1
  V  V10  1  0.24044397  0.62541658  0.87511624  1
  V  V11  1  0.12708910  0.62219421  0.51705054  1
  V  V12  1  0.87661048  0.73906018  0.12281500  1
  V  V13  1  0.12290263  0.01377912  0.62073661  1
  V  V14  1  0.87741810  0.10855012  0.26199874  1
  V  V15  1  0.86527147  0.63063298  0.76019246  1
  V  V16  1  0.85067112  0.34873952  -0.00231297  1
  V  V17  1  0.12094040  0.60653787  0.02426307  1
  V  V18  1  0.62829130  0.64631520  0.48806138  1
  V  V19  1  0.63256355  0.48502772  0.11113441  1
  V  V20  1  0.76023400  0.37644156  0.61147514  1
  V  V21  1  0.38797577  0.37962957  0.00341886  1
  V  V22  1  0.88217931  0.11677766  0.76380704  1
  V  V23  1  0.37412079  0.89937999  0.48674459  1
  V  V24  1  0.37977849  0.50564815  0.87355534  1
  V  V25  1  0.35919212  0.63182103  0.25278823  1
  V  V26  1  0.24015648  0.50185895  0.74711682  1
  V  V27  1  -0.00992376  0.49256505  0.50422912  1
  V  V28  1  0.76386298  0.88397113  0.13700080  1
  V  V29  1  0.24458228  0.48655224  0.23206180  1
  V  V30  1  0.62739223  0.37180421  0.24387482  1
  V  V31  1  0.82880998  0.23575379  0.12719799  1
  V  V32  1  0.38231001  0.62831284  0.74838536  1
  V  V33  1  0.24742471  0.87218514  0.62763106  1
  V  V34  1  0.89437842  0.88990641  -0.01098867  1
  V  V35  1  0.54225714  0.65882413  0.15064101  1
  V  V36  1  0.49939937  0.37775565  0.37477581  1
  V  V37  1  0.75413946  -0.00113304  0.75753562  1
  V  V38  1  0.36900465  0.11501655  0.25261426  1
  V  V39  1  0.61489383  0.36159394  0.74387911  1
  V  V40  1  0.37268952  0.37534906  0.50539010  1
  V  V41  1  0.50665231  0.75565398  0.76582197  1
  V  V42  1  0.11694789  0.37484229  0.76159953  1
  V  V43  1  0.26102126  0.00515828  0.75339173  1
  V  V44  1  0.36780036  0.50841838  0.37322362  1
  V  V45  1  0.88665307  0.48616661  0.87397526  1
  V  V46  1  0.23923518  0.75090316  -0.00142983  1
  V  V47  1  0.51810319  0.53168715  -0.00618627  1
  V  V48  1  0.36897671  0.74652496  0.12368802  1
  V  V49  1  -0.00022755  0.24791995  0.75764616  1
  V  V50  1  0.24087053  0.11986017  0.37207634  1
  V  V51  1  0.01150729  0.13949568  0.13194568  1
  V  V52  1  0.75348386  0.86065962  0.62082777  1
  V  V53  1  0.74408000  0.50202004  0.75941086  1
  V  V54  1  0.24247083  0.13899493  0.88305030  1
  V  V55  1  0.62126562  0.23883641  0.39059050  1
  V  V56  1  -0.01724861  0.63455698  0.63263835  1
  V  V57  1  0.37472774  0.25565469  0.12475077  1
  V  V58  1  0.50062385  0.51277315  0.50141928  1
  V  V59  1  0.37462951  0.15558863  0.73739848  1
  V  V60  1  0.38565778  0.75202345  0.61678048  1
  V  V61  1  0.63058038  0.87170786  0.75979788  1
  V  V62  1  0.49773708  0.24366795  0.24348029  1
  V  V63  1  0.12347867  0.27282349  0.35835222  1
  V  V64  1  0.23966203  0.24978771  0.50165505  1
  V  V65  1  0.23797848  0.26843337  0.00238404  1
  V  V66  1  0.50624050  0.36485669  0.87081255  1
  V  V67  1  0.76550054  0.64023568  0.37069967  1
  V  V68  1  0.53133958  0.86754590  0.33231825  1
  V  V69  1  0.11667132  0.86626594  0.76407262  1
  Zn  Zn70  1  0.25168689  0.74522437  0.49762312  1
  Zn  Zn71  1  0.74376207  0.49960125  0.25205937  1
  Zn  Zn72  1  0.62531322  0.02328421  0.61617608  1
  Zn  Zn73  1  0.75308878  0.11621894  0.37678779  1
  Zn  Zn74  1  0.87527567  0.45920137  0.38714888  1
  Zn  Zn75  1  0.12256389  0.01162513  0.13216117  1
  Zn  Zn76  1  0.19283915  0.20121113  0.18878950  1
  Zn  Zn77  1  0.18987469  0.19356930  0.68739091  1
  Zn  Zn78  1  0.18096529  0.68553297  0.19367632  1
  Zn  Zn79  1  0.18730777  0.68876650  0.68990503  1
  Zn  Zn80  1  0.70601142  0.03619031  0.18808098  1
  Zn  Zn81  1  0.70893610  0.19471694  0.69660539  1
  Zn  Zn82  1  0.72299704  0.67454716  0.16911912  1
  Zn  Zn83  1  0.68832800  0.68883101  0.68017380  1
  Zn  Zn84  1  0.31315782  0.31558906  0.31723203  1
  Zn  Zn85  1  0.31125189  0.31826807  0.81704168  1
  Zn  Zn86  1  0.30515257  0.81461035  0.31619458  1
  Zn  Zn87  1  0.31751222  0.81007898  0.81276833  1
  Zn  Zn88  1  0.80141731  0.29900660  0.32000640  1
  Zn  Zn89  1  0.80704273  0.31354079  0.81014486  1
  Zn  Zn90  1  0.82849183  0.80774336  0.30531267  1
  Zn  Zn91  1  0.83265907  0.82842462  0.81021837  1
  Zn  Zn92  1  0.18595461  0.44729182  0.44300581  1
  Zn  Zn93  1  0.18830885  0.43818270  0.93790203  1
  Zn  Zn94  1  0.18762290  0.93391974  0.44221720  1
  Zn  Zn95  1  0.22895631  0.92052228  0.91848090  1
  Zn  Zn96  1  0.68951234  0.44403580  0.43054290  1
  Zn  Zn97  1  0.67572920  0.23946133  0.90470348  1
  Zn  Zn98  1  0.69158855  0.92259166  0.43504463  1
  Zn  Zn99  1  0.71302592  0.97745363  0.96597051  1
  Zn  Zn100  1  0.30145233  0.07490957  0.06937765  1
  Zn  Zn101  1  0.30800798  0.06884738  0.56443062  1
  Zn  Zn102  1  0.31516701  0.56362904  0.05966114  1
  Zn  Zn103  1  0.31508720  0.56507773  0.56587853  1
  Zn  Zn104  1  0.83451309  0.06638085  0.05415648  1
  Zn  Zn105  1  0.81763503  0.05146084  0.57119652  1
  Zn  Zn106  1  0.82293789  0.53622802  0.06544762  1
  Zn  Zn107  1  0.80852091  0.56813779  0.55844275  1
  Zn  Zn108  1  0.44417954  0.44679458  0.18490297  1
  Zn  Zn109  1  0.43549143  0.44218456  0.68376293  1
  Zn  Zn110  1  0.43987172  0.93798068  0.18164989  1
  Zn  Zn111  1  0.44635124  0.94751174  0.67864410  1
  Zn  Zn112  1  0.96480818  0.29813197  0.25853911  1
  Zn  Zn113  1  0.94017930  0.44501674  0.68520310  1
  Zn  Zn114  1  0.92497212  0.95531467  0.16895405  1
  Zn  Zn115  1  0.94522086  0.93675411  0.68597709  1
  Zn  Zn116  1  0.05748390  0.07059228  0.31721770  1
  Zn  Zn117  1  0.07675855  0.07043812  0.80057959  1
  Zn  Zn118  1  0.06061780  0.46008386  0.31629803  1
  Zn  Zn119  1  0.02459303  0.61319990  0.85522623  1
  Zn  Zn120  1  0.55004015  0.05497485  0.32540236  1
  Zn  Zn121  1  0.57867052  0.13170284  0.76715075  1
  Zn  Zn122  1  0.56412035  0.56619275  0.31266733  1
  Zn  Zn123  1  0.56446280  0.56653162  0.81561775  1
  Zn  Zn124  1  0.42538450  0.19207216  0.43280612  1
  Zn  Zn125  1  0.42844378  0.18722093  0.92920896  1
  Zn  Zn126  1  0.44827102  0.70313069  0.42660189  1
  Zn  Zn127  1  0.55267659  0.71368316  0.96531237  1
  Zn  Zn128  1  0.94424958  0.20271233  0.42835307  1
  Zn  Zn129  1  0.93494865  0.19134819  0.94378508  1
  Zn  Zn130  1  0.94781036  0.68360512  0.43629838  1
  Zn  Zn131  1  0.96862660  0.72753970  0.97017743  1
  Zn  Zn132  1  0.03207062  0.28515702  0.04821492  1
  Zn  Zn133  1  0.06270929  0.31068259  0.56817517  1
  Zn  Zn134  1  0.06100164  0.80745087  0.07683040  1
  Zn  Zn135  1  0.06351243  0.80987427  0.56686826  1
  Zn  Zn136  1  0.65289678  0.15239924  0.06252755  1
  Zn  Zn137  1  0.56478458  0.32202666  0.56181513  1
  Zn  Zn138  1  0.58440602  0.83343833  0.13321258  1
  Zn  Zn139  1  0.54906307  0.85324269  0.57035013  1
  O  O140  1  0.11921885  0.13034536  0.14058232  1
  O  O141  1  0.13189491  0.11305985  0.62663424  1
  O  O142  1  0.12025675  0.61818791  0.12440735  1
  O  O143  1  0.11449567  0.62828290  0.62113765  1
  O  O144  1  0.61650392  0.09259802  0.14886878  1
  O  O145  1  0.62694612  0.12470607  0.66573229  1
  O  O146  1  0.63030075  0.59454327  0.13783001  1
  O  O147  1  0.63399096  0.61698252  0.60445036  1
  O  O148  1  0.38258556  0.38801612  0.38411268  1
  O  O149  1  0.38187124  0.38905658  0.87843613  1
  O  O150  1  0.34719126  0.88903836  0.38922650  1
  O  O151  1  0.33284205  0.88676813  0.88967803  1
  O  O152  1  0.89421739  0.35424650  0.34708715  1
  O  O153  1  0.88245768  0.38794677  0.84650416  1
  O  O154  1  0.89197267  0.87183441  0.38577975  1
  O  O155  1  0.88245513  0.88387941  0.88774466  1
  O  O156  1  0.23496395  0.02195891  0.38374663  1
  O  O157  1  0.24501042  0.02127342  0.86039288  1
  O  O158  1  0.26638640  0.49983439  0.37431547  1
  O  O159  1  0.26117256  0.50430454  0.86668049  1
  O  O160  1  0.71111010  0.00387196  0.35010459  1
  O  O161  1  0.75335898  -0.01148021  0.85642121  1
  O  O162  1  0.76671392  0.49745767  0.36670564  1
  O  O163  1  0.74419575  0.49674539  0.85655038  1
  O  O164  1  0.25678796  0.49829907  0.13229068  1
  O  O165  1  0.25788514  0.49343676  0.63766620  1
  O  O166  1  0.23749412  0.98572743  0.10969975  1
  O  O167  1  0.24099599  0.99454223  0.63163372  1
  O  O168  1  0.73870137  0.48953393  0.13268403  1
  O  O169  1  0.74105189  0.49241080  0.62532584  1
  O  O170  1  0.80173448  0.99025768  0.13898174  1
  O  O171  1  0.75361443  0.98325691  0.63879377  1
  O  O172  1  -0.01077911  0.41349881  0.23143027  1
  O  O173  1  0.01201493  0.37076705  0.74441767  1
  O  O174  1  0.01088732  0.87824791  0.26924165  1
  O  O175  1  0.01648089  0.88077068  0.75189308  1
  O  O176  1  0.49882012  0.36889891  0.25911006  1
  O  O177  1  0.50878827  0.39289659  0.75788723  1
  O  O178  1  0.52745093  0.88020916  0.22431234  1
  O  O179  1  0.51665896  0.86508010  0.74820333  1
  O  O180  1  0.48186402  0.13733611  0.26387303  1
  O  O181  1  0.46936321  0.12572755  0.75506894  1
  O  O182  1  0.49313496  0.61952143  0.23425908  1
  O  O183  1  0.49110668  0.63831234  0.75398783  1
  O  O184  1  0.99012696  0.13506530  0.24947853  1
  O  O185  1  0.99474579  0.13383072  0.74720381  1
  O  O186  1  0.99474695  0.59948432  0.23175943  1
  O  O187  1  0.97722399  0.61668124  0.74126487  1
  O  O188  1  0.37810711  0.26012844  0.00884528  1
  O  O189  1  0.35729863  0.26947373  0.48925652  1
  O  O190  1  0.35119001  0.74207573  0.02163737  1
  O  O191  1  0.37204198  0.73793707  0.51270958  1
  O  O192  1  0.85304029  0.22304860  0.02241452  1
  O  O193  1  0.88342027  0.25081634  0.51252658  1
  O  O194  1  0.86737809  0.76829481  0.00354139  1
  O  O195  1  0.88542024  0.76335607  0.50105771  1
  O  O196  1  0.13589874  0.26053905  0.49053791  1
  O  O197  1  0.14048823  0.28449506  1.01160061  1
  O  O198  1  0.12628663  0.73888861  0.49710287  1
  O  O199  1  0.13708633  0.73196531  1.01313146  1
  O  O200  1  0.62052478  0.25723770  0.48915848  1
  O  O201  1  0.61701706  0.23296297  0.99730678  1
  O  O202  1  0.61602289  0.74205221  0.50257904  1
  O  O203  1  0.58000398  0.80349972  1.02320235  1
  O  O204  1  0.49148455  0.24567144  0.14257611  1
  O  O205  1  0.49416941  0.21887240  0.58906914  1
  O  O206  1  0.47016164  0.75308347  0.13466138  1
  O  O207  1  0.48598210  0.75944048  0.62831020  1
  O  O208  1  1.00587992  0.25021220  0.15352073  1
  O  O209  1  0.98491308  0.25821810  0.63470994  1
  O  O210  1  0.97833860  0.72726474  0.09863768  1
  O  O211  1  0.99908300  0.73444615  0.62695328  1
  O  O212  1  0.02080270  0.25470775  0.36170105  1
  O  O213  1  -0.00249269  0.24703664  0.85632816  1
  O  O214  1  0.01468393  0.76695689  0.38517194  1
  O  O215  1  -0.00053124  0.72307412  0.86414303  1
  O  O216  1  0.49753580  0.26338158  0.37342826  1
  O  O217  1  0.48701263  0.26740040  0.87011639  1
  O  O218  1  0.47740684  0.78128603  0.35164877  1
  O  O219  1  0.50216435  0.75379107  0.86418552  1
  O  O220  1  0.25458898  0.14409419  0.48814358  1
  O  O221  1  0.24858669  0.14373616  0.99130962  1
  O  O222  1  0.23223234  0.62360246  0.51183054  1
  O  O223  1  0.23959468  0.62770690  0.99524565  1
  O  O224  1  0.73405720  0.07792029  0.49035459  1
  O  O225  1  0.73006873  0.08134891  1.01200334  1
  O  O226  1  0.73753010  0.62472380  0.48479875  1
  O  O227  1  0.70802274  0.70286958  0.95549959  1
  O  O228  1  0.27144056  0.37211726  -0.00762650  1
  O  O229  1  0.25391836  0.37717194  0.50792909  1
  O  O230  1  0.23111082  0.85875885  0.01822988  1
  O  O231  1  0.25831987  0.87301391  0.51326034  1
  O  O232  1  0.77326546  0.31853871  -0.06264702  1
  O  O233  1  0.74586550  0.38064740  0.51265402  1
  O  O234  1  0.77676942  0.89589245  0.01329889  1
  O  O235  1  0.77052945  0.87948753  0.50929092  1
  O  O236  1  0.14643201  0.49962510  0.25387560  1
  O  O237  1  0.13770991  0.48810672  0.75126187  1
  O  O238  1  0.12288138  0.98799416  0.25671103  1
  O  O239  1  0.13436165  0.99326911  0.73720969  1
  O  O240  1  0.61697080  0.48079473  0.25050651  1
  O  O241  1  0.63012036  0.50906514  0.73889608  1
  O  O242  1  0.65432366  1.00158282  0.29041310  1
  O  O243  1  0.64297741  0.97985490  0.74785568  1
  O  O244  1  0.37762055  0.01682564  0.23830947  1
  O  O245  1  0.36038674  -0.00411630  0.73933717  1
  O  O246  1  0.37136983  0.51128356  0.25418491  1
  O  O247  1  0.37081365  0.50940590  0.75464814  1
  O  O248  1  0.89786804  0.01013315  0.26884047  1
  O  O249  1  0.87816530  0.00955327  0.74651277  1
  O  O250  1  0.92538471  0.57869393  0.23254898  1
  O  O251  1  0.85827489  0.50194954  0.75170941  1
  O  O252  1  0.12426475  0.37706271  0.37633043  1
  O  O253  1  0.12892762  0.37525387  0.86035344  1
  O  O254  1  0.12367871  0.86895642  0.36923117  1
  O  O255  1  0.13624714  0.88327997  0.86211219  1
  O  O256  1  0.61182748  0.36957879  0.37181187  1
  O  O257  1  0.61264519  0.36263412  0.85520882  1
  O  O258  1  0.62371781  0.85672040  0.37343704  1
  O  O259  1  0.64466103  0.86057046  0.85448739  1
  O  O260  1  0.36308695  0.14202495  0.14226575  1
  O  O261  1  0.36091273  0.13301173  0.63830039  1
  O  O262  1  0.36470757  0.63570023  0.13960864  1
  O  O263  1  0.36944806  0.64016909  0.63825870  1
  O  O264  1  0.88679743  0.13277562  0.14011130  1
  O  O265  1  0.86863248  0.14025431  0.62826740  1
  O  O266  1  0.83160307  0.63963747  0.10657824  1
  O  O267  1  0.87630168  0.62687705  0.63409015  1
  O  O268  1  0.26138702  0.25494113  0.11006044  1
  O  O269  1  0.24481000  0.26102371  0.60831270  1
  O  O270  1  0.24720698  0.75897560  0.12466638  1
  O  O271  1  0.26133242  0.76050231  0.62909061  1
  O  O272  1  0.73296301  0.21666914  0.13193766  1
  O  O273  1  0.76425403  0.26714222  0.62701321  1
  O  O274  1  0.76161792  0.77451954  0.12112014  1
  O  O275  1  0.76229044  0.76064082  0.62823600  1
  O  O276  1  0.24022995  0.25492488  0.38463989  1
  O  O277  1  0.24962104  0.25305886  0.89210113  1
  O  O278  1  0.23352641  0.75008425  0.38159687  1
  O  O279  1  0.25409851  0.74031859  0.89237326  1
  O  O280  1  0.72429622  0.23291638  0.37135321  1
  O  O281  1  0.72164128  0.24331393  0.80343669  1
  O  O282  1  0.75948397  0.74049519  0.36831148  1
  O  O283  1  0.75167916  0.76086881  0.94725168  1
  O  O284  1  0.00668535  0.15983706  0.02802487  1
  O  O285  1  -0.00036599  0.11342767  0.48791243  1
  O  O286  1  0.02633785  0.62169387  -0.01373209  1
  O  O287  1  0.00511012  0.62110828  0.51486358  1
  O  O288  1  0.50161275  0.11164901  -0.01485511  1
  O  O289  1  0.48963013  0.16394503  0.53692548  1
  O  O290  1  0.50701016  0.63416169  0.05023306  1
  O  O291  1  0.51151851  0.62000554  0.48655619  1
  O  O292  1  0.49060096  0.38683830  0.49482730  1
  O  O293  1  0.49502775  0.38562092  0.97906699  1
  O  O294  1  0.46943827  0.86262501  0.48927747  1
  O  O295  1  0.47157654  0.90176125  0.99424182  1
  O  O296  1  1.00699995  0.39435215  0.51483517  1
  O  O297  1  0.95187478  0.33139753  0.98238367  1
  O  O298  1  0.99562078  0.88006082  0.49801498  1
  O  O299  1  0.99566479  0.85577552  0.99688732  1
  O  O300  1  0.49253749  0.49510206  0.38137564  1
  O  O301  1  0.49098254  0.49322341  0.87710330  1
  O  O302  1  0.49696231  0.96141996  0.35942411  1
  O  O303  1  0.47962696  0.99772553  0.88746334  1
  O  O304  1  0.98944156  0.50113406  0.39432142  1
  O  O305  1  0.98461284  0.50290500  0.87404384  1
  O  O306  1  1.01691576  0.98619995  0.39343779  1
  O  O307  1  1.05028706  1.01631369  0.92704090  1
  O  O308  1  0.00712189  0.02770217  0.12921876  1
  O  O309  1  0.01471502  0.00131740  0.61549328  1
  O  O310  1  -0.02485633  0.47600230  0.10833873  1
  O  O311  1  -0.00414423  0.51747926  0.61617248  1
  O  O312  1  0.49851561  0.00182716  0.09698219  1
  O  O313  1  0.52843717  -0.03569939  0.60677889  1
  O  O314  1  0.51671098  0.49461888  0.10616604  1
  O  O315  1  0.50787125  0.50183055  0.61201939  1
  O  O316  1  0.26356249  0.38819797  0.24731535  1
  O  O317  1  0.24274034  0.38141150  0.74503837  1
  O  O318  1  0.23480826  0.87492175  0.24130233  1
  O  O319  1  0.24580456  0.88811503  0.74324929  1
  O  O320  1  0.72733192  0.36941539  0.25852542  1
  O  O321  1  0.73101975  0.38850496  0.73625094  1
  O  O322  1  0.77187232  0.87867308  0.23988022  1
  O  O323  1  0.75359256  0.87516919  0.74001723  1
  O  O324  1  0.25875117  0.13206817  0.26061587  1
  O  O325  1  0.25511053  0.11926490  0.75024578  1
  O  O326  1  0.25797491  0.61274121  0.25395026  1
  O  O327  1  0.25785593  0.62001865  0.75482474  1
  O  O328  1  0.77274987  0.11017209  0.25321359  1
  O  O329  1  0.77140789  0.10562021  0.74711592  1
  O  O330  1  0.74699025  0.61735043  0.26652222  1
  O  O331  1  0.75394960  0.61124828  0.73943169  1
  O  O332  1  0.35935810  0.13014822  0.36396583  1
  O  O333  1  0.35103837  0.14188393  0.85626358  1
  O  O334  1  0.38686255  0.62210996  0.35906335  1
  O  O335  1  0.36514718  0.61613766  0.86396148  1
  O  O336  1  0.87214866  0.14012903  0.36536111  1
  O  O337  1  0.88242924  0.12553850  0.86307047  1
  O  O338  1  0.86620790  0.62683359  0.38147477  1
  O  O339  1  0.86476317  0.60105877  0.86079700  1
  O  O340  1  0.02118824  0.43402357  0.14887888  1
  O  O341  1  0.13923985  0.37687597  0.63329884  1
  O  O342  1  0.12451836  0.87437094  0.14453291  1
  O  O343  1  0.13555375  0.87950682  0.63087127  1
  O  O344  1  0.62016581  0.37747375  0.13974099  1
  O  O345  1  0.62775592  0.39057350  0.62959357  1
  O  O346  1  0.66547296  0.91494516  0.12774747  1
  O  O347  1  0.64866285  0.86351768  0.62894949  1
  O  O348  1  0.14068034  0.27365605  0.25964041  1
  O  O349  1  0.11274663  0.26255356  0.74065744  1
  O  O350  1  0.12446234  0.75599632  0.26584088  1
  O  O351  1  0.13417840  0.76666468  0.75154366  1
  O  O352  1  0.60285252  0.26013270  0.26300922  1
  O  O353  1  0.59465394  0.26963280  0.71816365  1
  O  O354  1  0.61077583  0.72975537  0.18205443  1
  O  O355  1  0.61270324  0.75022950  0.74331572  1
  O  O356  1  0.38231781  0.25281107  0.24539368  1
  O  O357  1  0.36791601  0.25727810  0.74004433  1
  O  O358  1  0.35551270  0.73737315  0.24572977  1
  O  O359  1  0.38670007  0.74959908  0.74438329  1
  O  O360  1  0.86037398  0.24662016  0.23135741  1
  O  O361  1  0.88635159  0.23872923  0.74478112  1
  O  O362  1  0.88262609  0.74493223  0.22451696  1
  O  O363  1  0.85597709  0.72949090  0.76697662  1
  O  O364  1  0.38233838  0.50172981  0.49398813  1
  O  O365  1  0.39193649  0.50466175  0.99244252  1
  O  O366  1  0.37550483  0.99842214  0.50590861  1
  O  O367  1  0.38876671  1.02601493  1.00452859  1
  O  O368  1  0.88414101  0.50006744  0.50309211  1
  O  O369  1  0.85387285  0.46599779  0.98154470  1
  O  O370  1  0.89638210  0.99196530  0.50701864  1
  O  O371  1  0.90449963  0.99160576  1.00352533  1
  O  O372  1  0.10718763  0.00618684  -0.02690551  1
  O  O373  1  0.12026924  -0.00364177  0.51476603  1
  O  O374  1  0.13546506  0.50686807  0.00777424  1
  O  O375  1  0.11316149  0.51806662  0.49672935  1
  O  O376  1  0.59437391  -0.00822296  -0.01833178  1
  O  O377  1  0.66787216  0.02474919  0.49960665  1
  O  O378  1  0.62761183  0.48990107  0.00999986  1
  O  O379  1  0.61463830  0.50213263  0.50251447  1
  O  O380  1  0.38924380  0.36982164  0.11354287  1
  O  O381  1  0.36643732  0.38239035  0.61308211  1
  O  O382  1  0.35312229  0.86632654  0.13795461  1
  O  O383  1  0.36806962  0.86608710  0.61801552  1
  O  O384  1  0.83065089  0.34649239  0.10058741  1
  O  O385  1  0.86325454  0.37325945  0.63000994  1
  O  O386  1  0.88563450  0.86224669  0.11499930  1
  O  O387  1  0.87510628  0.87432381  0.61692564  1
  O  O388  1  0.13807677  0.14616411  0.36419356  1
  O  O389  1  0.14284297  0.14031256  0.86171963  1
  O  O390  1  0.11393592  0.63824419  0.38678493  1
  O  O391  1  0.14187142  0.61530419  0.86732808  1
  O  O392  1  0.59733694  0.14013075  0.38460776  1
  O  O393  1  0.62524049  0.13954139  0.86737460  1
  O  O394  1  0.63105286  0.62748359  0.38278723  1
  O  O395  1  0.56745449  0.60591373  0.92404319  1
