# generated using pymatgen
data_V35Zn35O128
_symmetry_space_group_name_H-M   'P 1'
_cell_length_a   16.86481108
_cell_length_b   16.87681418
_cell_length_c   16.87380846
_cell_angle_alpha   90.08238491
_cell_angle_beta   89.98137298
_cell_angle_gamma   90.01616109
_symmetry_Int_Tables_number   1
_chemical_formula_structural   V35Zn35O128
_chemical_formula_sum   'V70 Zn70 O256'
_cell_volume   4802.69022409
_cell_formula_units_Z   2
loop_
 _symmetry_equiv_pos_site_id
 _symmetry_equiv_pos_as_xyz
  1  'x, y, z'
loop_
 _atom_site_type_symbol
 _atom_site_label
 _atom_site_symmetry_multiplicity
 _atom_site_fract_x
 _atom_site_fract_y
 _atom_site_fract_z
 _atom_site_occupancy
  V  V0  1  0.63344197  0.10923696  0.01535624  1
  V  V1  1  0.50054489  0.61288264  0.12226236  1
  V  V2  1  0.12041428  0.00196242  0.12007027  1
  V  V3  1  0.75935635  0.25706476  0.01994225  1
  V  V4  1  0.26343426  0.50165725  0.74951012  1
  V  V5  1  0.12469494  0.51319933  0.12930531  1
  V  V6  1  0.74436768  0.49617018  0.74639454  1
  V  V7  1  0.51100783  0.24037275  0.78457797  1
  V  V8  1  0.62077702  0.37235564  0.19622251  1
  V  V9  1  0.24707336  0.61887120  0.88880905  1
  V  V10  1  0.88600649  0.87891417  0.49452806  1
  V  V11  1  0.73461894  0.11252184  0.37414996  1
  V  V12  1  0.25927597  0.01003534  0.25975660  1
  V  V13  1  0.00311636  0.37469198  0.87232178  1
  V  V14  1  0.12906627  -0.03185533  0.62867271  1
  V  V15  1  0.61629396  0.87444680  0.75209539  1
  V  V16  1  0.37934088  0.64080669  0.75386796  1
  V  V17  1  0.87323238  0.50877895  0.87002490  1
  V  V18  1  0.48841672  0.86512514  0.88220407  1
  V  V19  1  0.12632704  0.38464413  0.74784825  1
  V  V20  1  0.74417269  0.88486712  0.62101530  1
  V  V21  1  0.87790257  0.63881571  0.75114732  1
  V  V22  1  0.37776936  0.49958759  0.38019717  1
  V  V23  1  0.12268333  0.75511644  0.86734969  1
  V  V24  1  0.37700432  0.37897535  -0.01438517  1
  V  V25  1  0.86072955  0.86455590  0.01138457  1
  V  V26  1  0.24616478  0.23635293  -0.00511452  1
  V  V27  1  0.12503730  0.24073960  0.87382260  1
  V  V28  1  0.37983989  0.00623677  0.39464358  1
  V  V29  1  0.62306317  0.59522109  0.51388921  1
  V  V30  1  0.48855852  0.12408178  0.13476633  1
  V  V31  1  0.75305202  -0.00103990  0.76838779  1
  V  V32  1  0.63901277  0.62738045  -0.00119083  1
  V  V33  1  0.01329650  0.11649434  0.60994737  1
  V  V34  1  0.01635261  0.62597218  0.62904504  1
  V  V35  1  0.24884441  0.37619467  0.12589088  1
  V  V36  1  0.88192596  0.24519336  0.60495968  1
  V  V37  1  0.87042477  0.13986133  0.24909483  1
  V  V38  1  0.49178337  -0.00468655  0.00270140  1
  V  V39  1  0.74571400  0.49923879  0.22549934  1
  V  V40  1  0.63292300  0.88853431  0.23643089  1
  V  V41  1  0.73164116  0.75057719  0.49841967  1
  V  V42  1  0.10654959  0.88360072  0.26276167  1
  V  V43  1  0.37533030  0.62890643  0.24653594  1
  V  V44  1  0.28458276  0.86821609  0.61252113  1
  V  V45  1  -0.00449000  0.13432488  0.12588818  1
  V  V46  1  0.75186016  0.15005423  0.86882705  1
  V  V47  1  0.37751751  0.24956841  0.13247248  1
  V  V48  1  0.64827830  0.75044476  0.88051318  1
  V  V49  1  0.50029991  0.37207599  0.39807555  1
  V  V50  1  0.73104462  0.24138210  0.49304211  1
  V  V51  1  0.36582219  0.12528645  0.74828456  1
  V  V52  1  0.23545788  0.21467999  0.45919101  1
  V  V53  1  0.88630648  0.12667267  0.74766058  1
  V  V54  1  0.26931812  0.37089436  0.62307056  1
  V  V55  1  0.88788852  -0.00522236  0.36526190  1
  V  V56  1  -0.00873423  -0.00236089  -0.00596116  1
  V  V57  1  0.00959721  0.51367915  0.00366864  1
  V  V58  1  0.49858515  0.49796113  -0.01775807  1
  V  V59  1  0.51108250  0.75307832  0.23523357  1
  V  V60  1  0.25728318  0.87218292  0.13085579  1
  V  V61  1  0.36051971  0.00479483  0.87489960  1
  V  V62  1  0.11319290  0.36484184  0.25542368  1
  V  V63  1  0.49836020  0.86743468  0.38863104  1
  V  V64  1  0.88427379  0.72855704  0.14559115  1
  V  V65  1  -0.00277038  0.87429452  0.86498814  1
  V  V66  1  0.24689806  0.75987945  0.00901301  1
  V  V67  1  0.14919784  0.74989391  0.36682580  1
  V  V68  1  0.88120535  0.37806942  0.01982109  1
  V  V69  1  0.50597767  0.62582750  0.63838269  1
  Zn  Zn70  1  0.73274680  0.62065854  0.36167902  1
  Zn  Zn71  1  0.03746049  0.49621975  0.52297269  1
  Zn  Zn72  1  0.75126268  0.38595502  0.60509320  1
  Zn  Zn73  1  0.25407222  0.50344284  0.24957864  1
  Zn  Zn74  1  0.52766173  0.24417135  0.27156475  1
  Zn  Zn75  1  0.88111384  0.75858747  0.62683000  1
  Zn  Zn76  1  0.18722403  0.18854723  0.18998138  1
  Zn  Zn77  1  0.18843596  0.19498258  0.68848443  1
  Zn  Zn78  1  0.17718094  0.68953553  0.20431934  1
  Zn  Zn79  1  0.19633010  0.69425182  0.68981499  1
  Zn  Zn80  1  0.68511422  0.17166745  0.18319241  1
  Zn  Zn81  1  0.68098725  0.24882811  0.68203301  1
  Zn  Zn82  1  0.69411802  0.69194131  0.17750766  1
  Zn  Zn83  1  0.69428339  0.68941718  0.69170563  1
  Zn  Zn84  1  0.31144980  0.31295649  0.31952057  1
  Zn  Zn85  1  0.31298214  0.30290067  0.80570231  1
  Zn  Zn86  1  0.32230569  0.81615070  0.30854298  1
  Zn  Zn87  1  0.30541700  0.81780321  0.81105663  1
  Zn  Zn88  1  0.75442481  0.28973475  0.28782089  1
  Zn  Zn89  1  0.82760481  0.31780248  0.79954706  1
  Zn  Zn90  1  0.81245334  0.80183278  0.31325386  1
  Zn  Zn91  1  0.81719299  0.82290872  0.81816051  1
  Zn  Zn92  1  0.19743819  0.43432246  0.43544207  1
  Zn  Zn93  1  0.18783756  0.43453111  0.94154487  1
  Zn  Zn94  1  0.19115777  0.93646085  0.44768545  1
  Zn  Zn95  1  0.17955532  0.93396606  0.94004589  1
  Zn  Zn96  1  0.70009072  0.42400133  0.42766941  1
  Zn  Zn97  1  0.69445729  0.44298466  0.94853709  1
  Zn  Zn98  1  0.70593663  0.91146790  0.39776704  1
  Zn  Zn99  1  0.68227360  0.93733589  0.94231890  1
  Zn  Zn100  1  0.30950866  0.05750154  0.06462829  1
  Zn  Zn101  1  0.29287333  0.06331148  0.56454111  1
  Zn  Zn102  1  0.31517970  0.56403418  0.06305197  1
  Zn  Zn103  1  0.37923286  0.50923235  0.59200887  1
  Zn  Zn104  1  0.82561294  0.07116131  0.04948739  1
  Zn  Zn105  1  0.81172604  0.06166802  0.55821798  1
  Zn  Zn106  1  0.82217692  0.56929082  0.06657792  1
  Zn  Zn107  1  0.81152558  0.57176888  0.57349569  1
  Zn  Zn108  1  0.44113082  0.43391211  0.18851612  1
  Zn  Zn109  1  0.45620608  0.43211123  0.71566262  1
  Zn  Zn110  1  0.43679490  0.93531175  0.19082981  1
  Zn  Zn111  1  0.41499891  0.98165134  0.66193903  1
  Zn  Zn112  1  0.94367126  0.46330671  0.20612078  1
  Zn  Zn113  1  0.95703598  0.41580934  0.65250703  1
  Zn  Zn114  1  0.93150501  0.93697991  0.18441564  1
  Zn  Zn115  1  0.93450325  0.94389376  0.67998830  1
  Zn  Zn116  1  0.06412191  0.07549869  0.31408895  1
  Zn  Zn117  1  0.07204290  0.05434330  0.80452687  1
  Zn  Zn118  1  0.09515546  0.55657412  0.34987122  1
  Zn  Zn119  1  0.06458701  0.56684532  0.80995843  1
  Zn  Zn120  1  0.55347445  0.05003045  0.31175335  1
  Zn  Zn121  1  0.56436901  0.06289888  0.82018809  1
  Zn  Zn122  1  0.59478927  0.51542294  0.32833597  1
  Zn  Zn123  1  0.56623169  0.56776978  0.81689124  1
  Zn  Zn124  1  0.41493193  0.19961425  0.43920786  1
  Zn  Zn125  1  0.43049252  0.17858836  0.94477959  1
  Zn  Zn126  1  0.49273488  0.65929714  0.41274103  1
  Zn  Zn127  1  0.42567918  0.68833549  0.94583775  1
  Zn  Zn128  1  0.95302738  0.17744616  0.42648067  1
  Zn  Zn129  1  0.93633519  0.18889458  0.93807191  1
  Zn  Zn130  1  0.92740008  0.67757609  0.46104435  1
  Zn  Zn131  1  0.93849662  0.69395537  0.94132562  1
  Zn  Zn132  1  0.06500205  0.31739683  0.06230494  1
  Zn  Zn133  1  0.07180092  0.30616732  0.55864378  1
  Zn  Zn134  1  0.06105521  0.80762109  0.06193762  1
  Zn  Zn135  1  0.06715283  0.79551345  0.55289767  1
  Zn  Zn136  1  0.57651980  0.30895834  -0.03715784  1
  Zn  Zn137  1  0.56646776  0.32973318  0.56820791  1
  Zn  Zn138  1  0.57014923  0.81243836  0.06324690  1
  Zn  Zn139  1  0.54788330  0.80893759  0.57672023  1
  O  O140  1  0.10913965  0.11084663  0.13496118  1
  O  O141  1  0.11176444  0.13620592  0.63083070  1
  O  O142  1  0.13146614  0.61208421  0.13192066  1
  O  O143  1  0.11692352  0.63329444  0.63689764  1
  O  O144  1  0.59688999  0.13332646  0.11862008  1
  O  O145  1  0.51709048  0.16539496  0.57913620  1
  O  O146  1  0.61106703  0.63618661  0.10404705  1
  O  O147  1  0.61529367  0.62320800  0.63145817  1
  O  O148  1  0.38582549  0.38850611  0.36438848  1
  O  O149  1  0.36797488  0.37059473  0.88780822  1
  O  O150  1  0.39083671  0.88571239  0.36601006  1
  O  O151  1  0.38558436  0.88301651  0.87121317  1
  O  O152  1  0.87849893  0.39200825  0.37590935  1
  O  O153  1  0.89073652  0.38711400  0.87172901  1
  O  O154  1  0.86733539  0.88302628  0.38410880  1
  O  O155  1  0.89221680  0.86977648  0.89173725  1
  O  O156  1  0.26395635  -0.00837254  0.36559396  1
  O  O157  1  0.26220741  -0.01339319  0.88369487  1
  O  O158  1  0.27253696  0.49611390  0.36464857  1
  O  O159  1  0.24324929  0.51577750  0.87901117  1
  O  O160  1  0.76064947  0.01076956  0.37962506  1
  O  O161  1  0.75994958  -0.00545890  0.86833425  1
  O  O162  1  0.71138738  0.50370836  0.35109923  1
  O  O163  1  0.77069983  0.50101021  0.87813686  1
  O  O164  1  0.24002306  0.49345931  0.11770045  1
  O  O165  1  0.25737984  0.49741625  0.64802394  1
  O  O166  1  0.23717803  0.99311960  0.12983685  1
  O  O167  1  0.24465022  0.97420605  0.62606348  1
  O  O168  1  0.74806349  0.50353364  0.12358702  1
  O  O169  1  0.76080011  0.49598026  0.64041996  1
  O  O170  1  0.71307983  1.07124813  0.06514648  1
  O  O171  1  0.74458208  0.98907293  0.62624950  1
  O  O172  1  0.01379763  0.38540135  0.25232448  1
  O  O173  1  0.01750509  0.38264425  0.75650406  1
  O  O174  1  0.00810113  0.88901217  0.25568926  1
  O  O175  1  -0.01505815  0.88415491  0.76690933  1
  O  O176  1  0.51677007  0.35918945  0.22958957  1
  O  O177  1  0.50055703  0.33706492  0.75274752  1
  O  O178  1  0.51027116  0.86401419  0.23966379  1
  O  O179  1  0.51512890  0.87993990  0.76964057  1
  O  O180  1  0.50019316  0.12921190  0.23752051  1
  O  O181  1  0.48785063  0.12873229  0.76677514  1
  O  O182  1  0.50153410  0.63318890  0.23010478  1
  O  O183  1  0.48885029  0.62506055  0.75433577  1
  O  O184  1  0.98405424  0.12299704  0.23468210  1
  O  O185  1  0.98702984  0.11863420  0.74833306  1
  O  O186  1  0.94897790  0.61813423  0.30340706  1
  O  O187  1  0.98785493  0.62795584  0.74845908  1
  O  O188  1  0.36277294  0.25881043  0.00219173  1
  O  O189  1  0.32789650  0.24748684  0.49324768  1
  O  O190  1  0.34768401  0.75163438  0.00187309  1
  O  O191  1  0.37519585  0.72727550  0.49086929  1
  O  O192  1  0.87679345  0.27195956  -0.00186348  1
  O  O193  1  0.88256107  0.23646652  0.50216711  1
  O  O194  1  0.87568381  0.76125877  0.00634985  1
  O  O195  1  0.86071035  0.76212754  0.50227452  1
  O  O196  1  0.15247382  0.26164551  0.49913395  1
  O  O197  1  0.13833611  0.25681410  0.99062410  1
  O  O198  1  0.10328675  0.74407233  0.45750912  1
  O  O199  1  0.13530309  0.75334104  0.99180440  1
  O  O200  1  0.63350417  0.24130086  0.50291575  1
  O  O201  1  0.65496144  0.22605901  1.00308301  1
  O  O202  1  0.63154875  0.75658541  0.50699516  1
  O  O203  1  0.62546884  0.74248007  0.98941957  1
  O  O204  1  0.48103139  0.23595269  0.11499536  1
  O  O205  1  0.48765047  0.23578118  0.60102199  1
  O  O206  1  0.49977874  0.74550676  0.12977378  1
  O  O207  1  0.49442606  0.72731225  0.63237212  1
  O  O208  1  1.00381907  0.23181401  0.11014891  1
  O  O209  1  0.98871091  0.23447879  0.62013899  1
  O  O210  1  0.98346424  0.75960197  0.12466825  1
  O  O211  1  0.99541014  0.73438986  0.62027404  1
  O  O212  1  -0.05979140  0.36505510  0.40272786  1
  O  O213  1  0.01332418  0.26225537  0.88507046  1
  O  O214  1  -0.01442432  0.66500677  0.35831352  1
  O  O215  1  0.01181359  0.76195022  0.88087008  1
  O  O216  1  0.48262819  0.26630514  0.37381361  1
  O  O217  1  0.50949036  0.24291935  0.89031835  1
  O  O218  1  0.49741373  0.76145858  0.35702443  1
  O  O219  1  0.49397818  0.76472045  0.88804492  1
  O  O220  1  0.23251077  0.11499618  0.48547492  1
  O  O221  1  0.24966089  0.13765984  1.00405039  1
  O  O222  1  0.31676452  0.68729194  0.50667210  1
  O  O223  1  0.24955052  0.63370988  0.99365464  1
  O  O224  1  0.75067582  0.12647540  0.48361694  1
  O  O225  1  0.79034692  0.15741893  0.97344887  1
  O  O226  1  0.72821915  0.63900271  0.52201285  1
  O  O227  1  0.73700196  0.61820943  1.00148009  1
  O  O228  1  0.26079325  0.37227090  0.00769485  1
  O  O229  1  0.25010583  0.39271116  0.52692463  1
  O  O230  1  0.24092170  0.87031971  0.01813791  1
  O  O231  1  0.25485866  0.86651148  0.51410107  1
  O  O232  1  0.76844364  0.36723478  0.00436899  1
  O  O233  1  0.75365193  0.34854619  0.49176393  1
  O  O234  1  0.76269199  0.88030257  -0.00549576  1
  O  O235  1  0.74604142  0.86616862  0.50164148  1
  O  O236  1  0.13344176  0.49113677  0.23589836  1
  O  O237  1  0.14066245  0.49007963  0.76275924  1
  O  O238  1  0.13142752  0.99783035  0.25128894  1
  O  O239  1  0.13160821  1.00012138  0.72993647  1
  O  O240  1  0.62024384  0.47851568  0.22000336  1
  O  O241  1  0.64639924  0.51097817  0.76217942  1
  O  O242  1  0.61811713  0.98867793  0.23752000  1
  O  O243  1  0.63813721  0.98479028  0.76635014  1
  O  O244  1  0.36079840  0.00087120  0.24671962  1
  O  O245  1  0.38002966  0.00816712  0.77008650  1
  O  O246  1  0.37772485  0.51188457  0.24488086  1
  O  O247  1  0.36459126  0.50236968  0.76754970  1
  O  O248  1  0.87180942  -0.00287266  0.26262126  1
  O  O249  1  0.85883022  0.01347787  0.74055013  1
  O  O250  1  0.84365066  0.48966986  0.25108315  1
  O  O251  1  0.87334577  0.50940695  0.76543269  1
  O  O252  1  0.14389221  0.37417483  0.35111565  1
  O  O253  1  0.11832680  0.37232440  0.87238962  1
  O  O254  1  0.12971981  0.87442436  0.36564658  1
  O  O255  1  0.11123883  0.86791279  0.87749698  1
  O  O256  1  0.60183152  0.37422743  0.38054929  1
  O  O257  1  0.62758938  0.37705286  0.89144211  1
  O  O258  1  0.60114603  0.88434441  0.36046129  1
  O  O259  1  0.61811657  0.86232861  0.87652563  1
  O  O260  1  0.37777368  0.13557192  0.11821391  1
  O  O261  1  0.37464207  0.09452945  0.64565204  1
  O  O262  1  0.39048721  0.62350747  0.12994795  1
  O  O263  1  0.37947832  0.62011918  0.64953387  1
  O  O264  1  0.88163222  0.11810576  0.13783643  1
  O  O265  1  0.88675457  0.12350251  0.62806880  1
  O  O266  1  0.89250929  0.62583920  0.13229131  1
  O  O267  1  0.88179701  0.63106697  0.64196307  1
  O  O268  1  0.25551729  0.25468560  0.11259131  1
  O  O269  1  0.26068257  0.27167118  0.64123021  1
  O  O270  1  0.23457146  0.76392008  0.12208783  1
  O  O271  1  0.26378166  0.76421601  0.63431535  1
  O  O272  1  0.76394174  0.23852097  0.11607341  1
  O  O273  1  0.76375715  0.22649175  0.60200244  1
  O  O274  1  0.77907869  0.74191314  0.12553727  1
  O  O275  1  0.75116014  0.76576798  0.61864766  1
  O  O276  1  0.24327427  0.23157045  0.35678692  1
  O  O277  1  0.24081094  0.25241239  0.88722061  1
  O  O278  1  0.24862628  0.76081226  0.37515939  1
  O  O279  1  0.23870239  0.75461951  0.88804273  1
  O  O280  1  0.75021469  0.22923051  0.38358388  1
  O  O281  1  0.74656713  0.24859129  0.85654042  1
  O  O282  1  0.74993768  0.73463713  0.39441972  1
  O  O283  1  0.74656980  0.75419816  0.88191362  1
  O  O284  1  -0.01557805  0.10919619  0.01056290  1
  O  O285  1  0.00169133  0.11333330  0.51207867  1
  O  O286  1  0.00084452  0.61147713  -0.00496799  1
  O  O287  1  -0.00585996  0.60950133  0.52374694  1
  O  O288  1  0.50829590  0.11149056  0.00648701  1
  O  O289  1  0.49280464  0.13723525  0.51035541  1
  O  O290  1  0.49272734  0.61486385  0.00530155  1
  O  O291  1  0.51360907  0.61532147  0.52294232  1
  O  O292  1  0.49129740  0.37459857  0.49850124  1
  O  O293  1  0.48808580  0.38670911  0.99762345  1
  O  O294  1  0.50080455  0.86086520  0.48790396  1
  O  O295  1  0.50258634  0.88502171  0.99499305  1
  O  O296  1  1.00124776  0.39130091  0.54473584  1
  O  O297  1  0.99411814  0.38430660  0.99312108  1
  O  O298  1  0.98306974  0.86732617  0.50065266  1
  O  O299  1  0.99566387  0.88791122  0.99798950  1
  O  O300  1  0.49218965  0.48161107  0.36757558  1
  O  O301  1  0.49336409  0.50541714  0.88363426  1
  O  O302  1  0.48859667  0.98627365  0.37857788  1
  O  O303  1  0.49074984  0.99168650  0.88888353  1
  O  O304  1  0.99291159  0.55196426  0.28864428  1
  O  O305  1  0.99956012  0.49496519  0.88616872  1
  O  O306  1  0.98654035  1.00282505  0.37302097  1
  O  O307  1  1.01263936  0.99145459  0.88813205  1
  O  O308  1  0.00638116  0.00377243  0.11600044  1
  O  O309  1  0.01334508  0.00922620  0.63075239  1
  O  O310  1  0.01362320  0.49992980  0.11471933  1
  O  O311  1  0.00563326  0.51856106  0.64201073  1
  O  O312  1  0.48212596  0.01205341  0.11459456  1
  O  O313  1  0.53461182  0.01829184  0.63080741  1
  O  O314  1  0.50106054  0.51045091  0.11285108  1
  O  O315  1  0.48875419  0.51367965  0.64133591  1
  O  O316  1  0.25236173  0.37568248  0.23136455  1
  O  O317  1  0.24851141  0.38744624  0.75614252  1
  O  O318  1  0.24296709  0.88661776  0.23986216  1
  O  O319  1  0.25344075  0.86278821  0.72253452  1
  O  O320  1  0.72855679  0.38368219  0.23403312  1
  O  O321  1  0.75730703  0.39488385  0.75648308  1
  O  O322  1  0.72789111  0.87209558  0.27875347  1
  O  O323  1  0.74898618  0.88624062  0.74459323  1
  O  O324  1  0.24436981  0.10798684  0.24469000  1
  O  O325  1  0.26574906  0.13624496  0.75252911  1
  O  O326  1  0.27340426  0.62811846  0.23719808  1
  O  O327  1  0.25865919  0.61700095  0.76084552  1
  O  O328  1  0.75968427  0.12257668  0.25812900  1
  O  O329  1  0.74819397  0.11086843  0.76411627  1
  O  O330  1  0.72649696  0.60704981  0.24586323  1
  O  O331  1  0.76840884  0.61516786  0.74852322  1
  O  O332  1  0.38918026  0.10515823  0.37558003  1
  O  O333  1  0.36740057  0.11079130  0.87488125  1
  O  O334  1  0.40048584  0.61121523  0.35385473  1
  O  O335  1  0.35567169  0.63215888  0.87086180  1
  O  O336  1  0.87316202  0.11337509  0.36070135  1
  O  O337  1  0.86881783  0.13458166  0.85493731  1
  O  O338  1  0.84798766  0.58930390  0.41760549  1
  O  O339  1  0.88593940  0.61652326  0.86941801  1
  O  O340  1  0.13339505  0.38341241  0.12789234  1
  O  O341  1  0.14009203  0.37213463  0.64766057  1
  O  O342  1  0.12342817  0.89197176  0.13908526  1
  O  O343  1  0.11467739  0.86802586  0.62758272  1
  O  O344  1  0.62319018  0.36458067  0.09886806  1
  O  O345  1  0.64810007  0.34850605  0.63848893  1
  O  O346  1  0.63765340  0.86772728  0.13662619  1
  O  O347  1  0.62438854  0.86848461  0.64657340  1
  O  O348  1  0.11997783  0.26565556  0.23282939  1
  O  O349  1  0.13718588  0.26808392  0.76961201  1
  O  O350  1  0.12228184  0.77851654  0.25441344  1
  O  O351  1  0.13093143  0.75333671  0.76860199  1
  O  O352  1  0.63857356  0.26304250  0.23814389  1
  O  O353  1  0.60807339  0.21702124  0.75828299  1
  O  O354  1  0.61356258  0.75090453  0.24480118  1
  O  O355  1  0.63536304  0.76327472  0.76798547  1
  O  O356  1  0.37174392  0.25465636  0.23125519  1
  O  O357  1  0.39057266  0.23106773  0.76199868  1
  O  O358  1  0.38991317  0.73631095  0.25028022  1
  O  O359  1  0.37509326  0.73918007  0.75863348  1
  O  O360  1  0.86491432  0.23835117  0.25569897  1
  O  O361  1  0.86485362  0.23032360  0.73100838  1
  O  O362  1  0.88100812  0.74632710  0.24765069  1
  O  O363  1  0.86820420  0.74163342  0.75375303  1
  O  O364  1  0.37712751  0.51352591  0.47903131  1
  O  O365  1  0.38323460  0.48807557  1.00219559  1
  O  O366  1  0.36998297  1.00168025  0.49341740  1
  O  O367  1  0.38307849  1.00356594  0.99110043  1
  O  O368  1  0.84597854  0.52746922  0.46889106  1
  O  O369  1  0.88774954  0.49343637  0.99317127  1
  O  O370  1  0.87120518  0.98568182  0.49020865  1
  O  O371  1  0.88612646  0.98817031  0.99918847  1
  O  O372  1  0.11634033  -0.00082184  0.01504576  1
  O  O373  1  0.12936138  -0.00720788  0.52637376  1
  O  O374  1  0.11591053  0.49738118  0.01002788  1
  O  O375  1  0.11760876  0.51337913  0.44859103  1
  O  O376  1  0.60382810  0.00203104  -0.00281894  1
  O  O377  1  0.56275159  0.00518575  0.56357083  1
  O  O378  1  0.61030320  0.51937285  -0.01039401  1
  O  O379  1  0.64233223  0.49871150  0.51495488  1
  O  O380  1  0.36974105  0.36390681  0.11448694  1
  O  O381  1  0.37038351  0.39301752  0.63511983  1
  O  O382  1  0.35622000  0.87586449  0.12978312  1
  O  O383  1  0.38625852  0.88371229  0.61775777  1
  O  O384  1  0.89001829  0.38519402  0.11638856  1
  O  O385  1  0.86538800  0.34727882  0.63021455  1
  O  O386  1  0.86904373  0.87801183  0.11326795  1
  O  O387  1  0.86417721  0.87939686  0.61167999  1
  O  O388  1  0.04996218  0.17254426  0.36866451  1
  O  O389  1  0.11570197  0.14216688  0.86747721  1
  O  O390  1  0.14378912  0.65435331  0.32331044  1
  O  O391  1  0.13793090  0.63889009  0.87167199  1
  O  O392  1  0.63531266  0.11216863  0.36463396  1
  O  O393  1  0.65257575  0.11261308  0.89957703  1
  O  O394  1  0.60862686  0.61539961  0.40773986  1
  O  O395  1  0.62280784  0.64391479  0.88439768  1
