# generated using pymatgen
data_V35Zn35O128
_symmetry_space_group_name_H-M   'P 1'
_cell_length_a   16.93165432
_cell_length_b   16.90116038
_cell_length_c   16.89980526
_cell_angle_alpha   90.22469148
_cell_angle_beta   89.76460101
_cell_angle_gamma   90.13179641
_symmetry_Int_Tables_number   1
_chemical_formula_structural   V35Zn35O128
_chemical_formula_sum   'V70 Zn70 O256'
_cell_volume   4836.03547804
_cell_formula_units_Z   2
loop_
 _symmetry_equiv_pos_site_id
 _symmetry_equiv_pos_as_xyz
  1  'x, y, z'
loop_
 _atom_site_type_symbol
 _atom_site_label
 _atom_site_symmetry_multiplicity
 _atom_site_fract_x
 _atom_site_fract_y
 _atom_site_fract_z
 _atom_site_occupancy
  V  V0  1  0.62920228  0.23390372  0.87285596  1
  V  V1  1  -0.01087030  0.87489067  0.37963595  1
  V  V2  1  0.36701431  0.23760328  0.11401389  1
  V  V3  1  0.49624964  0.88839983  0.38348477  1
  V  V4  1  0.87225101  0.00524245  0.39733690  1
  V  V5  1  0.25676233  0.63270368  0.87810340  1
  V  V6  1  0.61907076  0.49606561  0.62409694  1
  V  V7  1  0.48919014  0.74213893  0.25121506  1
  V  V8  1  0.24689671  0.48485686  0.75804408  1
  V  V9  1  0.47717161  0.50054211  0.50477691  1
  V  V10  1  -0.01075477  0.50960482  -0.00835878  1
  V  V11  1  0.11570694  0.25532132  0.36225905  1
  V  V12  1  0.39416292  0.37949069  0.01040677  1
  V  V13  1  0.12927842  0.87016273  0.25353682  1
  V  V14  1  0.37331251  0.75844487  0.62849147  1
  V  V15  1  0.11805779  0.11345437  -0.00377082  1
  V  V16  1  0.38533110  0.13196161  0.75752111  1
  V  V17  1  0.86636089  0.52887366  0.87006490  1
  V  V18  1  0.50027986  0.00801487  0.00141626  1
  V  V19  1  0.24024243  0.74105994  0.49929214  1
  V  V20  1  0.75911827  0.75632727  0.02744884  1
  V  V21  1  0.25173616  -0.00720241  0.73362964  1
  V  V22  1  0.74404943  0.38514406  0.12694361  1
  V  V23  1  0.75433356  0.60090530  0.36323823  1
  V  V24  1  0.62039056  0.62178105  0.49789053  1
  V  V25  1  0.74879900  0.51565082  0.75546023  1
  V  V26  1  0.49716781  0.24339533  0.23647835  1
  V  V27  1  0.74946338  0.23508332  -0.00498065  1
  V  V28  1  0.87439407  0.14928718  0.75207847  1
  V  V29  1  0.49296115  0.63120583  0.11482635  1
  V  V30  1  0.26421722  0.26026021  0.50013844  1
  V  V31  1  0.12788127  0.75271774  0.86893593  1
  V  V32  1  0.76346008  0.75281504  0.50452481  1
  V  V33  1  0.48180540  0.37638461  0.37518583  1
  V  V34  1  -0.03077304  0.72937360  0.72127460  1
  V  V35  1  0.63194144  0.74361717  0.88123748  1
  V  V36  1  0.13493812  -0.00905340  0.12692596  1
  V  V37  1  0.12178281  0.11872738  0.50387992  1
  V  V38  1  0.16155842  0.59497086  0.02033634  1
  V  V39  1  0.75208637  0.01421356  0.25620705  1
  V  V40  1  0.38229670  0.63084618  0.75010993  1
  V  V41  1  0.50169252  0.12264601  0.61307163  1
  V  V42  1  0.23011302  0.62554526  0.36305971  1
  V  V43  1  0.37960936  0.87340096  0.01251738  1
  V  V44  1  -0.01917745  0.75202454  0.24076018  1
  V  V45  1  0.50885534  0.37420873  0.87353943  1
  V  V46  1  0.21671862  0.27776899  -0.00842732  1
  V  V47  1  0.86870196  0.37727252  -0.01426559  1
  V  V48  1  0.76431586  0.37123325  0.61833138  1
  V  V49  1  0.38961075  0.50168037  0.88240815  1
  V  V50  1  0.62174464  0.37183020  0.75054321  1
  V  V51  1  0.62348822  0.74870888  0.38009054  1
  V  V52  1  0.61667315  0.38203763  0.24880563  1
  V  V53  1  0.64542895  0.87368929  0.74659329  1
  V  V54  1  -0.00523116  0.86827683  0.88263822  1
  V  V55  1  -0.00477982  0.11057815  0.13539896  1
  V  V56  1  -0.03347907  0.62984670  0.12170621  1
  V  V57  1  0.26375676  0.11859426  0.36452061  1
  V  V58  1  0.36677609  0.88524513  0.49751473  1
  V  V59  1  0.62946368  0.87336543  0.24661046  1
  V  V60  1  0.61813050  0.25047825  0.39704579  1
  V  V61  1  0.10998607  0.49784389  0.59197980  1
  V  V62  1  0.25289865  0.76585879  0.01438501  1
  V  V63  1  0.37098542  0.51937538  0.35424575  1
  V  V64  1  0.03626154  0.26369841  0.78147676  1
  V  V65  1  0.60764273  0.50609560  0.11150192  1
  V  V66  1  0.87945664  0.24793321  0.13353404  1
  V  V67  1  0.62047313  0.01483933  0.12653771  1
  V  V68  1  0.49333995  0.87413946  0.86255659  1
  V  V69  1  0.63284691  -0.00100365  0.61032816  1
  Zn  Zn70  1  0.25589816  0.11933410  0.87491534  1
  Zn  Zn71  1  0.27039937  -0.00601396  0.25358231  1
  Zn  Zn72  1  0.49741692  0.63046933  0.62704944  1
  Zn  Zn73  1  0.00167202  0.16605914  0.62060684  1
  Zn  Zn74  1  0.43248519  0.07826484  0.19198453  1
  Zn  Zn75  1  0.76512486  0.01060420  0.77912863  1
  Zn  Zn76  1  0.18872770  0.18243789  0.18141841  1
  Zn  Zn77  1  0.19829095  0.18503250  0.68934976  1
  Zn  Zn78  1  0.18604001  0.69449505  0.18764932  1
  Zn  Zn79  1  0.19069642  0.67460542  0.68445412  1
  Zn  Zn80  1  0.68479683  0.19377872  0.18981271  1
  Zn  Zn81  1  0.68782755  0.18409533  0.68005553  1
  Zn  Zn82  1  0.68479276  0.68340264  0.18719256  1
  Zn  Zn83  1  0.67795458  0.69708276  0.68693571  1
  Zn  Zn84  1  0.25652971  0.32180885  0.30954246  1
  Zn  Zn85  1  0.31819387  0.30411528  0.82226649  1
  Zn  Zn86  1  0.30939348  0.80909800  0.31955414  1
  Zn  Zn87  1  0.31058474  0.82335994  0.81290074  1
  Zn  Zn88  1  0.79228456  0.29684798  0.30673864  1
  Zn  Zn89  1  0.80294988  0.31847359  0.80530384  1
  Zn  Zn90  1  0.80679562  0.81237423  0.31657917  1
  Zn  Zn91  1  0.81556766  0.79594947  0.80950684  1
  Zn  Zn92  1  0.18731801  0.43823252  0.43318665  1
  Zn  Zn93  1  0.20707821  0.44789273  0.95864275  1
  Zn  Zn94  1  0.18520861  0.93764443  0.43670561  1
  Zn  Zn95  1  0.18317169  0.93664437  0.93167643  1
  Zn  Zn96  1  0.67929867  0.42639175  0.43853031  1
  Zn  Zn97  1  0.68981148  0.43909334  0.93932054  1
  Zn  Zn98  1  0.69454046  0.93317031  0.44122523  1
  Zn  Zn99  1  0.68681256  0.93009872  0.93865571  1
  Zn  Zn100  1  0.30567175  0.05507911  0.05166987  1
  Zn  Zn101  1  0.31150528  0.07815890  0.56495559  1
  Zn  Zn102  1  0.32800598  0.56581539  0.06799481  1
  Zn  Zn103  1  0.28752320  0.56767791  0.57633066  1
  Zn  Zn104  1  0.80472944  0.06076276  0.07570701  1
  Zn  Zn105  1  0.84756357  0.02592037  0.60967979  1
  Zn  Zn106  1  0.79441302  0.57120314  0.05456861  1
  Zn  Zn107  1  0.78688523  0.59622292  0.58533529  1
  Zn  Zn108  1  0.38607619  0.40327649  0.22044020  1
  Zn  Zn109  1  0.40758299  0.43736432  0.68234773  1
  Zn  Zn110  1  0.44305107  0.91617203  0.18956228  1
  Zn  Zn111  1  0.43358291  0.95217678  0.68389354  1
  Zn  Zn112  1  0.93357676  0.43970878  0.16410533  1
  Zn  Zn113  1  0.97210760  0.38046239  0.66006474  1
  Zn  Zn114  1  0.93587436  0.93893674  0.19499527  1
  Zn  Zn115  1  0.95030759  0.92662384  0.73565811  1
  Zn  Zn116  1  0.06443242  0.06044645  0.31560178  1
  Zn  Zn117  1  0.05176847  0.06639420  0.80294843  1
  Zn  Zn118  1  0.05976844  0.56050373  0.29250776  1
  Zn  Zn119  1  0.03368598  0.52958255  0.76307033  1
  Zn  Zn120  1  0.56986990  0.06771507  0.32390439  1
  Zn  Zn121  1  0.56502639  0.04856948  0.80790967  1
  Zn  Zn122  1  0.55917655  0.56126760  0.31197978  1
  Zn  Zn123  1  0.56262163  0.56288784  0.81368941  1
  Zn  Zn124  1  0.43873573  0.18249477  0.43293797  1
  Zn  Zn125  1  0.44426848  0.18686123  0.93043554  1
  Zn  Zn126  1  0.43301855  0.69283364  0.44210237  1
  Zn  Zn127  1  0.44222122  0.69886880  0.93461197  1
  Zn  Zn128  1  0.95563043  0.17662022  0.41665903  1
  Zn  Zn129  1  0.94213340  0.17891555  0.93488909  1
  Zn  Zn130  1  0.93085996  0.68592998  0.41424596  1
  Zn  Zn131  1  0.92778376  0.70478292  0.94134062  1
  Zn  Zn132  1  0.05355322  0.31676784  0.04489564  1
  Zn  Zn133  1  0.12435003  0.30152202  0.58570240  1
  Zn  Zn134  1  0.06097519  0.80983994  0.06051963  1
  Zn  Zn135  1  0.05056470  0.80443579  0.56052296  1
  Zn  Zn136  1  0.56770168  0.30802218  0.05826893  1
  Zn  Zn137  1  0.52040905  0.31457494  0.57672944  1
  Zn  Zn138  1  0.56512077  0.81275755  0.06184624  1
  Zn  Zn139  1  0.55763171  0.81741838  0.56701311  1
  O  O140  1  0.11409167  0.10624982  0.12529858  1
  O  O141  1  0.12635259  0.13479588  0.60782763  1
  O  O142  1  0.12338956  0.63626296  0.10347447  1
  O  O143  1  0.16684318  0.58429851  0.61644872  1
  O  O144  1  0.62117446  0.11426074  0.13080967  1
  O  O145  1  0.62056738  0.10732774  0.62917979  1
  O  O146  1  0.61500725  0.61004382  0.13254865  1
  O  O147  1  0.61804026  0.61480091  0.61671291  1
  O  O148  1  0.38030786  0.39594845  0.36324676  1
  O  O149  1  0.39299329  0.38002920  0.88392897  1
  O  O150  1  0.38709872  0.87165280  0.38455731  1
  O  O151  1  0.39009113  0.87473354  0.88213570  1
  O  O152  1  0.85604739  0.38519447  0.38290372  1
  O  O153  1  0.86084085  0.38293283  0.88489114  1
  O  O154  1  0.88185758  0.88375009  0.36977482  1
  O  O155  1  0.89546201  0.84406719  0.87700512  1
  O  O156  1  0.24127070  0.01323311  0.36888739  1
  O  O157  1  0.23052898  0.00596418  0.85569871  1
  O  O158  1  0.26282841  0.51604741  0.37723198  1
  O  O159  1  0.26718215  0.51226045  0.88044075  1
  O  O160  1  0.76209836  -0.00677485  0.36829438  1
  O  O161  1  0.74303538  0.01009022  0.88884073  1
  O  O162  1  0.73508372  0.50198452  0.37222127  1
  O  O163  1  0.75126995  0.50385852  0.86485119  1
  O  O164  1  0.22361417  0.51945638  0.05751101  1
  O  O165  1  0.28661666  0.48570487  0.66039811  1
  O  O166  1  0.23699875  1.00043682  0.13230965  1
  O  O167  1  0.24864728  1.01076278  0.63381094  1
  O  O168  1  0.74203110  0.48921871  0.12219996  1
  O  O169  1  0.73698656  0.49933321  0.63640317  1
  O  O170  1  0.73026250  1.00127610  0.14191134  1
  O  O171  1  0.73378546  1.00163918  0.61726110  1
  O  O172  1  0.08834028  0.41725185  0.20033700  1
  O  O173  1  0.01092103  0.36361746  0.76869357  1
  O  O174  1  0.00137380  0.86419460  0.24761380  1
  O  O175  1  -0.00020041  0.82627430  0.76057927  1
  O  O176  1  0.49709086  0.36325652  0.25438750  1
  O  O177  1  0.51313120  0.37935772  0.76403939  1
  O  O178  1  0.51017129  0.86338404  0.26674881  1
  O  O179  1  0.49650456  0.88801009  0.76249779  1
  O  O180  1  0.50239956  0.14038773  0.25804054  1
  O  O181  1  0.48852606  0.11321698  0.75532570  1
  O  O182  1  0.50338487  0.63957254  0.24874132  1
  O  O183  1  0.48553836  0.62196684  0.74836515  1
  O  O184  1  1.00193707  0.12426730  0.23454276  1
  O  O185  1  1.00508768  0.15647399  0.74601555  1
  O  O186  1  0.99981317  0.63898915  0.23223778  1
  O  O187  1  1.00248750  0.63919517  0.75626789  1
  O  O188  1  0.39536158  0.25780777  0.01068475  1
  O  O189  1  0.36334374  0.23980151  0.49872201  1
  O  O190  1  0.36553011  0.76519629  -0.00642096  1
  O  O191  1  0.36398076  0.75702081  0.50922103  1
  O  O192  1  0.86369615  0.25809110  0.00163295  1
  O  O193  1  0.85448094  0.23220269  0.49624865  1
  O  O194  1  0.86186277  0.75512129  0.01649738  1
  O  O195  1  0.86130884  0.74359446  0.48755467  1
  O  O196  1  0.13890447  0.24348966  0.48130984  1
  O  O197  1  0.12943170  0.22320903  1.02781288  1
  O  O198  1  0.14239059  0.75605803  0.50973585  1
  O  O199  1  0.14776119  0.76121620  0.99370424  1
  O  O200  1  0.59717403  0.27191853  0.49263781  1
  O  O201  1  0.64013056  0.24900992  0.98971988  1
  O  O202  1  0.61954570  0.73891338  0.49604750  1
  O  O203  1  0.62615898  0.75628040  0.98575242  1
  O  O204  1  0.50590258  0.24442635  0.13328904  1
  O  O205  1  0.52508473  0.21929488  0.63945677  1
  O  O206  1  0.51172898  0.74218482  0.14185578  1
  O  O207  1  0.47877697  0.74588158  0.61625776  1
  O  O208  1  0.98053499  0.25813621  0.12029286  1
  O  O209  1  1.02516392  0.27946003  0.63669843  1
  O  O210  1  0.99418098  0.74094071  0.12762651  1
  O  O211  1  0.99135094  0.73502856  0.62170329  1
  O  O212  1  0.01385555  0.25979723  0.37099866  1
  O  O213  1  0.01424973  0.25252778  0.88190101  1
  O  O214  1  -0.00657509  0.76022359  0.35332499  1
  O  O215  1  0.02407188  0.74539590  0.89092119  1
  O  O216  1  0.49665695  0.26075920  0.36534758  1
  O  O217  1  0.52237568  0.25964138  0.88192140  1
  O  O218  1  0.50770681  0.75137017  0.36855699  1
  O  O219  1  0.50973251  0.76906272  0.87517827  1
  O  O220  1  0.24261916  0.13085981  0.48690274  1
  O  O221  1  0.22954970  0.11609693  0.99430131  1
  O  O222  1  0.25194784  0.63554780  0.48694945  1
  O  O223  1  0.26357071  0.64778134  0.99810020  1
  O  O224  1  0.79522658  0.18992936  0.50436512  1
  O  O225  1  0.75820443  0.13648903  1.00308057  1
  O  O226  1  0.73387297  0.62630076  0.48192749  1
  O  O227  1  0.74110877  0.65252393  1.00433803  1
  O  O228  1  0.28652586  0.36397315  -0.00149565  1
  O  O229  1  0.25958617  0.35944023  0.47957977  1
  O  O230  1  0.26575268  0.87474118  -0.00611800  1
  O  O231  1  0.26159458  0.86130122  0.48228589  1
  O  O232  1  0.75382238  0.36923877  0.00923977  1
  O  O233  1  0.74568721  0.38827778  0.52023365  1
  O  O234  1  0.73850101  0.85682378  0.00262484  1
  O  O235  1  0.74408418  0.85122260  0.50609574  1
  O  O236  1  0.12593215  0.48418987  0.22580747  1
  O  O237  1  0.14844600  0.50517749  0.76445124  1
  O  O238  1  0.11881052  0.98749532  0.23822295  1
  O  O239  1  0.14591292  1.01569525  0.75819897  1
  O  O240  1  0.60884707  0.48631638  0.23859475  1
  O  O241  1  0.62784942  0.49475541  0.74448187  1
  O  O242  1  0.62663766  0.99237147  0.25019970  1
  O  O243  1  0.64095202  0.98501346  0.75063849  1
  O  O244  1  0.38126730  -0.00693651  0.24099728  1
  O  O245  1  0.36110183  0.01164613  0.74941398  1
  O  O246  1  0.38277244  0.51560776  0.25591079  1
  O  O247  1  0.37686028  0.50735875  0.77112949  1
  O  O248  1  0.85177320  -0.00181177  0.24144532  1
  O  O249  1  0.86245656  -0.00941665  0.72026204  1
  O  O250  1  0.92440683  0.45791800  0.27995276  1
  O  O251  1  0.85606490  0.50950796  0.76229138  1
  O  O252  1  0.14717012  0.35659141  0.36218945  1
  O  O253  1  0.14530973  0.35152957  0.96996547  1
  O  O254  1  0.10527639  0.88537120  0.35797244  1
  O  O255  1  0.12342240  0.85697636  0.87036766  1
  O  O256  1  0.60218919  0.37548207  0.36512668  1
  O  O257  1  0.62349129  0.37627473  0.86808592  1
  O  O258  1  0.61311182  0.86701701  0.37540447  1
  O  O259  1  0.61823983  0.86858927  0.86030043  1
  O  O260  1  0.37254058  0.13418334  0.11113222  1
  O  O261  1  0.39311464  0.11955231  0.63734890  1
  O  O262  1  0.39323435  0.62620972  0.13241987  1
  O  O263  1  0.37126002  0.63446985  0.63555329  1
  O  O264  1  0.88399041  0.13651602  0.11963760  1
  O  O265  1  0.89518020  0.12655248  0.64453210  1
  O  O266  1  0.86958301  0.62232620  0.13366100  1
  O  O267  1  0.90199785  0.58322940  0.58777724  1
  O  O268  1  0.26234627  0.24669341  0.10226705  1
  O  O269  1  0.23614357  0.25626003  0.60304072  1
  O  O270  1  0.25000230  0.75717269  0.11323873  1
  O  O271  1  0.26081499  0.74136386  0.61216783  1
  O  O272  1  0.75372627  0.25517384  0.11305598  1
  O  O273  1  0.74211717  0.27338107  0.63233588  1
  O  O274  1  0.74094192  0.75881163  0.12872902  1
  O  O275  1  0.75512657  0.71313993  0.60337201  1
  O  O276  1  0.24873450  0.23328806  0.37839180  1
  O  O277  1  0.25127669  0.24327053  0.90149109  1
  O  O278  1  0.24934749  0.73525087  0.38456206  1
  O  O279  1  0.24986647  0.74770343  0.88073656  1
  O  O280  1  0.71904967  0.27190683  0.38469268  1
  O  O281  1  0.74246505  0.25271785  0.88688562  1
  O  O282  1  0.73615324  0.74548930  0.38516727  1
  O  O283  1  0.73346855  0.74989474  0.87263578  1
  O  O284  1  0.00902378  0.12802591  0.01911429  1
  O  O285  1  0.01521305  0.13639174  0.50394121  1
  O  O286  1  -0.01978839  0.62309076  0.01199451  1
  O  O287  1  -0.01250715  0.61175137  0.48787688  1
  O  O288  1  0.49964252  0.10648595  -0.00530463  1
  O  O289  1  0.49387692  0.12216186  0.51271088  1
  O  O290  1  0.49845552  0.64231155  0.01585215  1
  O  O291  1  0.50455706  0.61440078  0.49779224  1
  O  O292  1  0.49393673  0.39584388  0.48759506  1
  O  O293  1  0.50161524  0.37379165  0.98913552  1
  O  O294  1  0.48733253  0.87012193  0.48921638  1
  O  O295  1  0.49017411  0.87760710  0.99813851  1
  O  O296  1  0.91147751  0.37403950  0.42929504  1
  O  O297  1  0.97793814  0.39843460  1.00934343  1
  O  O298  1  1.00099087  0.86566216  0.47737188  1
  O  O299  1  1.01047047  0.87611090  0.98257182  1
  O  O300  1  0.48476603  0.50126696  0.38374222  1
  O  O301  1  0.49704277  0.49249381  0.87806513  1
  O  O302  1  0.50531073  0.98621471  0.37509414  1
  O  O303  1  0.51555623  0.98371876  0.89544141  1
  O  O304  1  0.98340640  0.47421539  0.32766923  1
  O  O305  1  0.97297315  0.51147151  0.87608596  1
  O  O306  1  0.98229876  0.98687344  0.36540161  1
  O  O307  1  1.00145020  0.96478910  0.84145801  1
  O  O308  1  -0.00061073  0.00800998  0.12714065  1
  O  O309  1  0.08723354  -0.04212995  0.62952858  1
  O  O310  1  -0.00996085  0.52123320  0.11261021  1
  O  O311  1  0.01996976  0.48920463  0.64869134  1
  O  O312  1  0.50679282  0.00151861  0.12341139  1
  O  O313  1  0.51662997  0.00888233  0.63102162  1
  O  O314  1  0.50549947  0.51489525  0.11762604  1
  O  O315  1  0.49922476  0.50370643  0.61362708  1
  O  O316  1  0.27639447  0.38180732  0.22334971  1
  O  O317  1  0.25456530  0.38772782  0.78272158  1
  O  O318  1  0.23268489  0.87390355  0.26143034  1
  O  O319  1  0.25705772  0.89091976  0.74302313  1
  O  O320  1  0.72988309  0.36655371  0.23624946  1
  O  O321  1  0.73770294  0.39120359  0.74074578  1
  O  O322  1  0.73121012  0.88236630  0.26069923  1
  O  O323  1  0.74535930  0.86879530  0.74821480  1
  O  O324  1  0.25124226  0.12131875  0.25879468  1
  O  O325  1  0.26613662  0.12159803  0.75342720  1
  O  O326  1  0.24494431  0.63473054  0.26273986  1
  O  O327  1  0.26592372  0.61692274  0.76542512  1
  O  O328  1  0.73818334  0.11402571  0.25695326  1
  O  O329  1  0.77004367  0.13041995  0.74572272  1
  O  O330  1  0.73474856  0.62318316  0.26693472  1
  O  O331  1  0.73547001  0.61315799  0.74517390  1
  O  O332  1  0.36350238  0.11885301  0.37359862  1
  O  O333  1  0.37550250  0.12417178  0.86735525  1
  O  O334  1  0.37490172  0.62005593  0.37370506  1
  O  O335  1  0.37609851  0.62322664  0.87429290  1
  O  O336  1  0.87989460  0.10439711  0.37699527  1
  O  O337  1  0.89593358  0.11642291  0.84915179  1
  O  O338  1  0.85448948  0.61271525  0.37166370  1
  O  O339  1  0.86382065  0.62664278  0.87867959  1
  O  O340  1  0.11921490  0.38600963  0.13497546  1
  O  O341  1  0.15598822  0.41097684  0.61054193  1
  O  O342  1  0.11724067  0.88523880  0.13352451  1
  O  O343  1  0.11871275  0.88774758  0.61437116  1
  O  O344  1  0.62426295  0.38517620  0.12760204  1
  O  O345  1  0.61558688  0.38779002  0.63434457  1
  O  O346  1  0.61324805  0.88104632  0.14609982  1
  O  O347  1  0.61707219  0.88249056  0.64027695  1
  O  O348  1  0.13277400  0.24112566  0.26104983  1
  O  O349  1  0.13592883  0.25072395  0.76712166  1
  O  O350  1  0.11222244  0.76703793  0.23960413  1
  O  O351  1  0.13840921  0.72877914  0.77089312  1
  O  O352  1  0.60991347  0.26160098  0.25224972  1
  O  O353  1  0.64033055  0.26162799  0.76647163  1
  O  O354  1  0.62055806  0.76136749  0.26217250  1
  O  O355  1  0.62148862  0.76678436  0.75412381  1
  O  O356  1  0.38770922  0.25074087  0.22117578  1
  O  O357  1  0.37631169  0.23496813  0.75573498  1
  O  O358  1  0.39128442  0.75864295  0.25438872  1
  O  O359  1  0.36565942  0.74641663  0.73664323  1
  O  O360  1  0.86605135  0.25488833  0.23345769  1
  O  O361  1  0.88072372  0.25148301  0.75746339  1
  O  O362  1  0.88146312  0.75934775  0.24361244  1
  O  O363  1  0.86833207  0.73022163  0.73218606  1
  O  O364  1  0.37854689  0.51098556  0.50434622  1
  O  O365  1  0.38125258  0.48796821  0.99611331  1
  O  O366  1  0.36367032  0.98269098  0.50772380  1
  O  O367  1  0.38972129  0.98851260  1.00790278  1
  O  O368  1  0.93050852  0.56275054  0.51483324  1
  O  O369  1  0.86647903  0.50096158  0.98601734  1
  O  O370  1  0.86862126  0.99947733  0.49665273  1
  O  O371  1  0.86583416  0.96026036  1.03528983  1
  O  O372  1  0.12462706  0.00088041  0.01632589  1
  O  O373  1  0.12588445  0.01782587  0.49289387  1
  O  O374  1  0.09794527  0.51583972  -0.01791614  1
  O  O375  1  0.10303236  0.49284963  0.48971174  1
  O  O376  1  0.61351424  -0.01059725  0.02201528  1
  O  O377  1  0.62207540  -0.01293245  0.51011451  1
  O  O378  1  0.62576622  0.49854980  0.01291225  1
  O  O379  1  0.61496802  0.50650878  0.50771576  1
  O  O380  1  0.39676431  0.36600315  0.11085001  1
  O  O381  1  0.42121840  0.34901686  0.62040151  1
  O  O382  1  0.37811821  0.86633208  0.11145987  1
  O  O383  1  0.37851637  0.86553758  0.61317138  1
  O  O384  1  0.86155024  0.36717521  0.11717128  1
  O  O385  1  0.86313403  0.38229035  0.62873049  1
  O  O386  1  0.87527081  0.90594811  0.08616687  1
  O  O387  1  1.00758174  0.96190846  0.63161557  1
  O  O388  1  0.12516838  0.13405880  0.38129909  1
  O  O389  1  0.10563240  0.11344918  0.89776804  1
  O  O390  1  0.13037702  0.61208650  0.36690403  1
  O  O391  1  0.15121700  0.63346556  0.90546446  1
  O  O392  1  0.61425766  0.14968667  0.38578137  1
  O  O393  1  0.62312768  0.13655342  0.86507344  1
  O  O394  1  0.62302605  0.63074290  0.38216670  1
  O  O395  1  0.61195505  0.64530488  0.86832268  1
