# generated using pymatgen
data_V35Zn35O128
_symmetry_space_group_name_H-M   'P 1'
_cell_length_a   16.96502789
_cell_length_b   16.93690948
_cell_length_c   16.96467441
_cell_angle_alpha   90.27567298
_cell_angle_beta   89.95868110
_cell_angle_gamma   89.86380872
_symmetry_Int_Tables_number   1
_chemical_formula_structural   V35Zn35O128
_chemical_formula_sum   'V70 Zn70 O256'
_cell_volume   4874.47562402
_cell_formula_units_Z   2
loop_
 _symmetry_equiv_pos_site_id
 _symmetry_equiv_pos_as_xyz
  1  'x, y, z'
loop_
 _atom_site_type_symbol
 _atom_site_label
 _atom_site_symmetry_multiplicity
 _atom_site_fract_x
 _atom_site_fract_y
 _atom_site_fract_z
 _atom_site_occupancy
  V  V0  1  0.00054816  0.12775411  0.62207528  1
  V  V1  1  0.00731555  0.12185193  0.12657408  1
  V  V2  1  0.76356432  0.11249237  0.37538307  1
  V  V3  1  0.63015242  0.12168788  0.01172227  1
  V  V4  1  0.14621304  0.48933325  0.14220426  1
  V  V5  1  0.37321876  0.86682668  0.50085210  1
  V  V6  1  0.13792004  0.74449725  0.37892166  1
  V  V7  1  0.72645893  0.48900625  0.76611243  1
  V  V8  1  0.75097624  0.37642265  0.12915393  1
  V  V9  1  0.88270360  0.86204460  0.01815718  1
  V  V10  1  0.37670815  0.74067877  0.63572429  1
  V  V11  1  0.25120545  0.87352710  0.63528347  1
  V  V12  1  0.49513771  0.26435175  0.74002914  1
  V  V13  1  0.13561371  0.11925356  0.47622689  1
  V  V14  1  0.62646218  0.64439001  0.50497393  1
  V  V15  1  0.12197997  0.88037206  0.24808400  1
  V  V16  1  0.63292077  0.24845193  0.37577403  1
  V  V17  1  0.86451317  0.75376026  0.59637743  1
  V  V18  1  0.62523197  0.37929408  0.26231655  1
  V  V19  1  0.10793442  0.86626166  0.75923154  1
  V  V20  1  0.62788347  0.87201824  0.76384145  1
  V  V21  1  0.37042840  0.22778935  0.60994428  1
  V  V22  1  0.25846742  0.86243349  0.11548191  1
  V  V23  1  0.12563787  -0.00591577  0.62608944  1
  V  V24  1  0.13140808  -0.00034399  0.11827813  1
  V  V25  1  0.47841815  0.85308264  0.87113571  1
  V  V26  1  0.50725710  0.10562926  0.12677739  1
  V  V27  1  0.27363061  0.26026641  -0.00836152  1
  V  V28  1  0.50644617  0.63400872  0.63513166  1
  V  V29  1  0.86867358  0.50395828  0.88263781  1
  V  V30  1  0.40485088  0.50532055  0.37618890  1
  V  V31  1  0.75295624  0.50550736  0.25751016  1
  V  V32  1  0.62648355  0.74667025  0.35778317  1
  V  V33  1  0.03821851  0.48758325  -0.03034614  1
  V  V34  1  0.63078635  0.12623351  0.49748128  1
  V  V35  1  0.48863220  0.64901759  0.13307666  1
  V  V36  1  0.41246006  0.38332220  0.50027239  1
  V  V37  1  0.00633433  0.25630370  0.26449465  1
  V  V38  1  0.01479106  0.60945974  0.12419155  1
  V  V39  1  0.72408913  0.64081291  0.88680323  1
  V  V40  1  0.22374124  0.11589483  0.87972126  1
  V  V41  1  0.49765935  0.00396420  0.49867648  1
  V  V42  1  0.62420353  0.00693388  0.62618501  1
  V  V43  1  0.88478158  0.13976360  0.74286988  1
  V  V44  1  0.88136561  0.26056162  0.12699700  1
  V  V45  1  0.83152801  0.07697776  0.19994299  1
  V  V46  1  0.76386558  0.00071687  0.75402837  1
  V  V47  1  -0.00777764  0.00016447  -0.00906136  1
  V  V48  1  0.87697707  0.63048599  0.24232871  1
  V  V49  1  0.62880670  0.89061956  0.23420485  1
  V  V50  1  0.00604195  0.74886547  0.24518075  1
  V  V51  1  0.38460158  0.51190852  0.88754580  1
  V  V52  1  -0.00249585  0.63916373  0.62671716  1
  V  V53  1  0.49968393  0.87120061  0.37072254  1
  V  V54  1  0.75264036  0.37236600  0.61613358  1
  V  V55  1  0.37297456  0.11861120  0.24985099  1
  V  V56  1  0.62221967  0.49759062  0.61384428  1
  V  V57  1  -0.01377270  -0.01556284  0.48816772  1
  V  V58  1  0.75008104  0.87764324  0.60524785  1
  V  V59  1  0.76036163  0.15099617  0.87189145  1
  V  V60  1  0.23845007  0.61710089  0.84363636  1
  V  V61  1  0.86278580  0.38899966  0.00505788  1
  V  V62  1  0.88001453  0.35967286  0.49570992  1
  V  V63  1  0.61075403  0.49908729  0.12231933  1
  V  V64  1  0.50070803  0.25535391  0.24423498  1
  V  V65  1  0.14480645  0.36731559  0.26198733  1
  V  V66  1  0.14383422  0.46481233  0.61917469  1
  V  V67  1  0.36819537  0.65087123  0.25918705  1
  V  V68  1  0.60584951  0.64130633  0.00251878  1
  V  V69  1  0.24330725  0.72739391  -0.00746430  1
  Zn  Zn70  1  0.05322361  0.39976395  0.79029331  1
  Zn  Zn71  1  0.77060435  0.63511783  0.39311950  1
  Zn  Zn72  1  0.87278517  0.64251592  0.76933194  1
  Zn  Zn73  1  0.88996477  0.49570536  0.37493795  1
  Zn  Zn74  1  -0.01310789  0.52908854  0.50393499  1
  Zn  Zn75  1  0.30108392  0.05420406  0.39023033  1
  Zn  Zn76  1  0.19301528  0.19339383  0.18101751  1
  Zn  Zn77  1  0.20903862  0.15834180  0.68294846  1
  Zn  Zn78  1  0.19204499  0.68682758  0.18927901  1
  Zn  Zn79  1  0.18795267  0.69486871  0.67621696  1
  Zn  Zn80  1  0.68745319  0.18862623  0.18668608  1
  Zn  Zn81  1  0.69346512  0.18837599  0.68376962  1
  Zn  Zn82  1  0.69279846  0.69652545  0.17696170  1
  Zn  Zn83  1  0.72700319  0.70955786  0.71478271  1
  Zn  Zn84  1  0.33091913  0.32622087  0.31480771  1
  Zn  Zn85  1  0.33272200  0.23197487  0.80907392  1
  Zn  Zn86  1  0.29479885  0.85462511  0.32323967  1
  Zn  Zn87  1  0.30450909  0.80201661  0.81803760  1
  Zn  Zn88  1  0.81421522  0.30844488  0.31408651  1
  Zn  Zn89  1  0.84721772  0.32992379  0.79318362  1
  Zn  Zn90  1  0.79604434  0.82093380  0.32185383  1
  Zn  Zn91  1  0.80849598  0.81539013  0.84508894  1
  Zn  Zn92  1  0.06331860  0.41450563  0.43179089  1
  Zn  Zn93  1  0.20162346  0.44618999  0.93646836  1
  Zn  Zn94  1  0.17388850  0.93248304  0.43613658  1
  Zn  Zn95  1  0.18396747  0.93387144  0.93833960  1
  Zn  Zn96  1  0.69124522  0.44415059  0.43969444  1
  Zn  Zn97  1  0.65054565  0.41127974  0.94379279  1
  Zn  Zn98  1  0.68141003  0.94203967  0.42537016  1
  Zn  Zn99  1  0.70815820  0.94255906  0.93347220  1
  Zn  Zn100  1  0.30809906  0.08582190  0.07165363  1
  Zn  Zn101  1  0.31074674  0.05493044  0.56445315  1
  Zn  Zn102  1  0.31701969  0.56275885  0.06753297  1
  Zn  Zn103  1  0.33878515  0.52977186  0.58343450  1
  Zn  Zn104  1  0.79484959  0.04446266  0.03137092  1
  Zn  Zn105  1  0.81309207  0.06255970  0.56010998  1
  Zn  Zn106  1  0.79514816  0.58073754  0.07341599  1
  Zn  Zn107  1  0.81091165  0.56011684  0.56391104  1
  Zn  Zn108  1  0.43857780  0.44895937  0.20994951  1
  Zn  Zn109  1  0.45097284  0.43177882  0.68938473  1
  Zn  Zn110  1  0.43445128  0.93535307  0.19153672  1
  Zn  Zn111  1  0.44729695  0.93201721  0.68887030  1
  Zn  Zn112  1  0.94572142  0.43639082  0.19804307  1
  Zn  Zn113  1  0.92693726  0.45015206  0.68090089  1
  Zn  Zn114  1  0.89900788  0.90301960  0.21870418  1
  Zn  Zn115  1  0.93742779  0.93472505  0.67496044  1
  Zn  Zn116  1  0.04325503  0.05762113  0.30512210  1
  Zn  Zn117  1  0.06122576  0.05266246  0.80642154  1
  Zn  Zn118  1  0.07257718  0.56094952  0.31362751  1
  Zn  Zn119  1  0.07185308  0.58001432  0.77104083  1
  Zn  Zn120  1  0.56276621  0.06397649  0.31446389  1
  Zn  Zn121  1  0.58596386  0.07600071  0.81886208  1
  Zn  Zn122  1  0.56486134  0.57354004  0.30698746  1
  Zn  Zn123  1  0.55722024  0.56413182  0.81137838  1
  Zn  Zn124  1  0.44422550  0.19390240  0.43123241  1
  Zn  Zn125  1  0.46840024  0.29139935  0.93502925  1
  Zn  Zn126  1  0.44551258  0.68694095  0.44241073  1
  Zn  Zn127  1  0.42023030  0.68580624  0.94139524  1
  Zn  Zn128  1  0.94278556  0.18200981  0.44579476  1
  Zn  Zn129  1  0.91638635  0.18073325  0.95383372  1
  Zn  Zn130  1  0.94516322  0.69787400  0.42771827  1
  Zn  Zn131  1  0.92083250  0.65924687  0.96931067  1
  Zn  Zn132  1  0.09913556  0.29156428  0.07972794  1
  Zn  Zn133  1  0.07279609  0.30003234  0.55937344  1
  Zn  Zn134  1  0.06524941  0.80793591  0.05967834  1
  Zn  Zn135  1  0.05717912  0.80653209  0.56108411  1
  Zn  Zn136  1  0.58334682  0.29643367  0.06731301  1
  Zn  Zn137  1  0.57024500  0.30676527  0.56579152  1
  Zn  Zn138  1  0.54429544  0.82837836  0.05237843  1
  Zn  Zn139  1  0.56343287  0.81784179  0.56832166  1
  O  O140  1  0.11504257  0.11425854  0.12906131  1
  O  O141  1  0.12293311  0.10858736  0.62673370  1
  O  O142  1  0.12299103  0.60420276  0.14171399  1
  O  O143  1  0.09886136  0.63391906  0.63497650  1
  O  O144  1  0.61691110  0.11382039  0.13169473  1
  O  O145  1  0.63843546  0.11564692  0.61066264  1
  O  O146  1  0.60770077  0.61648152  0.12116829  1
  O  O147  1  0.61937536  0.62528388  0.61670984  1
  O  O148  1  0.38114373  0.38792862  0.39449807  1
  O  O149  1  0.36679849  0.40804984  0.83716473  1
  O  O150  1  0.39271674  0.86760486  0.39019839  1
  O  O151  1  0.38094714  0.87563278  0.85817750  1
  O  O152  1  0.86634501  0.37572605  0.39130202  1
  O  O153  1  0.85880928  0.39580974  0.89208625  1
  O  O154  1  0.88952530  0.87010420  0.32530223  1
  O  O155  1  0.98336013  0.77334857  0.85480215  1
  O  O156  1  0.25641299  -0.04163752  0.36587966  1
  O  O157  1  0.24040980  0.01651979  0.88244758  1
  O  O158  1  0.23910476  0.52574005  0.40735958  1
  O  O159  1  0.26027177  0.51593236  0.87207151  1
  O  O160  1  0.75169601  0.01246808  0.37048357  1
  O  O161  1  0.75646098  0.02169258  0.85444322  1
  O  O162  1  0.74169412  0.51431593  0.36238699  1
  O  O163  1  0.71342027  0.47307293  0.86723734  1
  O  O164  1  0.24446357  0.49897266  0.13026864  1
  O  O165  1  0.23570418  0.50699947  0.61683868  1
  O  O166  1  0.23251929  1.00780417  0.11959599  1
  O  O167  1  0.24440979  0.98328836  0.62349945  1
  O  O168  1  0.73802498  0.49676407  0.13999915  1
  O  O169  1  0.73478608  0.50046896  0.63572970  1
  O  O170  1  0.77563018  1.01989126  0.14158089  1
  O  O171  1  0.74444264  0.99371815  0.63004229  1
  O  O172  1  0.01342426  0.36246278  0.25591375  1
  O  O173  1  -0.05012058  0.37860088  0.76043792  1
  O  O174  1  0.01225940  0.85264215  0.21858617  1
  O  O175  1  0.00880316  0.87880201  0.74261028  1
  O  O176  1  0.51241202  0.36422748  0.24727039  1
  O  O177  1  0.51706484  0.36183173  0.75164559  1
  O  O178  1  0.50369470  0.88079312  0.26777210  1
  O  O179  1  0.51801521  0.88057348  0.76523194  1
  O  O180  1  0.49809919  0.13078741  0.24212804  1
  O  O181  1  0.54957448  0.16043455  0.74611273  1
  O  O182  1  0.49158005  0.63015796  0.23883006  1
  O  O183  1  0.51025545  0.63357638  0.73387883  1
  O  O184  1  1.00382872  0.14145237  0.23559880  1
  O  O185  1  0.99254697  0.11351852  0.73450813  1
  O  O186  1  0.99766233  0.62854422  0.24351250  1
  O  O187  1  0.98123210  0.63879732  0.73716187  1
  O  O188  1  0.37540118  0.25681559  -0.00276387  1
  O  O189  1  0.39531936  0.27031773  0.50840774  1
  O  O190  1  0.34487942  0.75174294  -0.00442481  1
  O  O191  1  0.38527304  0.76342125  0.50987681  1
  O  O192  1  0.88410402  0.27728438  0.01656039  1
  O  O193  1  0.87290636  0.26008730  0.49964953  1
  O  O194  1  0.89699741  0.76337650  -0.00170874  1
  O  O195  1  0.86517020  0.75212650  0.49755106  1
  O  O196  1  0.12404304  0.21755106  0.49597456  1
  O  O197  1  0.08033981  0.27085523  0.95575815  1
  O  O198  1  0.11888000  0.76186056  0.47724540  1
  O  O199  1  0.14507775  0.76345885  0.99361816  1
  O  O200  1  0.61711051  0.23537922  0.48933589  1
  O  O201  1  0.66473909  0.21378464  1.03223272  1
  O  O202  1  0.62634347  0.74677680  0.49918055  1
  O  O203  1  0.61507248  0.73829685  1.01348552  1
  O  O204  1  0.51468217  0.24110515  0.14097268  1
  O  O205  1  0.49462443  0.25499480  0.63119989  1
  O  O206  1  0.49163111  0.74696578  0.12564479  1
  O  O207  1  0.49097947  0.74490697  0.62494489  1
  O  O208  1  1.00041383  0.24113383  0.12271743  1
  O  O209  1  1.01374304  0.22583784  0.62430367  1
  O  O210  1  1.01857606  0.72072236  0.12832072  1
  O  O211  1  0.97156221  0.75253935  0.62285778  1
  O  O212  1  -0.00027408  0.24010596  0.36188858  1
  O  O213  1  0.01702833  0.26365156  0.91573897  1
  O  O214  1  0.01050055  0.74969287  0.34930848  1
  O  O215  1  0.01716323  0.71933342  0.89067663  1
  O  O216  1  0.52142346  0.24055102  0.35698044  1
  O  O217  1  0.44756829  0.24063069  0.83689610  1
  O  O218  1  0.51461670  0.76437315  0.38302208  1
  O  O219  1  0.48604857  0.75377172  0.87540289  1
  O  O220  1  0.24162980  0.10056678  0.48413031  1
  O  O221  1  0.26022519  0.13510854  0.98321961  1
  O  O222  1  0.23605961  0.57658809  0.45940628  1
  O  O223  1  0.24113034  0.62761665  1.00717133  1
  O  O224  1  0.74066900  0.11860713  0.48788539  1
  O  O225  1  0.79825845  0.14106739  0.96838198  1
  O  O226  1  0.73124875  0.62227100  0.49996294  1
  O  O227  1  0.71409342  0.60785759  0.98968688  1
  O  O228  1  0.25092340  0.35897396  -0.01691319  1
  O  O229  1  0.24202284  0.30444944  0.45788430  1
  O  O230  1  0.25060586  0.88492019  0.01628766  1
  O  O231  1  0.27215906  0.87818543  0.51033042  1
  O  O232  1  0.74950279  0.38027431  0.02083910  1
  O  O233  1  0.75568894  0.37982645  0.50956702  1
  O  O234  1  0.80393475  0.87630220  -0.05907307  1
  O  O235  1  0.74103897  0.88605901  0.50782861  1
  O  O236  1  0.13651079  0.48178335  0.25182926  1
  O  O237  1  0.09581938  0.48120630  0.71480484  1
  O  O238  1  0.10791905  0.98568626  0.23437024  1
  O  O239  1  0.12214640  0.98365400  0.73290401  1
  O  O240  1  0.63111600  0.49702897  0.24626190  1
  O  O241  1  0.62616196  0.49954162  0.73800082  1
  O  O242  1  0.62463320  0.98919797  0.25338214  1
  O  O243  1  0.63808943  1.00385623  0.74067474  1
  O  O244  1  0.37800503  0.01829169  0.25151710  1
  O  O245  1  0.43379281  0.03021562  0.76234339  1
  O  O246  1  0.36458224  0.49240195  0.28007342  1
  O  O247  1  0.36991304  0.46053325  0.77427020  1
  O  O248  1  0.89524806  0.01730802  0.24712446  1
  O  O249  1  0.86497394  0.00580958  0.73666977  1
  O  O250  1  0.86788827  0.50315640  0.25722446  1
  O  O251  1  0.84294679  0.51714420  0.77762389  1
  O  O252  1  0.13561616  0.36750087  0.36260281  1
  O  O253  1  0.09149747  0.43923379  0.89080319  1
  O  O254  1  0.11689626  0.86935211  0.35009170  1
  O  O255  1  0.12685539  0.87964152  0.85729523  1
  O  O256  1  0.63629665  0.36853669  0.36740041  1
  O  O257  1  0.56531370  0.33920498  0.96512678  1
  O  O258  1  0.61951030  0.86332091  0.36380828  1
  O  O259  1  0.63513992  0.88826202  0.86423981  1
  O  O260  1  0.39625753  0.12688907  0.13421925  1
  O  O261  1  0.38720428  0.12842537  0.60766937  1
  O  O262  1  0.38415934  0.62465780  0.14165087  1
  O  O263  1  0.39099936  0.63192346  0.61723128  1
  O  O264  1  0.88353156  0.14178910  0.13089557  1
  O  O265  1  0.89230656  0.11938500  0.62557826  1
  O  O266  1  0.89884215  0.60251353  0.13885236  1
  O  O267  1  0.85323208  0.65295347  0.62701606  1
  O  O268  1  0.20766874  0.24549933  0.07953489  1
  O  O269  1  0.26908870  0.22873714  0.61352361  1
  O  O270  1  0.24444065  0.75789265  0.11281648  1
  O  O271  1  0.26695436  0.76014767  0.61832885  1
  O  O272  1  0.76729123  0.26762629  0.14446162  1
  O  O273  1  0.73931157  0.27440832  0.62958050  1
  O  O274  1  0.77081240  0.69063551  0.10137346  1
  O  O275  1  0.74938278  0.77081069  0.61630990  1
  O  O276  1  0.26108922  0.26051678  0.40187237  1
  O  O277  1  0.25163729  0.23821089  0.88870251  1
  O  O278  1  0.23600069  0.76582591  0.36868122  1
  O  O279  1  0.24839909  0.72342870  0.87768113  1
  O  O280  1  0.73866201  0.23774442  0.36757771  1
  O  O281  1  0.76480950  0.24784848  0.85225451  1
  O  O282  1  0.73103297  0.74604403  0.37270217  1
  O  O283  1  0.72695180  0.73726926  0.89087351  1
  O  O284  1  -0.01137322  0.11349113  0.01381459  1
  O  O285  1  0.01167382  0.11113394  0.50907994  1
  O  O286  1  0.00356619  0.59320395  0.01485125  1
  O  O287  1  -0.00947212  0.64473857  0.51791175  1
  O  O288  1  0.52571761  0.12367716  0.01581452  1
  O  O289  1  0.51019742  0.10864404  0.48769047  1
  O  O290  1  0.49823648  0.62900337  0.01850590  1
  O  O291  1  0.51761522  0.63028418  0.51256634  1
  O  O292  1  0.51037759  0.38302494  0.49849501  1
  O  O293  1  0.42380553  0.37848180  1.06617145  1
  O  O294  1  0.49820916  0.88339581  0.49575319  1
  O  O295  1  0.50529229  0.88538488  0.96510429  1
  O  O296  1  0.98783267  0.36387130  0.50536693  1
  O  O297  1  0.98012927  0.41502207  1.00670704  1
  O  O298  1  0.99940062  0.88572120  0.50447264  1
  O  O299  1  0.99112075  0.88599224  1.01104542  1
  O  O300  1  0.50323585  0.49742005  0.36691080  1
  O  O301  1  0.48581878  0.50747775  0.87560146  1
  O  O302  1  0.51242181  0.98411433  0.39025362  1
  O  O303  1  0.47828115  1.02313163  0.82569896  1
  O  O304  1  1.00689526  0.50390912  0.38657117  1
  O  O305  1  0.96767543  0.52338735  0.88098710  1
  O  O306  1  1.00023509  0.99864453  0.38923949  1
  O  O307  1  1.00215773  1.00462574  0.89267072  1
  O  O308  1  0.00478089  0.01735032  0.12199703  1
  O  O309  1  0.01066723  0.00287023  0.61403144  1
  O  O310  1  0.02027545  0.50455287  0.14413811  1
  O  O311  1  -0.03774920  0.53773543  0.62335398  1
  O  O312  1  0.49828688  0.00704135  0.12608888  1
  O  O313  1  0.51425232  -0.00821230  0.61119576  1
  O  O314  1  0.51049305  0.49862788  0.13834500  1
  O  O315  1  0.51492968  0.51467775  0.63262519  1
  O  O316  1  0.24362518  0.35035342  0.24980032  1
  O  O317  1  0.20809680  0.33417030  0.77011019  1
  O  O318  1  0.22784224  0.87011887  0.22876318  1
  O  O319  1  0.24932765  0.87015972  0.73606857  1
  O  O320  1  0.74485528  0.38646887  0.24846863  1
  O  O321  1  0.75776517  0.39136498  0.73530013  1
  O  O322  1  0.72591727  0.86254269  0.23934666  1
  O  O323  1  0.74520569  0.89510875  0.75121378  1
  O  O324  1  0.27526168  0.14164845  0.23562576  1
  O  O325  1  0.26379563  0.13743697  0.77831404  1
  O  O326  1  0.27040047  0.63068515  0.24955344  1
  O  O327  1  0.24879521  0.62438128  0.74444759  1
  O  O328  1  0.76033185  0.12989063  0.26003981  1
  O  O329  1  0.76486992  0.12276918  0.74837661  1
  O  O330  1  0.76789659  0.62098484  0.24621408  1
  O  O331  1  0.72468317  0.61089042  0.78077205  1
  O  O332  1  0.37745875  0.13154383  0.36063501  1
  O  O333  1  0.41111690  0.02784010  0.95366936  1
  O  O334  1  0.39127823  0.61724379  0.36699951  1
  O  O335  1  0.36531712  0.61511964  0.86779825  1
  O  O336  1  0.86129486  0.12934988  0.38410566  1
  O  O337  1  0.88088848  0.13603504  0.84848744  1
  O  O338  1  0.88059591  0.62692209  0.35694711  1
  O  O339  1  0.83953318  0.61726273  0.89387183  1
  O  O340  1  0.12592474  0.38455042  0.14167952  1
  O  O341  1  0.14949690  0.36379035  0.61346109  1
  O  O342  1  0.13262917  0.88675018  0.12489566  1
  O  O343  1  0.14088640  0.87382328  0.62159901  1
  O  O344  1  0.63267642  0.38361761  0.13980402  1
  O  O345  1  0.63422668  0.39164636  0.61484365  1
  O  O346  1  0.60077878  0.87447994  0.13870322  1
  O  O347  1  0.63593424  0.88654539  0.63563566  1
  O  O348  1  0.11610517  0.25757739  0.24185621  1
  O  O349  1  0.13940756  0.30616386  0.77242645  1
  O  O350  1  0.11875545  0.75602085  0.24887088  1
  O  O351  1  0.12605001  0.76834712  0.73967183  1
  O  O352  1  0.62446434  0.26160753  0.25519135  1
  O  O353  1  0.60448796  0.22796642  0.75387172  1
  O  O354  1  0.62204254  0.74129908  0.25633191  1
  O  O355  1  0.63772563  0.77422807  0.74954139  1
  O  O356  1  0.39825298  0.25128155  0.25584665  1
  O  O357  1  0.38140206  0.26464850  0.71095138  1
  O  O358  1  0.37187679  0.74778070  0.26691429  1
  O  O359  1  0.37241932  0.74811255  0.73322281  1
  O  O360  1  0.89532565  0.26573558  0.23835940  1
  O  O361  1  0.87806883  0.23656636  0.72969956  1
  O  O362  1  0.89129877  0.73303183  0.23679686  1
  O  O363  1  0.83040969  0.74732862  0.76034037  1
  O  O364  1  0.38648978  0.49863951  0.48339391  1
  O  O365  1  0.37123873  0.50168267  0.98774544  1
  O  O366  1  0.39175764  0.98896118  0.50465565  1
  O  O367  1  0.37235688  0.99264379  1.00425719  1
  O  O368  1  0.87356789  0.49514902  0.49192034  1
  O  O369  1  0.84756244  0.50237985  0.99265355  1
  O  O370  1  0.88742936  0.99989231  0.50369879  1
  O  O371  1  0.88848899  0.98607203  1.00458558  1
  O  O372  1  0.10746170  -0.00694676  0.01421868  1
  O  O373  1  0.11723511  0.00203899  0.50767899  1
  O  O374  1  0.12571994  0.49039118  0.02615926  1
  O  O375  1  0.09657952  0.48648441  0.52981731  1
  O  O376  1  0.67976420  0.02509999  0.00911261  1
  O  O377  1  0.61887716  0.00588871  0.50590476  1
  O  O378  1  0.61706053  0.49527241  0.02257133  1
  O  O379  1  0.62631448  0.51099845  0.51166477  1
  O  O380  1  0.37629992  0.38281637  0.12313184  1
  O  O381  1  0.38199920  0.40607045  0.59933070  1
  O  O382  1  0.35522569  0.87970821  0.13652362  1
  O  O383  1  0.37380336  0.86859893  0.62272366  1
  O  O384  1  0.86891524  0.38198792  0.12368231  1
  O  O385  1  0.85944453  0.38473953  0.60993673  1
  O  O386  1  0.85977778  0.87087601  0.11479590  1
  O  O387  1  0.85730618  0.86789589  0.62250316  1
  O  O388  1  0.12225454  0.10959291  0.37844079  1
  O  O389  1  0.12426952  0.12550640  0.86892129  1
  O  O390  1  0.13021434  0.64452006  0.36353327  1
  O  O391  1  0.13673228  0.60969193  0.85675083  1
  O  O392  1  0.63682131  0.12804528  0.37944452  1
  O  O393  1  0.65147162  0.13103418  0.89615807  1
  O  O394  1  0.61585471  0.64105916  0.38643672  1
  O  O395  1  0.61095174  0.62623086  0.89392529  1
