# generated using pymatgen
data_V35Zn35O128
_symmetry_space_group_name_H-M   'P 1'
_cell_length_a   16.90507333
_cell_length_b   16.89250812
_cell_length_c   16.88636902
_cell_angle_alpha   90.01230583
_cell_angle_beta   89.86439444
_cell_angle_gamma   90.19168643
_symmetry_Int_Tables_number   1
_chemical_formula_structural   V35Zn35O128
_chemical_formula_sum   'V70 Zn70 O256'
_cell_volume   4822.18441286
_cell_formula_units_Z   2
loop_
 _symmetry_equiv_pos_site_id
 _symmetry_equiv_pos_as_xyz
  1  'x, y, z'
loop_
 _atom_site_type_symbol
 _atom_site_label
 _atom_site_symmetry_multiplicity
 _atom_site_fract_x
 _atom_site_fract_y
 _atom_site_fract_z
 _atom_site_occupancy
  V  V0  1  0.63331262  0.76217754  0.86962062  1
  V  V1  1  0.50020926  0.87459538  0.87270788  1
  V  V2  1  0.62753732  0.50256604  0.12756035  1
  V  V3  1  0.10576153  0.12568125  0.00356808  1
  V  V4  1  0.24331923  0.38066259  0.11870178  1
  V  V5  1  0.12159258  0.50206683  0.12422622  1
  V  V6  1  0.01981887  0.50563043  0.50913101  1
  V  V7  1  0.59953634  0.86424639  0.25365948  1
  V  V8  1  0.76163373  0.77533851  0.01272119  1
  V  V9  1  0.66408220  0.61128662  -0.02808447  1
  V  V10  1  0.12025328  0.37299934  0.25396645  1
  V  V11  1  0.24638315  0.24988219  -0.00286124  1
  V  V12  1  0.24430298  0.12254014  0.87464792  1
  V  V13  1  0.25175417  0.87801241  0.62797799  1
  V  V14  1  0.61766522  -0.00949305  0.63551050  1
  V  V15  1  0.87517764  0.25008672  0.12563664  1
  V  V16  1  -0.01713545  0.37432009  0.38075666  1
  V  V17  1  0.27059620  0.62961827  0.87165665  1
  V  V18  1  0.25712054  0.01920172  0.25931688  1
  V  V19  1  0.50378916  0.50069287  -0.00419397  1
  V  V20  1  0.37686067  0.88885649  0.49527693  1
  V  V21  1  0.74454336  0.37356505  0.15059142  1
  V  V22  1  -0.00470029  0.22838359  0.73985290  1
  V  V23  1  -0.00046817  0.86999674  0.87532350  1
  V  V24  1  0.61120300  0.25909116  0.36948788  1
  V  V25  1  0.63320454  0.24363093  0.88784804  1
  V  V26  1  0.63746135  0.37430391  0.73661053  1
  V  V27  1  0.25207302  0.73587046  0.50291366  1
  V  V28  1  0.50453315  0.24488850  0.74309987  1
  V  V29  1  0.87971243  0.12485419  0.24661392  1
  V  V30  1  0.11991407  0.25167719  0.86656658  1
  V  V31  1  0.13051440  0.73778270  0.37702100  1
  V  V32  1  0.50190470  0.37481607  0.86578569  1
  V  V33  1  0.12665157  0.75612611  0.84879412  1
  V  V34  1  0.88966811  0.00059478  0.88219018  1
  V  V35  1  0.23607990  -0.00135282  0.74524750  1
  V  V36  1  0.75206671  -0.01259756  0.24932605  1
  V  V37  1  0.62397320  0.63665553  0.48283110  1
  V  V38  1  0.25120525  0.36983039  0.59601463  1
  V  V39  1  0.37531192  0.37562377  -0.01314245  1
  V  V40  1  0.88193194  -0.00436026  0.38457920  1
  V  V41  1  0.75320573  0.86278278  0.62140244  1
  V  V42  1  0.12995444  0.14076571  0.50773655  1
  V  V43  1  0.75501663  0.12009901  0.88009929  1
  V  V44  1  0.12458494  0.87845959  0.25700842  1
  V  V45  1  0.82027727  0.56739639  0.31326881  1
  V  V46  1  -0.00573109  0.50142539  -0.00038249  1
  V  V47  1  0.24921173  0.87418516  0.12581791  1
  V  V48  1  0.75350911  0.13276533  0.38394640  1
  V  V49  1  0.38089746  0.25080306  0.13060551  1
  V  V50  1  0.86119941  0.38182782  0.51596906  1
  V  V51  1  0.89698726  0.73996409  0.62902073  1
  V  V52  1  0.64311677  0.49927535  0.61881524  1
  V  V53  1  0.11011114  0.00942369  0.12687244  1
  V  V54  1  0.00350706  0.87336437  0.38801888  1
  V  V55  1  -0.01067429  0.64442521  0.13409111  1
  V  V56  1  0.37381701  0.24722422  0.62237329  1
  V  V57  1  0.86002771  0.23858992  0.62081806  1
  V  V58  1  0.50750664  -0.00679307  0.49104886  1
  V  V59  1  0.12346639  0.64683990  -0.00125353  1
  V  V60  1  0.86870486  0.60088217  0.75624492  1
  V  V61  1  -0.00036477  0.38361660  0.86229927  1
  V  V62  1  0.50297796  0.61522081  0.64799527  1
  V  V63  1  0.86547909  0.37310752  -0.00908749  1
  V  V64  1  0.63051304  0.00805683  0.12281441  1
  V  V65  1  0.00869854  0.00664301  0.52226758  1
  V  V66  1  0.61840289  0.12402219  0.50720845  1
  V  V67  1  0.36855641  0.87095486  0.00891753  1
  V  V68  1  0.49362050  0.01566285  0.00721617  1
  V  V69  1  0.38203117  0.11519325  0.75049653  1
  Zn  Zn70  1  0.75702469  0.00068044  0.74741592  1
  Zn  Zn71  1  0.37079284  0.00253745  0.88278019  1
  Zn  Zn72  1  0.50336513  0.13993053  0.12751034  1
  Zn  Zn73  1  0.76303900  0.74111643  0.47831238  1
  Zn  Zn74  1  0.24489430  0.15961531  0.38177146  1
  Zn  Zn75  1  0.00312745  0.24200915  0.25432840  1
  Zn  Zn76  1  0.18653837  0.18990963  0.18548863  1
  Zn  Zn77  1  0.18690501  0.18758192  0.68428390  1
  Zn  Zn78  1  0.17898095  0.69137341  0.18585840  1
  Zn  Zn79  1  0.31649914  0.69051856  0.69009329  1
  Zn  Zn80  1  0.69247999  0.18598088  0.19338441  1
  Zn  Zn81  1  0.69055648  0.17855616  0.69151099  1
  Zn  Zn82  1  0.66395794  0.69309973  0.16109967  1
  Zn  Zn83  1  0.69401549  0.68222263  0.69898114  1
  Zn  Zn84  1  0.29942746  0.31892559  0.30457861  1
  Zn  Zn85  1  0.31549459  0.30372388  0.80771098  1
  Zn  Zn86  1  0.30859477  0.82137084  0.32072436  1
  Zn  Zn87  1  0.30871821  0.81677467  0.82463341  1
  Zn  Zn88  1  0.81307605  0.31013859  0.31828768  1
  Zn  Zn89  1  0.81542421  0.30577570  0.80613795  1
  Zn  Zn90  1  0.82105911  0.79243188  0.27847822  1
  Zn  Zn91  1  0.81408767  0.81055220  0.80530162  1
  Zn  Zn92  1  0.18565966  0.42916593  0.44203164  1
  Zn  Zn93  1  0.17677781  0.44422087  0.92957680  1
  Zn  Zn94  1  0.18809158  0.94965006  0.44335587  1
  Zn  Zn95  1  0.17508192  0.93847788  0.94024329  1
  Zn  Zn96  1  0.68836770  0.44653162  0.43193390  1
  Zn  Zn97  1  0.68466441  0.43410767  0.92488205  1
  Zn  Zn98  1  0.71644645  0.88634996  0.40911283  1
  Zn  Zn99  1  0.68911764  0.94225081  0.94299646  1
  Zn  Zn100  1  0.30575533  0.06502950  0.07310127  1
  Zn  Zn101  1  0.31411848  0.06780458  0.55959443  1
  Zn  Zn102  1  0.29234563  0.54442230  0.01265265  1
  Zn  Zn103  1  0.32036387  0.56038234  0.56306449  1
  Zn  Zn104  1  0.81262635  0.06614695  0.05668698  1
  Zn  Zn105  1  0.81090353  0.05272053  0.56554340  1
  Zn  Zn106  1  0.81552394  0.55659858  0.07388976  1
  Zn  Zn107  1  0.81801379  0.57101675  0.55362117  1
  Zn  Zn108  1  0.42115515  0.45434084  0.16744655  1
  Zn  Zn109  1  0.44839599  0.42843315  0.57419773  1
  Zn  Zn110  1  0.43387665  0.94602248  0.19116711  1
  Zn  Zn111  1  0.44398091  0.82136329  0.68759827  1
  Zn  Zn112  1  0.93517218  0.43893771  0.18662992  1
  Zn  Zn113  1  0.93385339  0.44942769  0.68207611  1
  Zn  Zn114  1  0.93501841  0.92368363  0.19386682  1
  Zn  Zn115  1  0.91548935  0.90847721  0.70482462  1
  Zn  Zn116  1  0.06945187  0.06636381  0.32353859  1
  Zn  Zn117  1  0.02192750  0.01716000  0.74926298  1
  Zn  Zn118  1  0.04746884  0.55817604  0.31310077  1
  Zn  Zn119  1  0.02605757  0.59427463  0.82417170  1
  Zn  Zn120  1  0.57683089  0.05172227  0.32413282  1
  Zn  Zn121  1  0.56516088  0.05839981  0.81833277  1
  Zn  Zn122  1  0.54388989  0.57928621  0.30264093  1
  Zn  Zn123  1  0.58519699  0.55998893  0.81618543  1
  Zn  Zn124  1  0.41732807  0.28015852  0.43620310  1
  Zn  Zn125  1  0.43732885  0.19362158  0.93353824  1
  Zn  Zn126  1  0.43914125  0.70838346  0.53322807  1
  Zn  Zn127  1  0.45331677  0.70236218  0.97086467  1
  Zn  Zn128  1  0.94440699  0.19169700  0.44660003  1
  Zn  Zn129  1  0.93025622  0.19466864  0.93174595  1
  Zn  Zn130  1  0.94271125  0.68466520  0.44590366  1
  Zn  Zn131  1  0.92998289  0.69168035  0.93944881  1
  Zn  Zn132  1  0.05479864  0.31332954  0.05911719  1
  Zn  Zn133  1  0.06468251  0.32181773  0.56897155  1
  Zn  Zn134  1  0.05043594  0.82765885  0.06305079  1
  Zn  Zn135  1  0.07228626  0.81146269  0.56518998  1
  Zn  Zn136  1  0.56524253  0.32099246  0.06432634  1
  Zn  Zn137  1  0.56620993  0.31109429  0.55008284  1
  Zn  Zn138  1  0.55241874  0.82699248  0.07839719  1
  Zn  Zn139  1  0.57432758  0.81011948  0.55964793  1
  O  O140  1  0.12017433  0.11810630  0.12068119  1
  O  O141  1  0.13119961  0.12517419  0.61070968  1
  O  O142  1  0.11496098  0.62194325  0.11486046  1
  O  O143  1  0.14910948  0.56274447  0.66101358  1
  O  O144  1  0.61708589  0.11414329  0.14061120  1
  O  O145  1  0.63846189  0.11098209  0.61094681  1
  O  O146  1  0.63904464  0.60462891  0.08926278  1
  O  O147  1  0.62079570  0.60818152  0.64100443  1
  O  O148  1  0.32960662  0.43380932  0.35535947  1
  O  O149  1  0.38499310  0.36551520  0.87905434  1
  O  O150  1  0.36543152  0.88788136  0.39489400  1
  O  O151  1  0.37906589  0.88381132  0.89384863  1
  O  O152  1  0.87965347  0.37506896  0.38830200  1
  O  O153  1  0.88748947  0.36584532  0.88247770  1
  O  O154  1  0.89965966  0.88421516  0.37005241  1
  O  O155  1  0.89183118  0.88323354  0.87344005  1
  O  O156  1  0.24515363  0.00272442  0.35902372  1
  O  O157  1  0.24559133  0.00906764  0.86905617  1
  O  O158  1  0.27246972  0.48166951  0.36873946  1
  O  O159  1  0.25057804  0.52553477  0.90002500  1
  O  O160  1  0.76371646  -0.00660862  0.36248117  1
  O  O161  1  0.74943978  0.00927244  0.87377510  1
  O  O162  1  0.75351479  0.51289640  0.36763165  1
  O  O163  1  0.68306406  0.54109469  0.88911997  1
  O  O164  1  0.23673034  0.48856286  0.10228363  1
  O  O165  1  0.27563256  0.47056848  0.60417482  1
  O  O166  1  0.23528694  1.00068591  0.13891663  1
  O  O167  1  0.25896395  0.99489626  0.63997454  1
  O  O168  1  0.73942080  0.48417909  0.12254055  1
  O  O169  1  0.74055174  0.50219102  0.62327249  1
  O  O170  1  0.73855794  1.01214363  0.13508964  1
  O  O171  1  0.74247263  0.98821910  0.62669299  1
  O  O172  1  0.00598289  0.37853231  0.26180079  1
  O  O173  1  -0.00373345  0.38195066  0.76286750  1
  O  O174  1  0.01928295  0.88246698  0.26926930  1
  O  O175  1  0.01148368  0.90000033  0.76934514  1
  O  O176  1  0.47120858  0.41823449  0.27562103  1
  O  O177  1  0.50929931  0.35957130  0.75693509  1
  O  O178  1  0.49887415  0.87678410  0.24948194  1
  O  O179  1  0.49320817  0.88491338  0.77443054  1
  O  O180  1  0.48881838  0.11650880  0.26043600  1
  O  O181  1  0.48825648  0.12905751  0.76257644  1
  O  O182  1  0.47561660  0.66124415  0.25079646  1
  O  O183  1  0.50579783  0.61639671  0.74717916  1
  O  O184  1  0.98358751  0.12250944  0.25979383  1
  O  O185  1  0.99908666  0.13041776  0.74531897  1
  O  O186  1  1.00594861  0.62495857  0.23234110  1
  O  O187  1  0.97845138  0.59867707  0.72445092  1
  O  O188  1  0.36408032  0.25908943  0.00140029  1
  O  O189  1  0.37813081  0.21656759  0.52885709  1
  O  O190  1  0.36385848  0.77347777  0.00602387  1
  O  O191  1  0.35797787  0.76744790  0.48666087  1
  O  O192  1  0.87733117  0.26578644  0.00873035  1
  O  O193  1  0.88125735  0.26341744  0.51404332  1
  O  O194  1  0.86079814  0.76010219  -0.00926746  1
  O  O195  1  0.87016324  0.73194804  0.52121196  1
  O  O196  1  0.11795320  0.24054734  0.50323537  1
  O  O197  1  0.12975641  0.24575422  0.99499093  1
  O  O198  1  0.14125522  0.75240860  0.49013730  1
  O  O199  1  0.11532670  0.74567253  1.00428373  1
  O  O200  1  0.62443329  0.22944541  0.49312790  1
  O  O201  1  0.62564798  0.25990326  0.98562721  1
  O  O202  1  0.63027975  0.74158976  0.48651759  1
  O  O203  1  0.65676955  0.72606557  0.98898313  1
  O  O204  1  0.48662129  0.25565652  0.11622222  1
  O  O205  1  0.49159598  0.24965851  0.63792766  1
  O  O206  1  0.50760775  0.72951871  0.07012983  1
  O  O207  1  0.50493996  0.74274996  0.62661913  1
  O  O208  1  0.97978747  0.26327843  0.13211709  1
  O  O209  1  1.00304117  0.25464200  0.64122950  1
  O  O210  1  1.00288820  0.74492645  0.12468803  1
  O  O211  1  0.99650958  0.74762238  0.61807768  1
  O  O212  1  -0.00545408  0.26756142  0.37151824  1
  O  O213  1  0.00179837  0.25807208  0.85985734  1
  O  O214  1  0.01656366  0.76511242  0.39167074  1
  O  O215  1  0.00984149  0.76390767  0.87251031  1
  O  O216  1  0.51137033  0.24932241  0.37374279  1
  O  O217  1  0.51285540  0.25432846  0.86699995  1
  O  O218  1  0.42452428  0.70166384  0.29732520  1
  O  O219  1  0.50508837  0.77183708  0.88930777  1
  O  O220  1  0.23806769  0.11862492  0.49417425  1
  O  O221  1  0.24462250  0.13678746  0.99441958  1
  O  O222  1  0.25880493  0.63715925  0.50419262  1
  O  O223  1  0.22664594  0.63789017  1.00213136  1
  O  O224  1  0.74421898  0.10783006  0.48446449  1
  O  O225  1  0.74475496  0.12406842  0.98228522  1
  O  O226  1  0.72997954  0.62703823  0.50261624  1
  O  O227  1  0.76268525  0.61914101  0.99030435  1
  O  O228  1  0.25239966  0.36705373  -0.00417505  1
  O  O229  1  0.25258913  0.35500374  0.49597984  1
  O  O230  1  0.25675242  0.89374115  0.01509819  1
  O  O231  1  0.26158544  0.89208856  0.51377607  1
  O  O232  1  0.76547542  0.38198749  -0.01538742  1
  O  O233  1  0.76354018  0.38301158  0.50083845  1
  O  O234  1  0.74402945  0.87524519  0.01523764  1
  O  O235  1  0.74807467  0.87253710  0.51692487  1
  O  O236  1  0.11698856  0.48832409  0.23255438  1
  O  O237  1  0.13785064  0.52359927  0.72062967  1
  O  O238  1  0.13035831  1.00001438  0.24277410  1
  O  O239  1  0.13909244  1.01066404  0.74879661  1
  O  O240  1  0.60959647  0.52773173  0.22266875  1
  O  O241  1  0.62269529  0.47903225  0.73904886  1
  O  O242  1  0.63771700  0.99673707  0.24552144  1
  O  O243  1  0.62465722  1.00516374  0.73800599  1
  O  O244  1  0.35591183  0.00906150  0.24309218  1
  O  O245  1  0.36779618  0.01439055  0.76211765  1
  O  O246  1  0.36268475  0.53732485  0.22903926  1
  O  O247  1  0.30975232  0.46339835  0.75899989  1
  O  O248  1  0.86661077  0.00504922  0.25147029  1
  O  O249  1  0.87484746  -0.00140822  0.76944058  1
  O  O250  1  0.87120503  0.50443497  0.25187339  1
  O  O251  1  0.85612580  0.49962042  0.74873165  1
  O  O252  1  0.13269209  0.37445933  0.35399916  1
  O  O253  1  0.11057133  0.36333294  0.88042843  1
  O  O254  1  0.12190058  0.87706974  0.37362144  1
  O  O255  1  0.12675098  0.86183584  0.87046434  1
  O  O256  1  0.63297824  0.35619405  0.38945193  1
  O  O257  1  0.62191595  0.36081740  0.85894635  1
  O  O258  1  0.61899995  0.88065549  0.35219065  1
  O  O259  1  0.60910361  0.87325486  0.89133631  1
  O  O260  1  0.37214460  0.14722622  0.12369091  1
  O  O261  1  0.36730571  0.12823109  0.64782153  1
  O  O262  1  0.31792009  0.59303019  0.19160098  1
  O  O263  1  0.39178463  0.62997176  0.62024485  1
  O  O264  1  0.86194821  0.13749408  0.13429544  1
  O  O265  1  0.87304709  0.13902173  0.61156010  1
  O  O266  1  0.89156201  0.62470903  0.11911307  1
  O  O267  1  0.86449084  0.63444498  0.63968129  1
  O  O268  1  0.25364798  0.25964389  0.11171838  1
  O  O269  1  0.26680565  0.26109800  0.64520568  1
  O  O270  1  0.23939924  0.77532380  0.13033367  1
  O  O271  1  0.25382871  0.75906454  0.60983666  1
  O  O272  1  0.75526016  0.26616621  0.13178595  1
  O  O273  1  0.76094937  0.24684033  0.62956632  1
  O  O274  1  0.75121930  0.74566131  0.10986378  1
  O  O275  1  0.73729079  0.76051013  0.62641345  1
  O  O276  1  0.31954639  0.24630183  0.38275054  1
  O  O277  1  0.24009577  0.24658307  0.87744242  1
  O  O278  1  0.23965111  0.75292835  0.38632605  1
  O  O279  1  0.23318616  0.73994317  0.87354867  1
  O  O280  1  0.75401337  0.23360167  0.38280558  1
  O  O281  1  0.73981141  0.24112896  0.86942740  1
  O  O282  1  0.76657186  0.78708593  0.37391904  1
  O  O283  1  0.73810721  0.77636658  0.88412674  1
  O  O284  1  0.00778860  0.13762011  -0.00344293  1
  O  O285  1  0.01016676  0.11351433  0.50057114  1
  O  O286  1  0.00564770  0.62021772  0.00711317  1
  O  O287  1  0.00194760  0.60424425  0.50297831  1
  O  O288  1  0.49512954  0.11831942  -0.00003409  1
  O  O289  1  0.51692773  0.11047661  0.50282991  1
  O  O290  1  0.50185242  0.59819748  -0.01348907  1
  O  O291  1  0.52392181  0.62967123  0.52307200  1
  O  O292  1  0.48072285  0.36023630  0.49264140  1
  O  O293  1  0.49256813  0.37409397  0.98597914  1
  O  O294  1  0.48951370  0.88216441  0.50474984  1
  O  O295  1  0.48053866  0.89296197  1.00655289  1
  O  O296  1  0.99892751  0.37695623  0.48810044  1
  O  O297  1  0.99039910  0.38235401  0.99093906  1
  O  O298  1  1.01098066  0.88929864  0.49306548  1
  O  O299  1  1.01672649  0.88971377  0.97563669  1
  O  O300  1  0.48322205  0.47242954  0.32837971  1
  O  O301  1  0.51348240  0.48206695  0.88230766  1
  O  O302  1  0.50220151  0.99966184  0.39132799  1
  O  O303  1  0.50159835  0.99520037  0.89505503  1
  O  O304  1  1.00679039  0.48107907  0.38544168  1
  O  O305  1  1.01059665  0.48755599  0.88339577  1
  O  O306  1  0.99771075  0.99373496  0.38387914  1
  O  O307  1  0.99053998  1.00799636  0.87627926  1
  O  O308  1  0.01168080  -0.00982594  0.13465866  1
  O  O309  1  -0.00868501  -0.00551624  0.62049489  1
  O  O310  1  0.00567637  0.50211497  0.11489567  1
  O  O311  1  0.01442693  0.47644960  0.60769008  1
  O  O312  1  0.50142043  0.01367740  0.11903977  1
  O  O313  1  0.51929959  -0.00373933  0.61816799  1
  O  O314  1  0.51396934  0.48399488  0.10704639  1
  O  O315  1  0.50036109  0.51179612  0.62737528  1
  O  O316  1  0.23352729  0.37389455  0.22919536  1
  O  O317  1  0.26383739  0.40414148  0.75979501  1
  O  O318  1  0.24392061  0.88889373  0.24299327  1
  O  O319  1  0.25570902  0.89169011  0.74449049  1
  O  O320  1  0.75119339  0.37839058  0.24878200  1
  O  O321  1  0.73557845  0.36595203  0.74865668  1
  O  O322  1  0.74520939  0.88939989  0.24045040  1
  O  O323  1  0.75891466  0.88097260  0.73149253  1
  O  O324  1  0.24328821  0.12529802  0.25968089  1
  O  O325  1  0.25573766  0.11877150  0.75884714  1
  O  O326  1  0.25851471  0.61858264  0.23876203  1
  O  O327  1  0.27054771  0.62207704  0.77093921  1
  O  O328  1  0.75953842  0.11531150  0.26607593  1
  O  O329  1  0.74424477  0.11862525  0.76919272  1
  O  O330  1  0.73972047  0.62469547  0.24415810  1
  O  O331  1  0.77110449  0.63598258  0.76652816  1
  O  O332  1  0.42930983  0.13608614  0.30134141  1
  O  O333  1  0.35979020  0.13074208  0.86959288  1
  O  O334  1  0.40665468  0.58330891  0.41256072  1
  O  O335  1  0.36307014  0.64479995  0.90517452  1
  O  O336  1  0.86738677  0.11628240  0.37238074  1
  O  O337  1  0.86383651  0.11955507  0.87651078  1
  O  O338  1  0.88618458  0.61215266  0.37718359  1
  O  O339  1  0.90855099  0.61874842  0.85633225  1
  O  O340  1  0.12635827  0.38344813  0.12133577  1
  O  O341  1  0.15344245  0.36775959  0.62378938  1
  O  O342  1  0.13093030  0.88945336  0.13267154  1
  O  O343  1  0.15126668  0.87193067  0.62167422  1
  O  O344  1  0.63790284  0.38255436  0.12782078  1
  O  O345  1  0.62073323  0.38212453  0.62811680  1
  O  O346  1  0.61348293  0.89975360  0.13954291  1
  O  O347  1  0.63292479  0.88459088  0.62526279  1
  O  O348  1  0.11660870  0.26825447  0.23313353  1
  O  O349  1  0.11397887  0.24295758  0.76035024  1
  O  O350  1  0.13637054  0.76442719  0.26773419  1
  O  O351  1  0.12460764  0.74618248  0.75379639  1
  O  O352  1  0.63261549  0.24496606  0.27058451  1
  O  O353  1  0.61783140  0.25458316  0.74639124  1
  O  O354  1  0.61645194  0.76563902  0.23299525  1
  O  O355  1  0.63034236  0.75503094  0.77044605  1
  O  O356  1  0.37380862  0.27268221  0.22681194  1
  O  O357  1  0.38652408  0.23764866  0.74910216  1
  O  O358  1  0.37848656  0.75054445  0.25460610  1
  O  O359  1  0.37345809  0.76223750  0.75316239  1
  O  O360  1  0.87302308  0.24125127  0.24482734  1
  O  O361  1  0.88762607  0.25009451  0.73636782  1
  O  O362  1  0.81000658  0.66751938  0.25656080  1
  O  O363  1  0.88358083  0.75278567  0.73411320  1
  O  O364  1  0.39320948  0.52734240  0.46043171  1
  O  O365  1  0.39002814  0.48604417  1.00563211  1
  O  O366  1  0.39315795  0.99710278  0.51170895  1
  O  O367  1  0.38210450  1.00574230  1.00467202  1
  O  O368  1  0.88725070  0.48514543  0.51208305  1
  O  O369  1  0.88506355  0.48516432  1.00548475  1
  O  O370  1  0.88930674  1.00425811  0.48999186  1
  O  O371  1  0.86983889  1.00145459  0.98327111  1
  O  O372  1  0.12721084  0.01267623  0.01710831  1
  O  O373  1  0.11153537  0.00539146  0.50849461  1
  O  O374  1  0.11134834  0.50806073  0.00642673  1
  O  O375  1  0.12160371  0.50183652  0.49376241  1
  O  O376  1  0.61147165  0.00058263  0.01751668  1
  O  O377  1  0.61604245  0.00236372  0.50437198  1
  O  O378  1  0.61554778  0.49243481  0.00643329  1
  O  O379  1  0.62606194  0.50607852  0.51518546  1
  O  O380  1  0.36266974  0.37098952  0.10801854  1
  O  O381  1  0.37122861  0.35401522  0.62049910  1
  O  O382  1  0.35930940  0.88601556  0.12115892  1
  O  O383  1  0.36448986  0.86970154  0.61191834  1
  O  O384  1  0.85832285  0.37259871  0.11762885  1
  O  O385  1  0.87534080  0.36503321  0.61927423  1
  O  O386  1  0.88136753  0.82728777  0.19270652  1
  O  O387  1  0.86605730  0.85395114  0.61895501  1
  O  O388  1  0.13001646  0.13117488  0.39085656  1
  O  O389  1  0.13413524  0.13687263  0.88727611  1
  O  O390  1  0.11881193  0.64015623  0.36484064  1
  O  O391  1  0.11387081  0.64167910  0.88569474  1
  O  O392  1  0.63887355  0.12806064  0.38376468  1
  O  O393  1  0.62697284  0.13933725  0.87582531  1
  O  O394  1  0.60854119  0.61534044  0.38582536  1
  O  O395  1  0.60664889  0.65558898  0.88338281  1
