# generated using pymatgen
data_V35Zn35O128
_symmetry_space_group_name_H-M   'P 1'
_cell_length_a   16.81779452
_cell_length_b   16.87495131
_cell_length_c   16.85184386
_cell_angle_alpha   89.98881269
_cell_angle_beta   90.07262883
_cell_angle_gamma   90.10829828
_symmetry_Int_Tables_number   1
_chemical_formula_structural   V35Zn35O128
_chemical_formula_sum   'V70 Zn70 O256'
_cell_volume   4782.53177218
_cell_formula_units_Z   2
loop_
 _symmetry_equiv_pos_site_id
 _symmetry_equiv_pos_as_xyz
  1  'x, y, z'
loop_
 _atom_site_type_symbol
 _atom_site_label
 _atom_site_symmetry_multiplicity
 _atom_site_fract_x
 _atom_site_fract_y
 _atom_site_fract_z
 _atom_site_occupancy
  V  V0  1  0.24870349  0.87781635  0.12823271  1
  V  V1  1  0.00864547  0.26143339  0.25838040  1
  V  V2  1  0.25766139  0.12934158  0.87723184  1
  V  V3  1  0.38525025  0.25083408  0.62300156  1
  V  V4  1  0.74263665  0.11702921  0.38834880  1
  V  V5  1  0.63929338  0.49848392  0.61885266  1
  V  V6  1  0.73012851  0.24529881  0.00028715  1
  V  V7  1  0.24583781  0.37663188  0.62420355  1
  V  V8  1  0.62324242  0.74724012  0.86069413  1
  V  V9  1  0.39012611  0.61977318  0.74442750  1
  V  V10  1  0.50530948  0.86924171  0.86101103  1
  V  V11  1  0.86649317  0.23024914  0.60622640  1
  V  V12  1  0.37400463  -0.00439936  0.87555233  1
  V  V13  1  0.76317178  0.61474051  0.85872503  1
  V  V14  1  0.61300510  0.01828979  0.63139576  1
  V  V15  1  -0.01062254  0.74650120  0.74719942  1
  V  V16  1  0.38389824  0.38263685  0.48645673  1
  V  V17  1  0.25120096  0.62098621  0.86942509  1
  V  V18  1  -0.00214919  0.85624346  0.37168267  1
  V  V19  1  0.23352334  0.49916811  0.74524702  1
  V  V20  1  0.37157507  0.40168758  -0.01046556  1
  V  V21  1  0.37504404  0.87420178  0.48690243  1
  V  V22  1  -0.00622217  0.11848941  0.11779709  1
  V  V23  1  0.75853199  0.01202556  0.76173370  1
  V  V24  1  0.87239897  0.75400874  0.61485797  1
  V  V25  1  0.13217269  0.12670133  0.00120621  1
  V  V26  1  0.36018316  0.25206516  0.12078846  1
  V  V27  1  -0.00091750  0.00908196  0.48151602  1
  V  V28  1  0.24448764  0.38225563  0.14368563  1
  V  V29  1  -0.01861832  0.37133189  0.87647180  1
  V  V30  1  0.24809140  0.88961073  0.62997776  1
  V  V31  1  0.23231698  0.74176450  0.50231264  1
  V  V32  1  0.12077447  0.49837455  0.14055964  1
  V  V33  1  -0.00650869  0.89202361  0.87520780  1
  V  V34  1  0.87714600  0.89079892  -0.00178527  1
  V  V35  1  0.64212642  0.37543536  0.74863808  1
  V  V36  1  0.61519627  0.61673573  0.00550150  1
  V  V37  1  0.36989078  0.11771592  0.25440752  1
  V  V38  1  0.38614053  0.12171176  0.74808421  1
  V  V39  1  0.63631713  0.75418265  0.35792367  1
  V  V40  1  0.50349249  0.13600750  0.12853140  1
  V  V41  1  0.00815799  0.12522765  0.64359234  1
  V  V42  1  0.62422306  0.25285423  0.33984324  1
  V  V43  1  0.76012264  0.74604681  -0.00095980  1
  V  V44  1  0.88222661  0.48551104  0.39037540  1
  V  V45  1  0.12277080  0.74850182  0.87081798  1
  V  V46  1  0.87513128  0.63166135  0.26201401  1
  V  V47  1  0.87896678  0.27234393  0.11964514  1
  V  V48  1  0.12212150  0.85830758  0.25244590  1
  V  V49  1  0.12847166  0.00246969  0.12971467  1
  V  V50  1  0.86594681  0.11259779  0.24946798  1
  V  V51  1  0.24572370  0.60577427  0.36817880  1
  V  V52  1  0.24525060  0.10562144  0.37269475  1
  V  V53  1  0.63154167  0.63050227  0.50027518  1
  V  V54  1  0.49793664  0.26867505  0.76866654  1
  V  V55  1  0.38551598  0.87223858  0.00000801  1
  V  V56  1  -0.00750757  0.63482599  0.12936768  1
  V  V57  1  0.61217174  -0.01841968  0.13081851  1
  V  V58  1  0.12780039  0.89319456  0.74910283  1
  V  V59  1  0.13473841  0.26158639  0.87718289  1
  V  V60  1  0.38362806  0.74228819  0.13928258  1
  V  V61  1  0.24789493  0.24422438  0.49228563  1
  V  V62  1  -0.01161881  0.49579203  -0.00649614  1
  V  V63  1  0.74471889  0.49818902  0.25495976  1
  V  V64  1  0.75272696  0.87824197  0.13187718  1
  V  V65  1  0.50294785  0.00904203  0.49122554  1
  V  V66  1  0.72401344  0.38387799  0.12519453  1
  V  V67  1  0.38379888  0.75029064  0.62956001  1
  V  V68  1  0.73983541  0.87782802  0.62691469  1
  V  V69  1  0.24865428  0.75054649  -0.00099556  1
  Zn  Zn70  1  0.11656975  0.36529436  0.74136612  1
  Zn  Zn71  1  0.50972648  0.86915769  0.36429585  1
  Zn  Zn72  1  0.86745701  0.88167499  0.48852920  1
  Zn  Zn73  1  0.54570940  0.04215831  -0.03189645  1
  Zn  Zn74  1  0.12232558  0.62284078  0.00116353  1
  Zn  Zn75  1  0.13085079  0.11160487  0.51239502  1
  Zn  Zn76  1  0.18775821  0.18984813  0.19183980  1
  Zn  Zn77  1  0.19403292  0.18614575  0.69097341  1
  Zn  Zn78  1  0.19418889  0.67833903  0.19265169  1
  Zn  Zn79  1  0.18970352  0.69862333  0.69031657  1
  Zn  Zn80  1  0.68967975  0.18571145  0.17115060  1
  Zn  Zn81  1  0.67856191  0.19293160  0.68697749  1
  Zn  Zn82  1  0.69560944  0.68383168  0.18189293  1
  Zn  Zn83  1  0.68925749  0.68123447  0.67511045  1
  Zn  Zn84  1  0.31795407  0.30694848  0.30793232  1
  Zn  Zn85  1  0.31460881  0.31551200  0.81679624  1
  Zn  Zn86  1  0.30085792  0.80127394  0.31451442  1
  Zn  Zn87  1  0.31363165  0.81007018  0.80877571  1
  Zn  Zn88  1  0.81257996  0.30700338  0.30924172  1
  Zn  Zn89  1  0.81752271  0.26483123  0.81902382  1
  Zn  Zn90  1  0.81327420  0.81381156  0.31433345  1
  Zn  Zn91  1  0.80510674  0.82198426  0.80843660  1
  Zn  Zn92  1  0.17751243  0.42366593  0.42375616  1
  Zn  Zn93  1  0.19079347  0.44396334  0.95114299  1
  Zn  Zn94  1  0.18114274  0.93411429  0.44070070  1
  Zn  Zn95  1  0.18861881  0.94201081  0.93913086  1
  Zn  Zn96  1  0.68981154  0.43482135  0.42634528  1
  Zn  Zn97  1  0.70160801  0.43823763  0.93972339  1
  Zn  Zn98  1  0.68544713  0.94086909  0.43869658  1
  Zn  Zn99  1  0.68669848  0.93348202  0.94045653  1
  Zn  Zn100  1  0.32053778  0.06080538  0.05937683  1
  Zn  Zn101  1  0.32442566  0.06281067  0.56012872  1
  Zn  Zn102  1  0.30649198  0.56385464  0.06720101  1
  Zn  Zn103  1  0.34442962  0.58580309  0.52629146  1
  Zn  Zn104  1  0.80340700  0.06059396  0.05940171  1
  Zn  Zn105  1  0.81346677  0.05489995  0.56585451  1
  Zn  Zn106  1  0.80883178  0.56221420  0.06532761  1
  Zn  Zn107  1  0.84353955  0.54063557  0.59975824  1
  Zn  Zn108  1  0.45983657  0.43280460  0.14301755  1
  Zn  Zn109  1  0.43674198  0.44834781  0.68221242  1
  Zn  Zn110  1  0.43047805  0.93594264  0.19498679  1
  Zn  Zn111  1  0.44088080  0.93788627  0.68482788  1
  Zn  Zn112  1  0.94075616  0.44707870  0.19928130  1
  Zn  Zn113  1  0.94504491  0.41322939  0.68165574  1
  Zn  Zn114  1  0.93977142  0.93320210  0.18620387  1
  Zn  Zn115  1  0.93168560  0.94859837  0.68292272  1
  Zn  Zn116  1  0.06138791  0.07025690  0.30658086  1
  Zn  Zn117  1  0.06235847  0.07255775  0.81802694  1
  Zn  Zn118  1  0.05702090  0.57250588  0.32697016  1
  Zn  Zn119  1  -0.06734294  0.55695581  0.79506185  1
  Zn  Zn120  1  0.56660483  0.06094864  0.30864156  1
  Zn  Zn121  1  0.60535021  0.09418656  0.80631483  1
  Zn  Zn122  1  0.58158796  0.56300686  0.34428053  1
  Zn  Zn123  1  0.57649975  0.55349047  0.81647357  1
  Zn  Zn124  1  0.44395800  0.19425962  0.43098572  1
  Zn  Zn125  1  0.46255963  0.18086273  0.93542865  1
  Zn  Zn126  1  0.45458398  0.66059898  0.39627095  1
  Zn  Zn127  1  0.43581960  0.68421485  0.93556283  1
  Zn  Zn128  1  0.92961346  0.18657777  0.43281603  1
  Zn  Zn129  1  0.93772449  0.19142793  0.93977215  1
  Zn  Zn130  1  0.80716357  0.68250366  0.44223198  1
  Zn  Zn131  1  0.94014553  0.68851974  0.93691079  1
  Zn  Zn132  1  0.06502307  0.31135568  0.06056999  1
  Zn  Zn133  1  0.05765177  0.30621767  0.54015718  1
  Zn  Zn134  1  0.06145174  0.81594629  0.05945234  1
  Zn  Zn135  1  0.05658319  0.82665761  0.56449741  1
  Zn  Zn136  1  0.55129245  0.31713381  0.05467596  1
  Zn  Zn137  1  0.54466060  0.36030166  0.58216031  1
  Zn  Zn138  1  0.56895874  0.79677399  0.06319259  1
  Zn  Zn139  1  0.56092034  0.81970556  0.55825827  1
  O  O140  1  0.12205601  0.12129135  0.11972637  1
  O  O141  1  0.11658832  0.12738153  0.63023642  1
  O  O142  1  0.11786218  0.61359266  0.12783654  1
  O  O143  1  0.10661790  0.61205059  0.62472818  1
  O  O144  1  0.60462858  0.11610001  0.12522813  1
  O  O145  1  0.61235933  0.11751553  0.62385947  1
  O  O146  1  0.62770131  0.63626870  0.10490667  1
  O  O147  1  0.61967453  0.60835438  0.61515606  1
  O  O148  1  0.36254326  0.37452398  0.38767440  1
  O  O149  1  0.37093404  0.38197676  0.89119350  1
  O  O150  1  0.36245129  0.87064660  0.38797916  1
  O  O151  1  0.38115014  0.87400390  0.87875097  1
  O  O152  1  0.86758246  0.38489151  0.37642338  1
  O  O153  1  0.88457282  0.35720162  0.87400986  1
  O  O154  1  0.89296753  0.87328247  0.36968797  1
  O  O155  1  0.88704558  0.87719722  0.87950255  1
  O  O156  1  0.25405291  0.00696540  0.38199787  1
  O  O157  1  0.26594037  0.00573015  0.87475959  1
  O  O158  1  0.24195091  0.50313882  0.38558184  1
  O  O159  1  0.24086653  0.51121297  0.86048526  1
  O  O160  1  0.73790354  0.01645795  0.36921370  1
  O  O161  1  0.74125959  -0.00996498  0.85973589  1
  O  O162  1  0.76077486  0.49793082  0.36135338  1
  O  O163  1  0.75364371  0.51542904  0.87238448  1
  O  O164  1  0.23531969  0.49433735  0.13163328  1
  O  O165  1  0.24825311  0.48115302  0.63093202  1
  O  O166  1  0.24449725  0.98505887  0.11514802  1
  O  O167  1  0.25731212  0.98861521  0.62442751  1
  O  O168  1  0.75111023  0.48807164  0.13164628  1
  O  O169  1  0.73940524  0.50129685  0.63476212  1
  O  O170  1  0.74371847  0.98129598  0.11908381  1
  O  O171  1  0.73310514  1.00221396  0.63694611  1
  O  O172  1  -0.00273556  0.36140178  0.24692998  1
  O  O173  1  0.00775312  0.37975752  0.77354492  1
  O  O174  1  0.01263218  0.87582225  0.25463829  1
  O  O175  1  0.00895564  0.87840692  0.76087222  1
  O  O176  1  0.50528580  0.38732192  0.25225806  1
  O  O177  1  0.49868722  0.36934660  0.74676986  1
  O  O178  1  0.48967908  0.86796076  0.25597177  1
  O  O179  1  0.49377486  0.87031803  0.76277042  1
  O  O180  1  0.48325506  0.11417822  0.23528292  1
  O  O181  1  0.48660072  0.14815478  0.75486445  1
  O  O182  1  0.49967992  0.59411229  0.20672155  1
  O  O183  1  0.48795555  0.61254782  0.76287311  1
  O  O184  1  0.99242406  0.13351713  0.23377248  1
  O  O185  1  1.00132338  0.13049639  0.74376474  1
  O  O186  1  0.98859710  0.62111614  0.23974522  1
  O  O187  1  1.00017043  0.64844183  0.75325713  1
  O  O188  1  0.37991502  0.25932573  0.02093150  1
  O  O189  1  0.37031646  0.24802461  0.51125156  1
  O  O190  1  0.36302191  0.75502917  -0.00035265  1
  O  O191  1  0.36226050  0.76628403  0.51855654  1
  O  O192  1  0.86745228  0.24834081  0.01873070  1
  O  O193  1  0.87446786  0.25287935  0.50686318  1
  O  O194  1  0.86433122  0.75881709  -0.01029555  1
  O  O195  1  0.87215375  0.76070196  0.51125297  1
  O  O196  1  0.14770641  0.23278512  0.50923845  1
  O  O197  1  0.13004678  0.23731227  0.99419078  1
  O  O198  1  0.13356846  0.76062127  0.51204813  1
  O  O199  1  0.13264860  0.75214354  0.98960995  1
  O  O200  1  0.70118860  0.29151536  0.51482667  1
  O  O201  1  0.62841637  0.25174807  1.01309137  1
  O  O202  1  0.61325962  0.72868682  0.51418310  1
  O  O203  1  0.63886561  0.74175469  0.98633635  1
  O  O204  1  0.49005536  0.23852405  0.12744110  1
  O  O205  1  0.48680683  0.25809308  0.62887452  1
  O  O206  1  0.48298477  0.74769658  0.12034679  1
  O  O207  1  0.48168321  0.76709502  0.62781253  1
  O  O208  1  0.99196741  0.24394571  0.12590958  1
  O  O209  1  0.99474470  0.23084001  0.60859145  1
  O  O210  1  1.00605783  0.73319320  0.11713528  1
  O  O211  1  0.98666528  0.76696251  0.63733028  1
  O  O212  1  -0.00762597  0.24209554  0.35665059  1
  O  O213  1  0.02068361  0.26757027  0.89003330  1
  O  O214  1  0.00656665  0.76108047  0.37571196  1
  O  O215  1  0.00595061  0.76169476  0.86625267  1
  O  O216  1  0.52578640  0.23994041  0.37151997  1
  O  O217  1  0.48429389  0.27057194  0.86764787  1
  O  O218  1  0.52582710  0.74339286  0.36986677  1
  O  O219  1  0.51155058  0.75560184  0.87547998  1
  O  O220  1  0.25996970  0.12834282  0.48965604  1
  O  O221  1  0.24772984  0.12033832  0.98825351  1
  O  O222  1  0.23931846  0.64078296  0.51996102  1
  O  O223  1  0.24667181  0.63456831  0.98734158  1
  O  O224  1  0.75270708  0.11919816  0.48789040  1
  O  O225  1  0.74231354  0.14641797  1.02682435  1
  O  O226  1  0.73515172  0.62173287  0.50761741  1
  O  O227  1  0.75500767  0.63728347  0.98957332  1
  O  O228  1  0.26745543  0.38575752  0.01794123  1
  O  O229  1  0.25893747  0.35935736  0.51054912  1
  O  O230  1  0.25463771  0.86564702  0.00385910  1
  O  O231  1  0.25491065  0.87364780  0.51426976  1
  O  O232  1  0.74381478  0.36782423  0.01819870  1
  O  O233  1  0.74904721  0.34629847  0.50587891  1
  O  O234  1  0.76411460  0.86589196  -0.00257995  1
  O  O235  1  0.75475225  0.89618457  0.52132269  1
  O  O236  1  0.10936224  0.49940525  0.23856665  1
  O  O237  1  0.13542510  0.49024193  0.74127710  1
  O  O238  1  0.12469426  0.99890079  0.23316286  1
  O  O239  1  0.12671927  0.99117861  0.76055814  1
  O  O240  1  0.64349608  0.51228182  0.26234001  1
  O  O241  1  0.62774383  0.48354647  0.74059648  1
  O  O242  1  0.62686863  1.00062362  0.22943564  1
  O  O243  1  0.60949519  1.00186376  0.73416646  1
  O  O244  1  0.36248324  0.01798133  0.23721895  1
  O  O245  1  0.38875689  0.01571583  0.75727651  1
  O  O246  1  0.47563167  0.57088032  0.28147924  1
  O  O247  1  0.36307534  0.51755285  0.73725531  1
  O  O248  1  0.88398583  0.01398265  0.24467539  1
  O  O249  1  0.85838609  0.01518768  0.74809111  1
  O  O250  1  0.86907572  0.50798296  0.26256054  1
  O  O251  1  0.90643365  0.51490622  0.69520779  1
  O  O252  1  0.09011462  0.36175204  0.44172117  1
  O  O253  1  0.14224729  0.36414577  0.88061990  1
  O  O254  1  0.12149565  0.87804933  0.35690911  1
  O  O255  1  0.11870307  0.87122202  0.86911428  1
  O  O256  1  0.64078267  0.35103396  0.37057092  1
  O  O257  1  0.60806810  0.39744567  0.86744830  1
  O  O258  1  0.62591502  0.85795894  0.38877911  1
  O  O259  1  0.61339214  0.86209454  0.87724146  1
  O  O260  1  0.36266039  0.13864162  0.13431396  1
  O  O261  1  0.37228235  0.13524308  0.64030703  1
  O  O262  1  0.35627261  0.64542824  0.12565066  1
  O  O263  1  0.38025319  0.63892177  0.63002035  1
  O  O264  1  0.88890908  0.12099440  0.12263013  1
  O  O265  1  0.89035743  0.12639046  0.62099608  1
  O  O266  1  0.88907654  0.62064463  0.12952266  1
  O  O267  1  0.86315660  0.65528503  0.62334617  1
  O  O268  1  0.25205903  0.26421982  0.12537251  1
  O  O269  1  0.26479604  0.25267367  0.62196123  1
  O  O270  1  0.24801809  0.75897857  0.11447013  1
  O  O271  1  0.25332725  0.76390146  0.62103584  1
  O  O272  1  0.76046262  0.27232793  0.12713387  1
  O  O273  1  0.76530869  0.21795262  0.62041430  1
  O  O274  1  0.74937738  0.76098251  0.10448786  1
  O  O275  1  0.75751389  0.76930173  0.63579223  1
  O  O276  1  0.25536030  0.24552967  0.39057896  1
  O  O277  1  0.24730060  0.24204958  0.88074557  1
  O  O278  1  0.24853437  0.74350161  0.39804156  1
  O  O279  1  0.24265544  0.74756959  0.87888019  1
  O  O280  1  0.73899098  0.23190529  0.35828270  1
  O  O281  1  0.73871700  0.25213975  0.90067468  1
  O  O282  1  0.74514474  0.76518341  0.39016966  1
  O  O283  1  0.74165997  0.74999974  0.87870458  1
  O  O284  1  0.00986247  0.13221969  0.01198831  1
  O  O285  1  0.00485948  0.11464573  0.48881703  1
  O  O286  1  0.00013550  0.61562304  0.00798506  1
  O  O287  1  0.05084060  0.63196476  0.58121006  1
  O  O288  1  0.47002399  0.11047244  0.03009716  1
  O  O289  1  0.48273641  0.10633471  0.49723396  1
  O  O290  1  0.51471610  0.62179702  -0.01394719  1
  O  O291  1  0.53770686  0.58825995  0.45070326  1
  O  O292  1  0.48319126  0.35766648  0.48906147  1
  O  O293  1  0.47355671  0.39375919  1.03469008  1
  O  O294  1  0.48416890  0.87302669  0.48889693  1
  O  O295  1  0.48809182  0.86046711  0.99361015  1
  O  O296  1  1.01967337  0.47702698  0.54045882  1
  O  O297  1  1.00675513  0.38720044  0.98968740  1
  O  O298  1  1.00300360  0.88448308  0.48153596  1
  O  O299  1  0.98874474  0.87224369  0.98790298  1
  O  O300  1  0.49655324  0.42518922  0.31530196  1
  O  O301  1  0.54860527  0.45111001  0.87659667  1
  O  O302  1  0.51074859  0.99305791  0.38684265  1
  O  O303  1  0.48922119  0.97650410  0.88228211  1
  O  O304  1  0.98297472  0.50292470  0.37714869  1
  O  O305  1  0.98762684  0.49046194  0.88449552  1
  O  O306  1  1.00287241  0.99951187  0.37801401  1
  O  O307  1  1.00456904  0.99057963  0.87724934  1
  O  O308  1  0.00903044  0.01333718  0.12332825  1
  O  O309  1  -0.00043732  0.01882010  0.62014289  1
  O  O310  1  0.00863792  0.50466787  0.11699750  1
  O  O311  1  -0.00821549  0.40007478  0.57496848  1
  O  O312  1  0.50864779  -0.01099045  0.12386768  1
  O  O313  1  0.50744536  -0.00984923  0.61087126  1
  O  O314  1  0.47911094  0.54677557  0.14708981  1
  O  O315  1  0.52620166  0.47316485  0.61828653  1
  O  O316  1  0.24264831  0.37305016  0.24320847  1
  O  O317  1  0.25553456  0.38515749  0.74238766  1
  O  O318  1  0.23669827  0.86960042  0.23821992  1
  O  O319  1  0.23785858  0.87400775  0.74458093  1
  O  O320  1  0.75463211  0.38816296  0.23609007  1
  O  O321  1  0.73512349  0.35467795  0.77553986  1
  O  O322  1  0.76469967  0.87124956  0.22922749  1
  O  O323  1  0.75087285  0.89576304  0.73734251  1
  O  O324  1  0.25480240  0.12914673  0.26448862  1
  O  O325  1  0.27046557  0.13290599  0.76564572  1
  O  O326  1  0.25944993  0.62350555  0.26856620  1
  O  O327  1  0.24465747  0.61373942  0.74878423  1
  O  O328  1  0.76770226  0.11974803  0.22434307  1
  O  O329  1  0.71770588  0.11268194  0.76361274  1
  O  O330  1  0.76796761  0.60860033  0.23172402  1
  O  O331  1  0.74902546  0.62851610  0.76039771  1
  O  O332  1  0.36886592  0.13049815  0.36031891  1
  O  O333  1  0.37637141  0.11652649  0.87193980  1
  O  O334  1  0.35195935  0.62088838  0.41281997  1
  O  O335  1  0.36036612  0.63518572  0.85621865  1
  O  O336  1  0.85673719  0.12955077  0.35580151  1
  O  O337  1  0.87394586  0.16990151  0.85203294  1
  O  O338  1  0.87097224  0.61966623  0.36579879  1
  O  O339  1  0.86994162  0.62576164  0.86801741  1
  O  O340  1  0.13468710  0.38556165  0.11963716  1
  O  O341  1  0.14514050  0.35401733  0.62767096  1
  O  O342  1  0.12699798  0.88191227  0.13044850  1
  O  O343  1  0.13299840  0.87986468  0.64036629  1
  O  O344  1  0.62454479  0.38198780  0.12935074  1
  O  O345  1  0.64322305  0.37138695  0.64118040  1
  O  O346  1  0.63764987  0.87320228  0.12301488  1
  O  O347  1  0.63599447  0.87776884  0.62328897  1
  O  O348  1  0.10917624  0.24775510  0.24606064  1
  O  O349  1  0.13413789  0.25013054  0.77219899  1
  O  O350  1  0.12522850  0.75965919  0.24373819  1
  O  O351  1  0.11395387  0.76377602  0.75461377  1
  O  O352  1  0.62223768  0.25016560  0.23867340  1
  O  O353  1  0.60625822  0.26132797  0.75143960  1
  O  O354  1  0.64525495  0.75083254  0.25785540  1
  O  O355  1  0.62898987  0.74202695  0.76191405  1
  O  O356  1  0.37291674  0.23850585  0.23583601  1
  O  O357  1  0.38147169  0.24970988  0.74276705  1
  O  O358  1  0.37177454  0.75516243  0.23939179  1
  O  O359  1  0.36594985  0.73480861  0.73864172  1
  O  O360  1  0.88142137  0.24014540  0.23091635  1
  O  O361  1  0.88213231  0.27035490  0.71864706  1
  O  O362  1  0.86641041  0.73058701  0.25189616  1
  O  O363  1  0.88640718  0.76228681  0.74901338  1
  O  O364  1  0.37784964  0.47908200  0.51419684  1
  O  O365  1  0.37084878  0.50356787  0.99619167  1
  O  O366  1  0.38603229  0.98088622  0.50826716  1
  O  O367  1  0.37194715  0.98190630  0.99090907  1
  O  O368  1  0.86423388  0.50512039  0.48986438  1
  O  O369  1  0.88984214  0.49945393  1.01000145  1
  O  O370  1  0.89397271  0.99685244  0.50275578  1
  O  O371  1  0.86893306  0.98977127  0.99395838  1
  O  O372  1  0.12882405  0.01420660  0.00940613  1
  O  O373  1  0.10850767  -0.00292032  0.50294134  1
  O  O374  1  0.11345699  0.50554363  0.00890832  1
  O  O375  1  0.09282493  0.48107357  0.52635410  1
  O  O376  1  0.63019711  -0.00816415  0.01900591  1
  O  O377  1  0.60973268  -0.00180283  0.51152154  1
  O  O378  1  0.63931254  0.51909799  -0.00316279  1
  O  O379  1  0.64152640  0.48820615  0.51284438  1
  O  O380  1  0.35938592  0.36885090  0.13936711  1
  O  O381  1  0.36769596  0.36211424  0.62110027  1
  O  O382  1  0.36529694  0.86520503  0.11651913  1
  O  O383  1  0.35982303  0.86819851  0.63587352  1
  O  O384  1  0.88498743  0.37121146  0.12361126  1
  O  O385  1  0.86198136  0.33194237  0.66369106  1
  O  O386  1  0.87042620  0.87888236  0.10753842  1
  O  O387  1  0.86553006  0.87277026  0.62516831  1
  O  O388  1  0.14312829  0.11890209  0.37634863  1
  O  O389  1  0.13653312  0.13303642  0.88267815  1
  O  O390  1  0.14323808  0.62417495  0.37777349  1
  O  O391  1  0.13456856  0.64282592  0.87214403  1
  O  O392  1  0.63597500  0.13518972  0.36447019  1
  O  O393  1  0.56530273  0.13041615  0.90073111  1
  O  O394  1  0.65338332  0.64784860  0.38374818  1
  O  O395  1  0.63809649  0.63396369  0.87972240  1
