# generated using pymatgen
data_V35Zn35O128
_symmetry_space_group_name_H-M   'P 1'
_cell_length_a   16.88420991
_cell_length_b   16.88370760
_cell_length_c   16.95543778
_cell_angle_alpha   89.75765555
_cell_angle_beta   90.08299299
_cell_angle_gamma   90.07420005
_symmetry_Int_Tables_number   1
_chemical_formula_structural   V35Zn35O128
_chemical_formula_sum   'V70 Zn70 O256'
_cell_volume   4833.40148971
_cell_formula_units_Z   2
loop_
 _symmetry_equiv_pos_site_id
 _symmetry_equiv_pos_as_xyz
  1  'x, y, z'
loop_
 _atom_site_type_symbol
 _atom_site_label
 _atom_site_symmetry_multiplicity
 _atom_site_fract_x
 _atom_site_fract_y
 _atom_site_fract_z
 _atom_site_occupancy
  V  V0  1  0.88263911  0.02085478  0.37185877  1
  V  V1  1  0.26936698  0.75483819  0.50094663  1
  V  V2  1  0.62188404  0.24197837  0.88122654  1
  V  V3  1  0.50388819  0.12494592  0.12097265  1
  V  V4  1  -0.00069015  0.25618045  0.74823144  1
  V  V5  1  0.86478294  0.37123352  0.00498451  1
  V  V6  1  0.73585372  0.39676166  0.14564176  1
  V  V7  1  0.49434532  0.48946535  -0.00767632  1
  V  V8  1  0.36065333  0.75521486  0.12290281  1
  V  V9  1  0.86081297  0.25621242  0.61971932  1
  V  V10  1  -0.00286062  0.72310930  0.24786374  1
  V  V11  1  -0.00023633  0.50269264  0.50977028  1
  V  V12  1  0.86291553  0.48321549  0.86656954  1
  V  V13  1  0.11886792  0.73887263  0.38391069  1
  V  V14  1  0.37071257  0.25012490  0.12398978  1
  V  V15  1  0.37399954  0.13290888  0.26901685  1
  V  V16  1  0.12652941  0.11899584  -0.00012708  1
  V  V17  1  0.73986182  0.13503298  0.37992969  1
  V  V18  1  0.23974008  0.01866984  0.25015084  1
  V  V19  1  0.10913008  -0.01092619  0.12839373  1
  V  V20  1  0.89680117  0.62470293  0.75201058  1
  V  V21  1  0.87403147  0.12404355  0.75619988  1
  V  V22  1  0.73973485  0.25114168  0.01714216  1
  V  V23  1  0.63616978  0.37578652  0.73934268  1
  V  V24  1  0.12807109  0.62801701  0.51909965  1
  V  V25  1  0.12295180  -0.01270382  0.62591856  1
  V  V26  1  0.75671262  0.11573204  0.89247174  1
  V  V27  1  0.23680268  0.24754603  0.49149627  1
  V  V28  1  0.00160791  0.16430105  0.12967532  1
  V  V29  1  0.49156884  0.74133448  0.73278793  1
  V  V30  1  0.77108210  0.73951073  0.51391649  1
  V  V31  1  0.74373572  0.61281255  0.86447527  1
  V  V32  1  0.01275509  0.37922472  0.88583752  1
  V  V33  1  0.24227942  0.39462639  0.13820156  1
  V  V34  1  0.50078420  -0.00434126  0.47129279  1
  V  V35  1  0.85659809  0.38063682  0.50169799  1
  V  V36  1  0.77021768  0.86920362  0.62387882  1
  V  V37  1  0.61721035  0.00515224  0.61846028  1
  V  V38  1  0.61387752  0.75664784  0.87451933  1
  V  V39  1  0.26745911  0.55961457  0.28630638  1
  V  V40  1  0.61976075  0.87222067  0.74784070  1
  V  V41  1  0.75144213  -0.00018275  0.23884618  1
  V  V42  1  0.39367785  0.01321704  0.88255023  1
  V  V43  1  0.25266692  0.64341031  0.89256529  1
  V  V44  1  0.75944998  0.75294135  -0.00587465  1
  V  V45  1  0.27392338  0.87417412  0.62395802  1
  V  V46  1  0.51550640  0.78109205  0.23563106  1
  V  V47  1  0.12463326  0.11920725  0.48945532  1
  V  V48  1  0.62510319  0.61507189  0.00175483  1
  V  V49  1  0.62330725  0.50336082  0.61846864  1
  V  V50  1  0.26588781  0.50719522  0.74638671  1
  V  V51  1  0.50699980  0.22990067  0.73257525  1
  V  V52  1  0.12575010  0.86563208  0.25075229  1
  V  V53  1  -0.00258419  0.12439413  0.62036942  1
  V  V54  1  0.14725388  0.36287745  0.73603605  1
  V  V55  1  0.12810460  0.49548033  0.62873890  1
  V  V56  1  0.13984332  0.24162166  0.87568965  1
  V  V57  1  0.37816082  0.36056991  0.47463090  1
  V  V58  1  0.49841423  0.62307558  0.12876901  1
  V  V59  1  0.75355798  -0.00251926  0.75253895  1
  V  V60  1  0.02729583  0.37651932  0.37394487  1
  V  V61  1  0.36702278  0.87252681  -0.01058726  1
  V  V62  1  -0.02471582  0.86538796  0.37556790  1
  V  V63  1  0.25384659  0.00262175  0.76209944  1
  V  V64  1  0.75299733  0.62727788  0.36378387  1
  V  V65  1  0.36074003  0.37478761  -0.00881434  1
  V  V66  1  0.61549052  0.63502028  0.50593306  1
  V  V67  1  0.87687522  0.50336936  0.36054040  1
  V  V68  1  0.36421951  0.23615532  0.62588541  1
  V  V69  1  0.87476031  0.73351311  0.13812376  1
  Zn  Zn70  1  0.49837778  0.37659935  0.86347628  1
  Zn  Zn71  1  -0.01160006  -0.01780502  0.50704725  1
  Zn  Zn72  1  0.87704700  0.16630800  0.24304211  1
  Zn  Zn73  1  0.34815641  -0.03662625  0.38058944  1
  Zn  Zn74  1  0.02471456  0.50135404  0.03681290  1
  Zn  Zn75  1  0.77812101  0.88382613  0.11834887  1
  Zn  Zn76  1  0.18759159  0.20034445  0.17099933  1
  Zn  Zn77  1  0.18579763  0.17501833  0.68149088  1
  Zn  Zn78  1  0.19072120  0.67603202  0.20615135  1
  Zn  Zn79  1  0.32421822  0.68123651  0.68469573  1
  Zn  Zn80  1  0.68440075  0.18789313  0.20868628  1
  Zn  Zn81  1  0.68590109  0.18310923  0.69034985  1
  Zn  Zn82  1  0.68609317  0.68958930  0.17870308  1
  Zn  Zn83  1  0.68196530  0.68584535  0.68443634  1
  Zn  Zn84  1  0.26628639  0.30309901  0.30165277  1
  Zn  Zn85  1  0.32449603  0.29652964  0.81042711  1
  Zn  Zn86  1  0.31326779  0.77610071  0.30674162  1
  Zn  Zn87  1  0.30627439  0.81575584  0.81389803  1
  Zn  Zn88  1  0.81263737  0.31973648  0.31186819  1
  Zn  Zn89  1  0.80741009  0.30068811  0.81294539  1
  Zn  Zn90  1  0.75954393  0.82807492  0.33090134  1
  Zn  Zn91  1  0.81077206  0.80066093  0.80492909  1
  Zn  Zn92  1  0.21323207  0.44707140  0.45321573  1
  Zn  Zn93  1  0.18656373  0.45928632  0.91839681  1
  Zn  Zn94  1  0.17460689  0.92789481  0.43503154  1
  Zn  Zn95  1  0.18456196  0.93363846  0.94810966  1
  Zn  Zn96  1  0.68096336  0.45650257  0.42933692  1
  Zn  Zn97  1  0.67645536  0.42899698  0.93496330  1
  Zn  Zn98  1  0.69734341  0.94469475  0.44125343  1
  Zn  Zn99  1  0.80289267  0.94235263  0.93828879  1
  Zn  Zn100  1  0.30683595  0.05789653  0.06356556  1
  Zn  Zn101  1  0.31331776  0.05325161  0.55598652  1
  Zn  Zn102  1  0.31556638  0.56888208  0.05425787  1
  Zn  Zn103  1  0.34783052  0.53066224  0.58287557  1
  Zn  Zn104  1  0.81966994  0.08486486  0.06717320  1
  Zn  Zn105  1  0.80853002  0.06210877  0.55928794  1
  Zn  Zn106  1  0.87591013  0.52125310  0.14435240  1
  Zn  Zn107  1  0.81098892  0.55666293  0.58253826  1
  Zn  Zn108  1  0.41914874  0.45625792  0.18310660  1
  Zn  Zn109  1  0.44343489  0.41717881  0.68335147  1
  Zn  Zn110  1  0.42057507  0.94233361  0.17837407  1
  Zn  Zn111  1  0.44083691  0.94423847  0.70056501  1
  Zn  Zn112  1  0.95572208  0.35624225  0.18333656  1
  Zn  Zn113  1  0.93494611  0.43965658  0.68989838  1
  Zn  Zn114  1  0.93570634  0.93149797  0.20016118  1
  Zn  Zn115  1  0.94368376  0.93837852  0.70492771  1
  Zn  Zn116  1  0.08010656  0.20536795  0.31111246  1
  Zn  Zn117  1  0.07968530  0.07480837  0.79582845  1
  Zn  Zn118  1  0.07755909  0.54900591  0.31174218  1
  Zn  Zn119  1  0.05361011  0.58561715  0.87128979  1
  Zn  Zn120  1  0.56407235  0.06361959  0.29720300  1
  Zn  Zn121  1  0.57379681  0.05671888  0.81837480  1
  Zn  Zn122  1  0.54611621  0.64256334  0.34050295  1
  Zn  Zn123  1  0.55599696  0.56041524  0.80676121  1
  Zn  Zn124  1  0.42031184  0.15339530  0.47363145  1
  Zn  Zn125  1  0.43860832  0.19178808  0.94360219  1
  Zn  Zn126  1  0.45442578  0.81636161  0.41831224  1
  Zn  Zn127  1  0.43079082  0.68403282  0.93613703  1
  Zn  Zn128  1  0.94013175  0.20058132  0.43900153  1
  Zn  Zn129  1  0.94149945  0.20013317  0.94560017  1
  Zn  Zn130  1  0.93695731  0.68071045  0.44184091  1
  Zn  Zn131  1  0.90551637  0.62724230  0.98574451  1
  Zn  Zn132  1  0.07953535  0.33193512  0.04455665  1
  Zn  Zn133  1  0.05692378  0.31155286  0.55700622  1
  Zn  Zn134  1  0.00595840  0.83702511  0.07300247  1
  Zn  Zn135  1  0.04652780  0.80987254  0.56262363  1
  Zn  Zn136  1  0.56092198  0.31952784  0.18527292  1
  Zn  Zn137  1  0.53339715  0.34645728  0.57343235  1
  Zn  Zn138  1  0.54098552  0.80757051  0.03817268  1
  Zn  Zn139  1  0.57231580  0.81908985  0.55839398  1
  O  O140  1  0.11483233  0.12713359  0.11532636  1
  O  O141  1  0.11221640  0.10934570  0.61892479  1
  O  O142  1  0.11659136  0.70259126  0.04043644  1
  O  O143  1  0.11751154  0.61430251  0.61838580  1
  O  O144  1  0.60140684  0.13323892  0.14827099  1
  O  O145  1  0.64071327  0.10268212  0.62578616  1
  O  O146  1  0.61752304  0.62972118  0.10618171  1
  O  O147  1  0.61733901  0.61382483  0.61987606  1
  O  O148  1  0.34882724  0.35290860  0.37942355  1
  O  O149  1  0.38547523  0.35307968  0.88925376  1
  O  O150  1  0.37339729  0.85956708  0.35185033  1
  O  O151  1  0.37067077  0.88141118  0.88427398  1
  O  O152  1  0.87627027  0.39097953  0.39074875  1
  O  O153  1  0.87244434  0.37244748  0.87411327  1
  O  O154  1  0.87596168  0.86040895  0.36530994  1
  O  O155  1  0.87581747  0.87765090  0.87143281  1
  O  O156  1  0.23590305  -0.01430723  0.35360503  1
  O  O157  1  0.23400851  -0.00555223  0.85986714  1
  O  O158  1  0.25136785  0.51964955  0.37666111  1
  O  O159  1  0.27443824  0.47021989  0.83933446  1
  O  O160  1  0.76872736  0.01161648  0.36511311  1
  O  O161  1  0.73572557  0.00046388  0.85627542  1
  O  O162  1  0.76535934  0.51346427  0.37599789  1
  O  O163  1  0.74532937  0.50682852  0.87660863  1
  O  O164  1  0.25145025  0.49161795  0.10536521  1
  O  O165  1  0.23217210  0.50123663  0.62648241  1
  O  O166  1  0.23007612  1.00620594  0.14025357  1
  O  O167  1  0.23708376  0.98772898  0.61858257  1
  O  O168  1  0.76309027  0.49368078  0.12889563  1
  O  O169  1  0.72531836  0.49547488  0.62797103  1
  O  O170  1  0.77377596  1.00434275  0.13429011  1
  O  O171  1  0.75039658  0.98631927  0.63189296  1
  O  O172  1  0.01818200  0.39311416  0.27593512  1
  O  O173  1  0.00523929  0.36313959  0.75151831  1
  O  O174  1  0.00297626  0.85577350  0.26116859  1
  O  O175  1  0.01858538  0.88356541  0.77673672  1
  O  O176  1  0.50401337  0.40463254  0.25193998  1
  O  O177  1  0.51038620  0.35137139  0.75004129  1
  O  O178  1  0.50588094  0.87989410  0.22844062  1
  O  O179  1  0.51390816  0.86461078  0.74803116  1
  O  O180  1  0.47522680  0.12467777  0.24866749  1
  O  O181  1  0.51443877  0.13164165  0.75054212  1
  O  O182  1  0.51434885  0.61944839  0.22815601  1
  O  O183  1  0.50206763  0.64157847  0.74940422  1
  O  O184  1  1.01192207  0.15014827  0.23207558  1
  O  O185  1  0.99389673  0.13164854  0.74155663  1
  O  O186  1  1.00315684  0.62483880  0.25599401  1
  O  O187  1  0.99441686  0.61318231  0.77671767  1
  O  O188  1  0.37803804  0.26503790  0.01364645  1
  O  O189  1  0.35440658  0.24553449  0.50009374  1
  O  O190  1  0.38029914  0.76125855  0.00811057  1
  O  O191  1  0.36477244  0.75148373  0.48183322  1
  O  O192  1  0.84735674  0.25597578  -0.00796468  1
  O  O193  1  0.87677257  0.26654072  0.51081430  1
  O  O194  1  0.85978645  0.73685380  -0.00503371  1
  O  O195  1  0.87153722  0.74028282  0.51560450  1
  O  O196  1  0.12823884  0.22941647  0.51607321  1
  O  O197  1  0.12988273  0.24596253  0.97866613  1
  O  O198  1  0.10389376  0.73512174  0.50081564  1
  O  O199  1  0.09907203  0.76362956  1.00306099  1
  O  O200  1  0.62571210  0.28099921  0.45462441  1
  O  O201  1  0.63179704  0.26096352  0.98136756  1
  O  O202  1  0.64504213  0.73807554  0.51316430  1
  O  O203  1  0.62727118  0.74648316  0.98643203  1
  O  O204  1  0.47616552  0.25151088  0.14268533  1
  O  O205  1  0.51342918  0.23877099  0.63179373  1
  O  O206  1  0.50148376  0.74181108  0.12455712  1
  O  O207  1  0.50853922  0.75460686  0.63569405  1
  O  O208  1  1.01394295  0.26599694  0.12201647  1
  O  O209  1  0.99193347  0.24202420  0.63131622  1
  O  O210  1  0.99305546  0.73787940  0.14067742  1
  O  O211  1  1.01335409  0.75284014  0.66528708  1
  O  O212  1  0.01254072  0.27020159  0.38341060  1
  O  O213  1  0.00921485  0.25718841  0.86218455  1
  O  O214  1  -0.00361427  0.74736753  0.36590922  1
  O  O215  1  -0.06152173  0.84194778  0.91709888  1
  O  O216  1  0.58479711  0.25779458  0.39967696  1
  O  O217  1  0.51540441  0.23913622  0.86713676  1
  O  O218  1  0.50297016  0.74823542  0.33843896  1
  O  O219  1  0.51203230  0.74628561  0.87039584  1
  O  O220  1  0.22988460  0.12072752  0.50341084  1
  O  O221  1  0.22618894  0.12452630  1.00656574  1
  O  O222  1  0.23059010  0.64859788  0.51079814  1
  O  O223  1  0.25229701  0.64217727  0.99442139  1
  O  O224  1  0.75316632  0.12080518  0.48004922  1
  O  O225  1  0.73311528  0.14695437  1.00691420  1
  O  O226  1  0.75273677  0.63365229  0.51384915  1
  O  O227  1  0.73238991  0.63589575  0.98928125  1
  O  O228  1  0.26172323  0.38400223  -0.01315934  1
  O  O229  1  0.23883548  0.34829223  0.50755943  1
  O  O230  1  0.26130869  0.87380710  0.00138504  1
  O  O231  1  0.24277210  0.86561290  0.51382972  1
  O  O232  1  0.75073295  0.36620817  -0.00387853  1
  O  O233  1  0.75826663  0.38532632  0.49249785  1
  O  O234  1  0.75438349  0.85934339  0.00323276  1
  O  O235  1  0.75912679  0.86190393  0.51930757  1
  O  O236  1  0.16884093  0.56219919  0.23810702  1
  O  O237  1  0.14613355  0.47242459  0.74388275  1
  O  O238  1  0.12962177  0.98454073  0.23991432  1
  O  O239  1  0.13448726  1.00020492  0.73196512  1
  O  O240  1  0.56422012  0.45212068  0.29231216  1
  O  O241  1  0.61420501  0.48257632  0.74127788  1
  O  O242  1  0.65199975  1.00592039  0.24611460  1
  O  O243  1  0.63387201  0.98975212  0.74036072  1
  O  O244  1  0.35149315  0.01446418  0.24826381  1
  O  O245  1  0.36448589  -0.00602077  0.77184588  1
  O  O246  1  0.35293649  0.52726412  0.24166426  1
  O  O247  1  0.35958904  0.48822600  0.70478157  1
  O  O248  1  0.87477072  0.00307393  0.26433686  1
  O  O249  1  0.86813284  0.01280887  0.75124021  1
  O  O250  1  0.88061336  0.49964456  0.26396251  1
  O  O251  1  0.86979369  0.50198782  0.76194592  1
  O  O252  1  0.12426930  0.39393379  0.38996286  1
  O  O253  1  0.12633861  0.35385042  0.84996452  1
  O  O254  1  0.10598805  0.85790592  0.36916281  1
  O  O255  1  0.09882327  0.87965465  0.88275498  1
  O  O256  1  0.59298513  0.41317563  0.35279047  1
  O  O257  1  0.62112463  0.35903385  0.86123173  1
  O  O258  1  0.66347223  0.86389432  0.37489367  1
  O  O259  1  0.63182877  0.85715825  0.86271604  1
  O  O260  1  0.36797957  0.14211716  0.12261756  1
  O  O261  1  0.38466466  0.13634420  0.59888697  1
  O  O262  1  0.39373486  0.63827560  0.10797671  1
  O  O263  1  0.37638107  0.63329169  0.60017781  1
  O  O264  1  0.89806122  0.14235118  0.12546473  1
  O  O265  1  0.87919814  0.13404145  0.63020898  1
  O  O266  1  0.87874644  0.63343008  0.10761495  1
  O  O267  1  0.88456854  0.60865811  0.65218211  1
  O  O268  1  0.26373628  0.27386846  0.12314201  1
  O  O269  1  0.26104501  0.23685920  0.62218000  1
  O  O270  1  0.26360208  0.72926574  0.13534448  1
  O  O271  1  0.26483618  0.76618546  0.61708337  1
  O  O272  1  0.73555632  0.26137802  0.11771555  1
  O  O273  1  0.76321633  0.24345656  0.62660678  1
  O  O274  1  0.76362089  0.74920097  0.11378749  1
  O  O275  1  0.75395783  0.75844350  0.62648616  1
  O  O276  1  0.23558663  0.23715149  0.39449314  1
  O  O277  1  0.23767737  0.23681012  0.85954813  1
  O  O278  1  0.22693600  0.76262905  0.40122873  1
  O  O279  1  0.23522416  0.73979047  0.86214007  1
  O  O280  1  0.76263887  0.23383025  0.36778178  1
  O  O281  1  0.73964044  0.23367984  0.87785600  1
  O  O282  1  0.76533685  0.73089315  0.39738544  1
  O  O283  1  0.74161229  0.73914898  0.88241705  1
  O  O284  1  0.01236688  0.14224288  0.01533276  1
  O  O285  1  0.00252385  0.12769025  0.51234207  1
  O  O286  1  0.01248659  0.59747983  -0.02173464  1
  O  O287  1  0.00479309  0.60872471  0.50203559  1
  O  O288  1  0.50314993  0.14103168  0.02159817  1
  O  O289  1  0.51547524  0.09659059  0.48906882  1
  O  O290  1  0.51287920  0.62210940  -0.00262757  1
  O  O291  1  0.52176555  0.64516980  0.48415555  1
  O  O292  1  0.48036419  0.35755247  0.47399738  1
  O  O293  1  0.49952638  0.38986096  1.00095307  1
  O  O294  1  0.50442607  0.88386047  0.49456108  1
  O  O295  1  0.47158387  0.88817897  1.00963090  1
  O  O296  1  0.99560525  0.38681998  0.49284594  1
  O  O297  1  0.96967724  0.34370324  0.98603002  1
  O  O298  1  0.99032938  0.86573945  0.48193995  1
  O  O299  1  0.95840725  0.88997319  0.97621879  1
  O  O300  1  0.46758073  0.53894577  0.37374681  1
  O  O301  1  0.50345304  0.49681730  0.88648154  1
  O  O302  1  0.50927170  0.99114299  0.37158476  1
  O  O303  1  0.49294660  1.00091533  0.87593584  1
  O  O304  1  0.99120565  0.49704842  0.38626697  1
  O  O305  1  0.98368206  0.47633091  0.86455814  1
  O  O306  1  0.98283618  0.97573761  0.37141678  1
  O  O307  1  1.05063382  0.92619923  0.83911225  1
  O  O308  1  0.00943317  0.00788485  0.13690681  1
  O  O309  1  0.00425265  0.00524880  0.62671806  1
  O  O310  1  -0.02655942  0.46384392  0.12786375  1
  O  O311  1  0.01406184  0.48816824  0.62021461  1
  O  O312  1  0.48027490  0.02581414  0.12943335  1
  O  O313  1  0.51651136  -0.00341164  0.63081107  1
  O  O314  1  0.49282828  0.51685409  0.10602969  1
  O  O315  1  0.51972206  0.46895483  0.61198007  1
  O  O316  1  0.25697081  0.40018580  0.23776951  1
  O  O317  1  0.24600287  0.35108823  0.73759634  1
  O  O318  1  0.22420252  0.84907584  0.25056578  1
  O  O319  1  0.25321995  0.88651200  0.73000110  1
  O  O320  1  0.74653547  0.38462909  0.24517651  1
  O  O321  1  0.73529343  0.36767252  0.75338877  1
  O  O322  1  0.76437208  0.89134234  0.23597228  1
  O  O323  1  0.74625598  0.87715803  0.74390307  1
  O  O324  1  0.24350870  0.11942306  0.25359685  1
  O  O325  1  0.25031141  0.10184104  0.74139008  1
  O  O326  1  0.27786774  0.66339894  0.29252506  1
  O  O327  1  0.26005888  0.60896849  0.75242297  1
  O  O328  1  0.76667561  0.11894422  0.25490987  1
  O  O329  1  0.75810697  0.11601514  0.75975014  1
  O  O330  1  0.74230600  0.63751347  0.26605453  1
  O  O331  1  0.74577172  0.62673655  0.76461168  1
  O  O332  1  0.37206285  0.13041476  0.36778490  1
  O  O333  1  0.37925879  0.11310985  0.88364912  1
  O  O334  1  0.40606732  0.56539034  0.40382514  1
  O  O335  1  0.35406883  0.62469286  0.87851283  1
  O  O336  1  0.89078149  0.12477583  0.36549385  1
  O  O337  1  0.87216663  0.14774961  0.85820810  1
  O  O338  1  0.86867213  0.61106077  0.37926716  1
  O  O339  1  0.85648360  0.60587961  0.87487483  1
  O  O340  1  0.14338279  0.37646503  0.12556253  1
  O  O341  1  0.12162260  0.37268488  0.63377656  1
  O  O342  1  0.10155293  0.88325450  0.12947304  1
  O  O343  1  0.11144013  0.88725475  0.61892756  1
  O  O344  1  0.63562178  0.38969158  0.12862890  1
  O  O345  1  0.63029998  0.36920956  0.63481877  1
  O  O346  1  0.62269826  0.92086168  0.09025565  1
  O  O347  1  0.64032977  0.88045382  0.63543435  1
  O  O348  1  0.16143890  0.26161382  0.26020163  1
  O  O349  1  0.11778486  0.24569155  0.74833231  1
  O  O350  1  0.10945080  0.74288727  0.26001412  1
  O  O351  1  0.06725423  0.74346599  0.71512632  1
  O  O352  1  0.62508122  0.26651179  0.25994515  1
  O  O353  1  0.62116889  0.25221643  0.75538419  1
  O  O354  1  0.61643709  0.76370634  0.22775806  1
  O  O355  1  0.61863993  0.75233270  0.75777028  1
  O  O356  1  0.35384748  0.23477939  0.24375679  1
  O  O357  1  0.39107422  0.24066622  0.73276934  1
  O  O358  1  0.39755181  0.75324467  0.22263073  1
  O  O359  1  0.38713134  0.75766066  0.74818958  1
  O  O360  1  0.89332428  0.27881765  0.24611287  1
  O  O361  1  0.88075348  0.24650867  0.73537222  1
  O  O362  1  0.88089347  0.73158119  0.24003058  1
  O  O363  1  0.88012787  0.72429590  0.76421777  1
  O  O364  1  0.34757386  0.45704902  0.50141321  1
  O  O365  1  0.38462486  0.48707830  0.99526567  1
  O  O366  1  0.38858410  1.00410727  0.48062452  1
  O  O367  1  0.36152584  0.99425165  0.98546713  1
  O  O368  1  0.88109815  0.48902799  0.51181127  1
  O  O369  1  0.87036927  0.47656409  0.98189356  1
  O  O370  1  0.87733308  1.00756325  0.47955246  1
  O  O371  1  0.82572094  1.05105258  0.95825052  1
  O  O372  1  0.11940338  0.00881816  0.01514290  1
  O  O373  1  0.11318980  0.00461158  0.50728480  1
  O  O374  1  0.08695203  0.42783101  -0.03117280  1
  O  O375  1  0.12306197  0.51162678  0.50919036  1
  O  O376  1  0.62162635  -0.01825264  0.04972739  1
  O  O377  1  0.61974738  -0.01204773  0.51315369  1
  O  O378  1  0.61724015  0.51093530  -0.00519038  1
  O  O379  1  0.62592783  0.51595945  0.50907475  1
  O  O380  1  0.36763220  0.37526155  0.11277028  1
  O  O381  1  0.39333232  0.33768134  0.60488708  1
  O  O382  1  0.36205462  0.86219744  0.11792144  1
  O  O383  1  0.37060680  0.89396095  0.62015165  1
  O  O384  1  0.85323059  0.36766549  0.10636050  1
  O  O385  1  0.87405680  0.36543345  0.61738644  1
  O  O386  1  0.89338858  0.84873559  0.12259299  1
  O  O387  1  0.86979718  0.87608154  0.64006507  1
  O  O388  1  0.10673068  0.12244599  0.39282306  1
  O  O389  1  0.11220359  0.13028148  0.88653875  1
  O  O390  1  0.11607368  0.63391985  0.39091497  1
  O  O391  1  0.16616979  0.57376852  0.88256364  1
  O  O392  1  0.64138172  0.12159001  0.36245278  1
  O  O393  1  0.64147222  0.13033708  0.87708134  1
  O  O394  1  0.64661492  0.61823758  0.39352366  1
  O  O395  1  0.63096872  0.63021584  0.87832088  1
