# generated using pymatgen
data_V35Zn35O128
_symmetry_space_group_name_H-M   'P 1'
_cell_length_a   16.86143409
_cell_length_b   16.85042622
_cell_length_c   16.82562499
_cell_angle_alpha   89.83603214
_cell_angle_beta   90.19837087
_cell_angle_gamma   89.99753048
_symmetry_Int_Tables_number   1
_chemical_formula_structural   V35Zn35O128
_chemical_formula_sum   'V70 Zn70 O256'
_cell_volume   4780.48789558
_cell_formula_units_Z   2
loop_
 _symmetry_equiv_pos_site_id
 _symmetry_equiv_pos_as_xyz
  1  'x, y, z'
loop_
 _atom_site_type_symbol
 _atom_site_label
 _atom_site_symmetry_multiplicity
 _atom_site_fract_x
 _atom_site_fract_y
 _atom_site_fract_z
 _atom_site_occupancy
  V  V0  1  0.61753245  0.49530869  0.12646391  1
  V  V1  1  0.25269214  0.13583988  0.88133628  1
  V  V2  1  0.13391446  0.37060848  0.24429324  1
  V  V3  1  0.26602552  0.38123533  0.62182532  1
  V  V4  1  0.10458780  0.00150823  0.12288424  1
  V  V5  1  0.37406646  0.51350564  0.86524559  1
  V  V6  1  0.10990765  0.87203701  0.77885461  1
  V  V7  1  0.37582862  0.73427570  0.13182052  1
  V  V8  1  0.00491227  0.36782363  0.87340563  1
  V  V9  1  0.10509937  0.25421851  0.36733859  1
  V  V10  1  0.24795802  0.51214697  0.75103650  1
  V  V11  1  -0.00246438  0.86536401  0.37077696  1
  V  V12  1  0.37687286  0.87020601  0.49971624  1
  V  V13  1  0.61714975  -0.01704503  0.64579172  1
  V  V14  1  0.88077160  0.11837829  0.25721814  1
  V  V15  1  0.49863239  0.37460177  0.87008195  1
  V  V16  1  0.37631635  0.22977666  0.62611430  1
  V  V17  1  0.73681152  0.89601129  0.13014506  1
  V  V18  1  0.75918137  0.62122521  0.36543800  1
  V  V19  1  0.88068786  0.48953828  0.38078126  1
  V  V20  1  0.01464838  0.62835044  0.62705695  1
  V  V21  1  0.50519261  0.01565218  0.50295426  1
  V  V22  1  0.87282535  0.88685961  0.49785504  1
  V  V23  1  0.50465565  0.51938665  -0.00378530  1
  V  V24  1  0.24951090  0.74557684  -0.00214731  1
  V  V25  1  0.72851798  0.00078925  0.26138487  1
  V  V26  1  0.37825200  0.87833514  0.00596812  1
  V  V27  1  0.75433533  0.74933382  0.50329327  1
  V  V28  1  0.87391221  0.75404044  0.63398352  1
  V  V29  1  0.63952622  0.37097509  0.74620739  1
  V  V30  1  0.49092103  0.23866158  0.74988694  1
  V  V31  1  0.14656876  0.49757036  0.12560873  1
  V  V32  1  0.23701261  0.88293518  0.62106895  1
  V  V33  1  0.25561450  0.25258397  0.49538147  1
  V  V34  1  0.75374186  0.47849652  0.24713735  1
  V  V35  1  0.12436571  0.37066972  0.73934815  1
  V  V36  1  0.73871601  0.14012321  0.37831810  1
  V  V37  1  0.51682385  0.00567793  0.00375888  1
  V  V38  1  0.12809636  0.24947043  0.89076075  1
  V  V39  1  0.49531625  0.38236009  0.39699986  1
  V  V40  1  -0.00654956  0.63042489  0.12924198  1
  V  V41  1  0.75433640  0.76672645  0.00719875  1
  V  V42  1  0.49779722  0.86792774  0.86176843  1
  V  V43  1  0.37229661  0.00782320  0.36267037  1
  V  V44  1  0.62671976  0.76465828  0.86844916  1
  V  V45  1  0.62768203  0.61736556  0.50878054  1
  V  V46  1  0.86818453  0.36551273  0.52048626  1
  V  V47  1  0.12131061  0.86691178  0.25389942  1
  V  V48  1  0.74311124  0.62073721  0.87884939  1
  V  V49  1  0.77747404  0.00920610  0.73501897  1
  V  V50  1  0.62376149  0.74768986  0.36876716  1
  V  V51  1  0.86595767  0.35929747  0.00152041  1
  V  V52  1  0.50505337  0.13223082  0.13782591  1
  V  V53  1  0.23052598  0.74881262  0.48300992  1
  V  V54  1  0.25264115  0.12990601  0.35863245  1
  V  V55  1  0.50581230  0.27508242  0.25340217  1
  V  V56  1  0.01504472  0.00501935  0.49995032  1
  V  V57  1  0.00074019  0.14042493  0.12017125  1
  V  V58  1  -0.00268749  0.49580306  0.00154484  1
  V  V59  1  0.50149135  0.72674291  0.24742413  1
  V  V60  1  0.87618968  0.61510409  0.75646005  1
  V  V61  1  0.36832127  0.36734948  0.00288314  1
  V  V62  1  0.63593816  0.23820023  0.88651310  1
  V  V63  1  0.85308680  0.25362581  0.13679814  1
  V  V64  1  0.50305523  0.87656003  0.36329171  1
  V  V65  1  0.64125732  0.49589698  0.63388206  1
  V  V66  1  0.36848822  0.00402089  0.86804212  1
  V  V67  1  0.12852494  0.62612928  -0.01372397  1
  V  V68  1  0.25426884  0.89211531  0.13576067  1
  V  V69  1  0.01476188  0.50090401  0.50538616  1
  Zn  Zn70  1  0.24416390  0.00964866  0.73186793  1
  Zn  Zn71  1  0.37720074  0.74499029  0.64853194  1
  Zn  Zn72  1  0.49432403  0.50253379  0.50197653  1
  Zn  Zn73  1  0.36324309  0.24524123  0.12971309  1
  Zn  Zn74  1  0.86671392  0.48736835  0.87472287  1
  Zn  Zn75  1  0.12024825  0.13033127  0.50157616  1
  Zn  Zn76  1  0.18488454  0.18990280  0.18053819  1
  Zn  Zn77  1  0.19275007  0.19295331  0.69650733  1
  Zn  Zn78  1  0.18237626  0.68295105  0.18638395  1
  Zn  Zn79  1  0.19898114  0.70825876  0.68879568  1
  Zn  Zn80  1  0.67699812  0.18394203  0.18956731  1
  Zn  Zn81  1  0.66142363  0.15793944  0.71958288  1
  Zn  Zn82  1  0.68634926  0.67615995  0.17789919  1
  Zn  Zn83  1  0.68945411  0.68932535  0.69202996  1
  Zn  Zn84  1  0.32363057  0.32187880  0.30490744  1
  Zn  Zn85  1  0.31412683  0.31864306  0.81111063  1
  Zn  Zn86  1  0.31697624  0.80950396  0.31222671  1
  Zn  Zn87  1  0.30141118  0.81988227  0.81053128  1
  Zn  Zn88  1  0.82352655  0.30896523  0.32575957  1
  Zn  Zn89  1  0.81308859  0.30186519  0.81887623  1
  Zn  Zn90  1  0.80112292  0.82453660  0.32175790  1
  Zn  Zn91  1  0.82462031  0.81363013  0.82597601  1
  Zn  Zn92  1  0.19102825  0.43687221  0.42911863  1
  Zn  Zn93  1  0.18906511  0.44068810  0.93521187  1
  Zn  Zn94  1  0.18864055  0.93918418  0.43112294  1
  Zn  Zn95  1  0.18830386  0.94011164  0.94740096  1
  Zn  Zn96  1  0.68651527  0.42308435  0.43832533  1
  Zn  Zn97  1  0.68179739  0.43269371  0.93851298  1
  Zn  Zn98  1  0.68485885  0.93684027  0.43945963  1
  Zn  Zn99  1  0.72317882  0.99111842  0.95782946  1
  Zn  Zn100  1  0.31664512  0.07047598  0.06239000  1
  Zn  Zn101  1  0.31286478  0.06212509  0.54741225  1
  Zn  Zn102  1  0.32234404  0.56152871  0.05107665  1
  Zn  Zn103  1  0.27876127  0.57741152  0.56829128  1
  Zn  Zn104  1  0.87557018  -0.06771689  0.01016928  1
  Zn  Zn105  1  0.69927956  0.08990344  0.54912608  1
  Zn  Zn106  1  0.79977924  0.56156383  0.06610782  1
  Zn  Zn107  1  0.81756864  0.56279272  0.56428751  1
  Zn  Zn108  1  0.42808298  0.44525574  0.18823380  1
  Zn  Zn109  1  0.44581218  0.56830950  0.67521166  1
  Zn  Zn110  1  0.44582675  0.94457107  0.18411052  1
  Zn  Zn111  1  0.43311617  0.94105962  0.68285831  1
  Zn  Zn112  1  0.93925087  0.43191631  0.18593953  1
  Zn  Zn113  1  0.94279317  0.44210929  0.68512257  1
  Zn  Zn114  1  0.92592943  0.93628683  0.19280512  1
  Zn  Zn115  1  0.95524040  0.93413472  0.68390569  1
  Zn  Zn116  1  0.06329159  0.05246629  0.31294420  1
  Zn  Zn117  1  0.08324373  0.06034417  0.81096852  1
  Zn  Zn118  1  0.03746013  0.51903481  0.28724439  1
  Zn  Zn119  1  0.06054503  0.55754888  0.80882023  1
  Zn  Zn120  1  0.56070845  0.07532534  0.32172398  1
  Zn  Zn121  1  0.55468568  0.05842305  0.82258286  1
  Zn  Zn122  1  0.56957530  0.55154572  0.31584665  1
  Zn  Zn123  1  0.57070205  0.56117930  0.81351996  1
  Zn  Zn124  1  0.43706068  0.19740541  0.43134911  1
  Zn  Zn125  1  0.44022955  0.18689027  0.93858694  1
  Zn  Zn126  1  0.43285222  0.67956756  0.51576184  1
  Zn  Zn127  1  0.43851107  0.69125306  0.81472344  1
  Zn  Zn128  1  0.89222443  0.15804872  0.47428301  1
  Zn  Zn129  1  0.86695296  0.13199886  1.00370298  1
  Zn  Zn130  1  0.94350335  0.68446379  0.44017984  1
  Zn  Zn131  1  0.90984928  0.66784027  0.97542157  1
  Zn  Zn132  1  0.06512618  0.31559247  0.06366864  1
  Zn  Zn133  1  0.06152010  0.31241871  0.55299038  1
  Zn  Zn134  1  0.06483716  0.81447952  0.05761278  1
  Zn  Zn135  1  0.05508281  0.81347087  0.56441923  1
  Zn  Zn136  1  0.56358037  0.31628392  0.06410372  1
  Zn  Zn137  1  0.49334904  0.37842770  0.62240092  1
  Zn  Zn138  1  0.56607080  0.80560390  0.05896134  1
  Zn  Zn139  1  0.55932399  0.80986496  0.56099274  1
  O  O140  1  0.10731395  0.11247920  0.13931240  1
  O  O141  1  0.10317405  0.16448933  0.62002098  1
  O  O142  1  0.12088149  0.61034355  0.11452131  1
  O  O143  1  0.11197944  0.64230844  0.63472091  1
  O  O144  1  0.60528983  0.12976357  0.11695471  1
  O  O145  1  0.62313494  0.10011049  0.62907571  1
  O  O146  1  0.66424764  0.58845673  0.10628170  1
  O  O147  1  0.63322640  0.61672648  0.61702791  1
  O  O148  1  0.39212866  0.38060047  0.37262547  1
  O  O149  1  0.38335731  0.38466414  0.87612203  1
  O  O150  1  0.37964633  0.89053840  0.37750058  1
  O  O151  1  0.38037260  0.88130372  0.88593267  1
  O  O152  1  0.88191256  0.38628034  0.39001327  1
  O  O153  1  0.88526657  0.36549609  0.88359779  1
  O  O154  1  0.88524404  0.87149628  0.38443845  1
  O  O155  1  0.89938255  0.88419050  0.89006486  1
  O  O156  1  0.26172645  0.01599558  0.37824725  1
  O  O157  1  0.26279003  0.00054038  0.87802214  1
  O  O158  1  0.25103980  0.51921471  0.36042273  1
  O  O159  1  0.26298160  0.49818255  0.86227018  1
  O  O160  1  0.74643525  0.00338421  0.36543206  1
  O  O161  1  0.76387650  -0.02792305  0.84156430  1
  O  O162  1  0.75817458  0.50686441  0.37185123  1
  O  O163  1  0.74991967  0.51588219  0.88357117  1
  O  O164  1  0.24450285  0.50200331  0.11270106  1
  O  O165  1  0.25240922  0.48816925  0.63350810  1
  O  O166  1  0.25134749  0.99321400  0.12759099  1
  O  O167  1  0.25471556  0.98989045  0.61418980  1
  O  O168  1  0.77259367  0.48553941  0.14742476  1
  O  O169  1  0.74069573  0.50293502  0.62978259  1
  O  O170  1  0.73063162  0.99679235  0.13945809  1
  O  O171  1  0.72997677  0.98987771  0.63968302  1
  O  O172  1  0.02530604  0.40296658  0.25586044  1
  O  O173  1  0.01669813  0.38515183  0.75668701  1
  O  O174  1  0.00410247  0.87734880  0.26054068  1
  O  O175  1  0.00973613  0.86830040  0.75675919  1
  O  O176  1  0.50516646  0.37760329  0.24613857  1
  O  O177  1  0.50875947  0.36595648  0.75815685  1
  O  O178  1  0.50007488  0.87722852  0.26075966  1
  O  O179  1  0.48428052  0.87194379  0.76351336  1
  O  O180  1  0.49902079  0.12737674  0.24060209  1
  O  O181  1  0.50059596  0.13967784  0.75168551  1
  O  O182  1  0.50063020  0.62805058  0.25330693  1
  O  O183  1  0.50473113  0.62589218  0.75144251  1
  O  O184  1  0.98490478  0.11472738  0.24413178  1
  O  O185  1  0.98279797  0.12346951  0.77543792  1
  O  O186  1  1.00193830  0.61254501  0.22945208  1
  O  O187  1  0.98960650  0.62102256  0.73959330  1
  O  O188  1  0.38071136  0.26458950  -0.00596241  1
  O  O189  1  0.36825679  0.24508268  0.51520570  1
  O  O190  1  0.36734537  0.76376764  0.02133874  1
  O  O191  1  0.36412861  0.76939565  0.48059859  1
  O  O192  1  0.86905969  0.25146202  0.01346529  1
  O  O193  1  0.89004867  0.26647652  0.50819247  1
  O  O194  1  0.85687569  0.76549352  -0.00973564  1
  O  O195  1  0.86669117  0.74855285  0.50740745  1
  O  O196  1  0.13415323  0.25306054  0.47978165  1
  O  O197  1  0.13251067  0.25860642  0.98969742  1
  O  O198  1  0.13258050  0.76932677  0.49492019  1
  O  O199  1  0.14185091  0.74233156  1.00834153  1
  O  O200  1  0.62619082  0.26611652  0.50773391  1
  O  O201  1  0.61529538  0.24954029  0.98392065  1
  O  O202  1  0.63564015  0.73792122  0.49392348  1
  O  O203  1  0.63965488  0.75559628  0.98380351  1
  O  O204  1  0.49929126  0.24643259  0.13205307  1
  O  O205  1  0.48335773  0.25765296  0.63682277  1
  O  O206  1  0.49161097  0.75310270  0.13840379  1
  O  O207  1  0.48135170  0.74320053  0.60028943  1
  O  O208  1  1.00552443  0.24196866  0.12919763  1
  O  O209  1  1.04091959  0.21785958  0.62286190  1
  O  O210  1  1.01300847  0.72951299  0.11395926  1
  O  O211  1  0.98394611  0.73730875  0.61742384  1
  O  O212  1  0.01015128  0.24849384  0.37511837  1
  O  O213  1  0.01870095  0.26203483  0.87736597  1
  O  O214  1  0.00108315  0.76445422  0.38189360  1
  O  O215  1  -0.03063839  0.84819672  0.91469365  1
  O  O216  1  0.49638718  0.26555909  0.36407964  1
  O  O217  1  0.50144255  0.25478914  0.86236580  1
  O  O218  1  0.50716774  0.75497553  0.35774220  1
  O  O219  1  0.50939019  0.76057001  0.87928450  1
  O  O220  1  0.24307876  0.13984244  0.49458848  1
  O  O221  1  0.25022691  0.11837950  0.98074834  1
  O  O222  1  0.23358199  0.64702031  0.49570963  1
  O  O223  1  0.24669441  0.63767007  1.00280837  1
  O  O224  1  0.77768705  0.12080042  0.47962887  1
  O  O225  1  0.82439889  0.03339032  0.98143513  1
  O  O226  1  0.74639458  0.63117710  0.49274557  1
  O  O227  1  0.76921151  0.63935394  0.98231956  1
  O  O228  1  0.26926118  0.38174006  -0.00991578  1
  O  O229  1  0.24458122  0.36855868  0.51284201  1
  O  O230  1  0.25543485  0.86839556  0.02024875  1
  O  O231  1  0.26047853  0.87870968  0.50093866  1
  O  O232  1  0.76887578  0.37817410  -0.00765564  1
  O  O233  1  0.76841894  0.37578629  0.49989963  1
  O  O234  1  0.74815086  0.87739955  0.01094236  1
  O  O235  1  0.76363780  0.86356468  0.48824021  1
  O  O236  1  0.13865256  0.49833823  0.23113971  1
  O  O237  1  0.14079019  0.48547606  0.75984150  1
  O  O238  1  0.12121825  0.98444082  0.23560200  1
  O  O239  1  0.13110392  0.97862336  0.75343929  1
  O  O240  1  0.63995775  0.50007363  0.23655026  1
  O  O241  1  0.62802414  0.48579116  0.74466857  1
  O  O242  1  0.62887191  1.00293136  0.25984799  1
  O  O243  1  0.60474371  0.98865223  0.74577686  1
  O  O244  1  0.38048957  0.00134146  0.26406866  1
  O  O245  1  0.37479556  -0.00321612  0.76587140  1
  O  O246  1  0.36763455  0.52109506  0.24055997  1
  O  O247  1  0.36506835  0.50597841  0.75725157  1
  O  O248  1  0.85860521  0.01730984  0.24518948  1
  O  O249  1  0.87514229  0.00592504  0.71762102  1
  O  O250  1  0.86982298  0.48968742  0.27042192  1
  O  O251  1  0.87583461  0.51107216  0.75540077  1
  O  O252  1  0.13011700  0.36274256  0.36344305  1
  O  O253  1  0.12446592  0.36799651  0.87065113  1
  O  O254  1  0.11830495  0.87811485  0.36034559  1
  O  O255  1  0.12218524  0.87800340  0.88063105  1
  O  O256  1  0.60296981  0.37481123  0.38407092  1
  O  O257  1  0.62080856  0.36477253  0.86419082  1
  O  O258  1  0.61848401  0.85615496  0.38298180  1
  O  O259  1  0.60609499  0.87068584  0.87271934  1
  O  O260  1  0.39771072  0.13158334  0.10870684  1
  O  O261  1  0.37128333  0.13103487  0.62744984  1
  O  O262  1  0.37542924  0.63603650  0.12340339  1
  O  O263  1  0.37432307  0.62510410  0.60566550  1
  O  O264  1  0.88227560  0.14345588  0.13486572  1
  O  O265  1  0.85263264  0.21414384  0.67529147  1
  O  O266  1  0.89284521  0.62321393  0.10330372  1
  O  O267  1  0.87590556  0.63309529  0.64051155  1
  O  O268  1  0.25246760  0.23998588  0.11151874  1
  O  O269  1  0.26191720  0.25786444  0.62155564  1
  O  O270  1  0.26386831  0.75357890  0.12917864  1
  O  O271  1  0.25855177  0.76909097  0.60705204  1
  O  O272  1  0.75483385  0.24796399  0.13021041  1
  O  O273  1  0.67938704  0.24422665  0.55267155  1
  O  O274  1  0.74513802  0.74891920  0.10887286  1
  O  O275  1  0.76171936  0.74509204  0.61619176  1
  O  O276  1  0.26241234  0.24098616  0.38042129  1
  O  O277  1  0.24712231  0.24274863  0.87269518  1
  O  O278  1  0.24443481  0.76120214  0.38213526  1
  O  O279  1  0.25827274  0.76403617  0.90148557  1
  O  O280  1  0.74753649  0.23988215  0.37385255  1
  O  O281  1  0.73739818  0.24485788  0.87893940  1
  O  O282  1  0.74504545  0.73901309  0.37876775  1
  O  O283  1  0.74209373  0.75210851  0.88218371  1
  O  O284  1  -0.01407810  0.12611240  0.02210703  1
  O  O285  1  -0.00618149  0.10767808  0.49084063  1
  O  O286  1  0.00954342  0.61315084  0.00111869  1
  O  O287  1  -0.00232547  0.61573758  0.51572505  1
  O  O288  1  0.50245304  0.10589518  -0.01141204  1
  O  O289  1  0.49578177  0.11410941  0.49293193  1
  O  O290  1  0.49763575  0.61498466  -0.00713168  1
  O  O291  1  0.52646486  0.61895857  0.48845846  1
  O  O292  1  0.48925356  0.37970428  0.50065354  1
  O  O293  1  0.49563370  0.37780044  0.98158256  1
  O  O294  1  0.48945789  0.87981633  0.48396260  1
  O  O295  1  0.49191254  0.88241304  1.00107759  1
  O  O296  1  0.99253395  0.39512973  0.51286066  1
  O  O297  1  0.99366952  0.37728512  0.99326366  1
  O  O298  1  0.99050662  0.88025745  0.48992821  1
  O  O299  1  0.98778020  0.88010733  0.99052349  1
  O  O300  1  0.50398914  0.49122488  0.38336069  1
  O  O301  1  0.49288865  0.49554430  0.87734563  1
  O  O302  1  0.49307918  0.99816318  0.38266455  1
  O  O303  1  0.48709715  0.98723146  0.88477235  1
  O  O304  1  0.98641860  0.51575087  0.39103943  1
  O  O305  1  0.99983093  0.48630725  0.88428885  1
  O  O306  1  1.00344909  0.98240480  0.38605396  1
  O  O307  1  0.97969404  1.03598642  0.87485705  1
  O  O308  1  0.00147847  -0.00142573  0.12311906  1
  O  O309  1  0.00819724  -0.01188873  0.59972708  1
  O  O310  1  0.00600486  0.50267976  0.11198164  1
  O  O311  1  0.00523214  0.51540544  0.61786220  1
  O  O312  1  0.50176783  0.01042305  0.11089029  1
  O  O313  1  0.50272671  -0.00302097  0.61014473  1
  O  O314  1  0.51109803  0.50297960  0.11272891  1
  O  O315  1  0.51523240  0.49505548  0.61770696  1
  O  O316  1  0.23547189  0.37426244  0.25134481  1
  O  O317  1  0.24571840  0.38071856  0.73712519  1
  O  O318  1  0.24099112  0.87398098  0.24084009  1
  O  O319  1  0.25701714  0.88542929  0.72720624  1
  O  O320  1  0.75067897  0.38124077  0.26628765  1
  O  O321  1  0.73876399  0.36270197  0.75213267  1
  O  O322  1  0.75109722  0.89068161  0.24461566  1
  O  O323  1  0.75375007  0.90509910  0.78742665  1
  O  O324  1  0.25136498  0.13084129  0.26036656  1
  O  O325  1  0.24155690  0.11808643  0.76702473  1
  O  O326  1  0.24767426  0.62124813  0.27458697  1
  O  O327  1  0.23842741  0.60948188  0.73799068  1
  O  O328  1  0.74805872  0.11772457  0.26057741  1
  O  O329  1  0.75850111  0.10833968  0.75217357  1
  O  O330  1  0.75086338  0.61749122  0.26296295  1
  O  O331  1  0.76510859  0.63223936  0.76582664  1
  O  O332  1  0.36642125  0.11720995  0.37889312  1
  O  O333  1  0.36743201  0.11294376  0.87716033  1
  O  O334  1  0.37541492  0.59775425  0.42707657  1
  O  O335  1  0.37755500  0.61069147  0.88122772  1
  O  O336  1  0.86796278  0.13390058  0.35778042  1
  O  O337  1  0.94044749  0.09474581  0.83701440  1
  O  O338  1  0.86293106  0.61771215  0.38300679  1
  O  O339  1  0.87774874  0.62864828  0.86383325  1
  O  O340  1  0.12654604  0.38637100  0.13075952  1
  O  O341  1  0.13272907  0.36804032  0.63611417  1
  O  O342  1  0.13296120  0.88328312  0.13062136  1
  O  O343  1  0.13653083  0.87569185  0.62092801  1
  O  O344  1  0.63735313  0.39730066  0.10523788  1
  O  O345  1  0.62534927  0.38450478  0.63778467  1
  O  O346  1  0.63935520  0.86579450  0.12572095  1
  O  O347  1  0.61613117  0.88341775  0.62271341  1
  O  O348  1  0.12150747  0.26093021  0.25373152  1
  O  O349  1  0.13318458  0.26847448  0.76337646  1
  O  O350  1  0.12381276  0.76734357  0.23981543  1
  O  O351  1  0.14544985  0.77765400  0.75821228  1
  O  O352  1  0.60527577  0.25043406  0.24728810  1
  O  O353  1  0.61290805  0.25795477  0.75150127  1
  O  O354  1  0.61539040  0.73522237  0.25491459  1
  O  O355  1  0.63395385  0.75270076  0.76778254  1
  O  O356  1  0.39442198  0.25828181  0.24133007  1
  O  O357  1  0.38079155  0.25027973  0.74174708  1
  O  O358  1  0.38783075  0.74901287  0.24285731  1
  O  O359  1  0.35400676  0.73781929  0.75730693  1
  O  O360  1  0.87107849  0.24452581  0.24132215  1
  O  O361  1  0.88454935  0.24709666  0.73379968  1
  O  O362  1  0.86359693  0.73945475  0.25432151  1
  O  O363  1  0.87110312  0.75096857  0.73832513  1
  O  O364  1  0.36716902  0.53235235  0.46545277  1
  O  O365  1  0.38815231  0.49186979  0.98699281  1
  O  O366  1  0.38776942  0.99350414  0.48954288  1
  O  O367  1  0.37864656  0.98963940  0.99374846  1
  O  O368  1  0.88000643  0.49483461  0.49487561  1
  O  O369  1  0.88362103  0.48410773  0.99838709  1
  O  O370  1  0.87662062  0.98411352  0.50367383  1
  O  O371  1  0.85229402  0.89286203  1.11782687  1
  O  O372  1  0.12775723  -0.00184192  0.02405387  1
  O  O373  1  0.12032544  0.01056231  0.49152398  1
  O  O374  1  0.12028070  0.50379416  0.00544959  1
  O  O375  1  0.11346941  0.49812879  0.49014797  1
  O  O376  1  0.61471125  -0.00524689  -0.01363582  1
  O  O377  1  0.61386109  0.00053860  0.50377875  1
  O  O378  1  0.60828767  0.50001645  -0.00632213  1
  O  O379  1  0.63750890  0.50897015  0.51170326  1
  O  O380  1  0.38462328  0.37689372  0.10505284  1
  O  O381  1  0.36547094  0.37198560  0.62556971  1
  O  O382  1  0.36515134  0.87910039  0.12679480  1
  O  O383  1  0.37430204  0.87709285  0.60539705  1
  O  O384  1  0.88201856  0.35958130  0.11486179  1
  O  O385  1  0.87423069  0.38030922  0.62175570  1
  O  O386  1  0.89895726  0.77380533  0.19842119  1
  O  O387  1  0.88323463  0.85935987  0.61070279  1
  O  O388  1  0.13652186  0.13853889  0.36767818  1
  O  O389  1  0.13432174  0.14156637  0.87665501  1
  O  O390  1  0.20890341  0.58049101  0.33076931  1
  O  O391  1  0.12193394  0.61915607  0.88648646  1
  O  O392  1  0.63892433  0.12720146  0.38782974  1
  O  O393  1  0.62410865  0.13806073  0.86334134  1
  O  O394  1  0.64029141  0.62770751  0.38315338  1
  O  O395  1  0.64041946  0.63488682  0.87418780  1
