# generated using pymatgen
data_V35Zn35O128
_symmetry_space_group_name_H-M   'P 1'
_cell_length_a   16.97155225
_cell_length_b   16.96785453
_cell_length_c   16.95833420
_cell_angle_alpha   89.76191513
_cell_angle_beta   90.02994292
_cell_angle_gamma   90.16917625
_symmetry_Int_Tables_number   1
_chemical_formula_structural   V35Zn35O128
_chemical_formula_sum   'V70 Zn70 O256'
_cell_volume   4883.44148637
_cell_formula_units_Z   2
loop_
 _symmetry_equiv_pos_site_id
 _symmetry_equiv_pos_as_xyz
  1  'x, y, z'
loop_
 _atom_site_type_symbol
 _atom_site_label
 _atom_site_symmetry_multiplicity
 _atom_site_fract_x
 _atom_site_fract_y
 _atom_site_fract_z
 _atom_site_occupancy
  V  V0  1  0.87040706  0.86162092  0.50045627  1
  V  V1  1  0.00680033  0.52621985  0.49219785  1
  V  V2  1  0.74537178  0.60544370  0.35103391  1
  V  V3  1  0.87437401  -0.01325180  0.37503913  1
  V  V4  1  0.88159783  0.37052335  0.51233804  1
  V  V5  1  0.26088995  0.12884776  0.86250044  1
  V  V6  1  0.36880101  0.14369063  0.25183096  1
  V  V7  1  0.48535910  0.00327777  0.00812748  1
  V  V8  1  0.12919376  0.61779678  0.00540780  1
  V  V9  1  0.75797726  0.11012349  0.85549398  1
  V  V10  1  0.50592515  0.50191805  0.01178453  1
  V  V11  1  0.10786642  0.00158864  0.13769801  1
  V  V12  1  0.01761162  0.25246785  0.75991767  1
  V  V13  1  0.25145012  0.62843396  0.86943323  1
  V  V14  1  0.46368358  0.91413567  0.37856608  1
  V  V15  1  0.63546768  0.38271202  0.75049759  1
  V  V16  1  0.24928348  -0.00144899  0.25800331  1
  V  V17  1  0.57761483  0.30714561  0.34973630  1
  V  V18  1  0.88531755  0.87171409  0.00924581  1
  V  V19  1  0.12037598  0.51160085  0.65412965  1
  V  V20  1  0.87965835  0.23356088  0.11349762  1
  V  V21  1  0.76622625  0.61086911  0.86448877  1
  V  V22  1  0.88844422  0.11777499  0.24028823  1
  V  V23  1  0.13877593  0.00083028  0.62599507  1
  V  V24  1  0.75516193  0.14918875  0.37541870  1
  V  V25  1  0.35087970  0.52734596  0.38854090  1
  V  V26  1  0.64218202  0.86758691  0.69695688  1
  V  V27  1  0.38434051  0.49867747  0.86145805  1
  V  V28  1  0.73963155  -0.00178543  0.25170131  1
  V  V29  1  0.62601293  0.74495977  0.35510334  1
  V  V30  1  0.02147181  0.35926083  0.88858018  1
  V  V31  1  0.86919494  0.25213721  0.65035252  1
  V  V32  1  0.24152295  0.13799316  0.37444290  1
  V  V33  1  0.87152803  0.49220619  0.38727432  1
  V  V34  1  0.50457029  0.36366141  0.86185712  1
  V  V35  1  0.37346705  0.76346954  0.61724255  1
  V  V36  1  0.13449065  0.72661654  0.37619729  1
  V  V37  1  0.24494037  0.87157739  0.13938183  1
  V  V38  1  0.35919357  0.38155665  0.49908410  1
  V  V39  1  0.50068181  0.13888936  0.14391915  1
  V  V40  1  0.26073222  0.74694905  0.01643692  1
  V  V41  1  0.14690184  0.47223210  0.11550640  1
  V  V42  1  0.49852522  0.85594143  0.89593504  1
  V  V43  1  -0.00123227  0.65009038  0.64784002  1
  V  V44  1  0.83551366  0.40035616  0.00628005  1
  V  V45  1  0.61793012  0.63331782  -0.01119313  1
  V  V46  1  0.63057062  0.61775475  0.49617793  1
  V  V47  1  0.10906183  0.12603177  0.49896410  1
  V  V48  1  0.74206124  0.23284495  0.00131007  1
  V  V49  1  0.37672295  0.37264106  0.01448745  1
  V  V50  1  -0.00565323  0.11953878  0.63754892  1
  V  V51  1  0.11929244  0.35924880  0.26187846  1
  V  V52  1  0.38407427  0.63820659  0.75320827  1
  V  V53  1  0.75970256  0.40373992  0.64081228  1
  V  V54  1  0.61339194  0.11908743  -0.01849714  1
  V  V55  1  0.37279622  0.87644281  0.02276312  1
  V  V56  1  0.50229557  0.49525874  0.49647266  1
  V  V57  1  0.13766037  0.76947305  0.87494697  1
  V  V58  1  0.00071439  0.00184813  -0.01773981  1
  V  V59  1  0.00653967  0.48634817  0.00411193  1
  V  V60  1  0.39184824  0.26029838  0.63320615  1
  V  V61  1  0.75436091  0.74359014  0.50820917  1
  V  V62  1  0.74407657  0.76144187  -0.01484110  1
  V  V63  1  0.01442096  0.87003410  0.37252276  1
  V  V64  1  -0.04491589  0.82360159  0.83433118  1
  V  V65  1  0.50290304  0.62572445  0.62376948  1
  V  V66  1  0.74411377  0.86280566  0.13316136  1
  V  V67  1  0.24480703  0.75450074  0.49944186  1
  V  V68  1  0.23289947  0.25989282  0.51377011  1
  V  V69  1  0.25647517  0.50035278  0.25135919  1
  Zn  Zn70  1  0.12675772  0.12639836  -0.00914385  1
  Zn  Zn71  1  0.25316899  0.26056879  0.00235696  1
  Zn  Zn72  1  -0.07143555  0.67896840  0.17427923  1
  Zn  Zn73  1  0.07246681  0.80989060  0.21385495  1
  Zn  Zn74  1  0.61781674  -0.00047206  0.13739610  1
  Zn  Zn75  1  0.12400619  0.87877584  0.73583525  1
  Zn  Zn76  1  0.18382059  0.19209528  0.16052035  1
  Zn  Zn77  1  0.18744882  0.18612739  0.69292109  1
  Zn  Zn78  1  0.29899526  0.67824328  0.19938662  1
  Zn  Zn79  1  0.18909801  0.69190371  0.68738124  1
  Zn  Zn80  1  0.68439096  0.19556753  0.20005395  1
  Zn  Zn81  1  0.67858661  0.20416910  0.69551169  1
  Zn  Zn82  1  0.60934504  0.64341632  0.18152037  1
  Zn  Zn83  1  0.67317603  0.68663984  0.68876820  1
  Zn  Zn84  1  0.30403244  0.32095310  0.31601390  1
  Zn  Zn85  1  0.30048871  0.31361091  0.81256406  1
  Zn  Zn86  1  0.32055242  0.81613616  0.32145619  1
  Zn  Zn87  1  0.33934782  0.81784407  0.82180644  1
  Zn  Zn88  1  0.88108707  0.30250617  0.31647738  1
  Zn  Zn89  1  0.81045135  0.30957029  0.82994373  1
  Zn  Zn90  1  0.81115312  0.79562782  0.30886665  1
  Zn  Zn91  1  0.77723656  0.77921187  0.78071811  1
  Zn  Zn92  1  0.17491531  0.43610307  0.42974774  1
  Zn  Zn93  1  0.20270004  0.43211839  0.91583560  1
  Zn  Zn94  1  0.25734378  0.93502895  0.43948239  1
  Zn  Zn95  1  0.19924373  0.95570221  0.95481911  1
  Zn  Zn96  1  0.69392121  0.42333810  0.44844088  1
  Zn  Zn97  1  0.68545270  0.44173453  0.93699251  1
  Zn  Zn98  1  0.67211517  0.92366533  0.43818415  1
  Zn  Zn99  1  0.68442171  0.93759825  0.94993894  1
  Zn  Zn100  1  0.30073665  0.07516807  0.06862574  1
  Zn  Zn101  1  0.30326981  0.09388569  0.58355547  1
  Zn  Zn102  1  0.31773434  0.55070962  0.05709591  1
  Zn  Zn103  1  0.29628632  0.56789211  0.57660695  1
  Zn  Zn104  1  0.80911480  0.05264344  0.05884203  1
  Zn  Zn105  1  0.76255415  0.04455754  0.52410755  1
  Zn  Zn106  1  0.77243001  0.57822295  0.08152811  1
  Zn  Zn107  1  0.82742142  0.57434526  0.57262386  1
  Zn  Zn108  1  0.47377292  0.70182016  0.25334448  1
  Zn  Zn109  1  0.43316395  0.43625751  0.68112927  1
  Zn  Zn110  1  0.43530143  0.94535084  0.19982663  1
  Zn  Zn111  1  0.47933159  0.90471286  0.69899643  1
  Zn  Zn112  1  1.00186536  0.49378558  0.24152768  1
  Zn  Zn113  1  0.97003236  0.43005832  0.68317579  1
  Zn  Zn114  1  0.92722320  0.92584881  0.19313863  1
  Zn  Zn115  1  0.93881243  0.82241689  0.67453713  1
  Zn  Zn116  1  0.06110788  0.05795866  0.32119127  1
  Zn  Zn117  1  0.07291286  0.06243324  0.81068391  1
  Zn  Zn118  1  0.10946064  0.64018208  0.22124552  1
  Zn  Zn119  1  -0.00451384  0.54507199  0.80538944  1
  Zn  Zn120  1  0.56621702  0.08276722  0.32861310  1
  Zn  Zn121  1  0.59780237  0.00074246  0.82965460  1
  Zn  Zn122  1  0.51381247  0.50013113  0.28821292  1
  Zn  Zn123  1  0.56934897  0.56185253  0.81100729  1
  Zn  Zn124  1  0.41601553  0.20144655  0.43398094  1
  Zn  Zn125  1  0.42918145  0.18745318  0.93335749  1
  Zn  Zn126  1  0.44101952  0.69353200  0.43885198  1
  Zn  Zn127  1  0.44281174  0.68347616  1.07724345  1
  Zn  Zn128  1  0.90985121  0.17835414  0.45415301  1
  Zn  Zn129  1  0.92759997  0.16984979  0.92493545  1
  Zn  Zn130  1  0.95438442  0.66749552  0.34414088  1
  Zn  Zn131  1  0.90847138  0.65053575  0.98904894  1
  Zn  Zn132  1  0.06495930  0.29974194  0.06811246  1
  Zn  Zn133  1  0.05923132  0.32318289  0.57056270  1
  Zn  Zn134  1  0.06748283  0.80150877  0.05640074  1
  Zn  Zn135  1  0.06594797  0.82122698  0.54668203  1
  Zn  Zn136  1  0.55327084  0.30787107  0.05234567  1
  Zn  Zn137  1  0.58818226  0.30736901  0.55524007  1
  Zn  Zn138  1  0.56446050  0.81081754  0.08150246  1
  Zn  Zn139  1  0.55480259  0.80368505  0.53720394  1
  O  O140  1  0.11979252  0.10017082  0.11978865  1
  O  O141  1  0.11473940  0.12168627  0.62352320  1
  O  O142  1  0.13504381  0.61476064  0.10481863  1
  O  O143  1  0.11259794  0.62692117  0.63476534  1
  O  O144  1  0.60698389  0.12325648  0.14379657  1
  O  O145  1  0.63837331  0.19590937  0.58248863  1
  O  O146  1  0.66138354  0.60861012  0.08699405  1
  O  O147  1  0.60937309  0.62360607  0.61663278  1
  O  O148  1  0.36197709  0.38402090  0.39404475  1
  O  O149  1  0.38880921  0.39116833  0.87161533  1
  O  O150  1  0.35859373  0.90234180  0.38823942  1
  O  O151  1  0.37592561  0.87235193  0.91906506  1
  O  O152  1  0.85769843  0.38090595  0.40705391  1
  O  O153  1  0.86820627  0.36892679  0.91294413  1
  O  O154  1  0.87667260  0.87693042  0.37255898  1
  O  O155  1  0.89117163  0.87624969  0.89350687  1
  O  O156  1  0.23531236  0.01823780  0.36613908  1
  O  O157  1  0.25379288  -0.00402912  0.84651960  1
  O  O158  1  0.24650688  0.50457530  0.36804491  1
  O  O159  1  0.27514711  0.52558997  0.88669460  1
  O  O160  1  0.75999262  -0.01500483  0.35750756  1
  O  O161  1  0.71354741  0.01228150  0.86587854  1
  O  O162  1  0.75164252  0.49965211  0.38508465  1
  O  O163  1  0.74744821  0.51385740  0.86187215  1
  O  O164  1  0.25086181  0.49274681  0.13337752  1
  O  O165  1  0.21972463  0.50718839  0.63415819  1
  O  O166  1  0.23587547  0.99112175  0.14121687  1
  O  O167  1  0.23841973  1.00894004  0.61676777  1
  O  O168  1  0.76379432  0.47372999  0.02597469  1
  O  O169  1  0.76919041  0.50197102  0.64507312  1
  O  O170  1  0.74689475  0.99384493  0.13992686  1
  O  O171  1  0.77063935  1.01379396  0.65012377  1
  O  O172  1  0.02069209  0.38114221  0.23808081  1
  O  O173  1  0.00281326  0.36047872  0.78035883  1
  O  O174  1  -0.00257055  0.87464721  0.26736228  1
  O  O175  1  0.00526383  0.87758012  0.76235812  1
  O  O176  1  0.62462006  0.40889649  0.17003442  1
  O  O177  1  0.50201123  0.38438908  0.75986164  1
  O  O178  1  0.48150521  0.88088799  0.28311765  1
  O  O179  1  0.45345488  0.86878719  0.80165188  1
  O  O180  1  0.48358836  0.12864111  0.25285805  1
  O  O181  1  0.57723283  0.13329728  0.58118817  1
  O  O182  1  0.52488821  0.59701028  0.24134240  1
  O  O183  1  0.49503801  0.62053397  0.73366961  1
  O  O184  1  0.98606603  0.11495985  0.25122973  1
  O  O185  1  1.00641498  0.13825262  0.74647452  1
  O  O186  1  1.00279243  0.60583718  0.24935811  1
  O  O187  1  0.99573268  0.64416202  0.74758120  1
  O  O188  1  0.38716640  0.27036446  -0.00058605  1
  O  O189  1  0.35633757  0.26268375  0.50945861  1
  O  O190  1  0.36591243  0.75801483  0.02220343  1
  O  O191  1  0.36962652  0.75186145  0.51153617  1
  O  O192  1  0.85340963  0.20917310  0.00635165  1
  O  O193  1  0.88509475  0.26925932  0.52881552  1
  O  O194  1  0.85817082  0.76462621  -0.00398439  1
  O  O195  1  0.85989396  0.75240900  0.49112973  1
  O  O196  1  0.12685350  0.24845949  0.51422853  1
  O  O197  1  0.14550164  0.23042939  1.03484275  1
  O  O198  1  0.13571000  0.75436087  0.48871791  1
  O  O199  1  0.13877639  0.73520919  0.99183448  1
  O  O200  1  0.62797119  0.33044591  0.44343339  1
  O  O201  1  0.62700183  0.22487012  1.00360873  1
  O  O202  1  0.63663161  0.73240120  0.48559734  1
  O  O203  1  0.63398145  0.74267169  1.00421409  1
  O  O204  1  0.50099507  0.23688228  0.12632630  1
  O  O205  1  0.49010237  0.27627435  0.61283277  1
  O  O206  1  0.52183896  0.72887831  0.14415935  1
  O  O207  1  0.48885426  0.73070831  0.60775916  1
  O  O208  1  0.97758979  0.23832271  0.10618206  1
  O  O209  1  0.99541298  0.25832066  0.65087712  1
  O  O210  1  1.02339312  0.73850999  0.13897163  1
  O  O211  1  1.01758078  0.75458920  0.62868523  1
  O  O212  1  -0.04489590  0.24216551  0.37291014  1
  O  O213  1  -0.00690342  0.24999850  0.87344592  1
  O  O214  1  0.02675470  0.75894218  0.37460997  1
  O  O215  1  0.02657952  0.76196257  0.88132114  1
  O  O216  1  0.50505284  0.24293762  0.38149452  1
  O  O217  1  0.49390454  0.26592742  0.87399662  1
  O  O218  1  0.52082758  0.72615584  0.36364135  1
  O  O219  1  0.50050046  0.76097551  0.90929673  1
  O  O220  1  0.23254870  0.14064475  0.49689235  1
  O  O221  1  0.23382182  0.06540752  0.97469605  1
  O  O222  1  0.24885013  0.65433541  0.52086134  1
  O  O223  1  0.24933933  0.63237486  0.99388923  1
  O  O224  1  0.79316175  0.14184826  0.47544612  1
  O  O225  1  0.72670610  0.11293748  0.98771517  1
  O  O226  1  0.74099980  0.62340903  0.50684986  1
  O  O227  1  0.74624335  0.65037731  0.97068535  1
  O  O228  1  0.27238694  0.37791779  -0.00649112  1
  O  O229  1  0.24086490  0.36425196  0.49745548  1
  O  O230  1  0.25469051  0.86858890  0.02127357  1
  O  O231  1  0.25000287  0.85909775  0.51727452  1
  O  O232  1  0.73886035  0.33566414  -0.01647986  1
  O  O233  1  0.76995714  0.39175103  0.53300645  1
  O  O234  1  0.75751144  0.87690201  0.01194482  1
  O  O235  1  0.75654256  0.84999922  0.48694695  1
  O  O236  1  0.13267337  0.48134506  0.22423200  1
  O  O237  1  0.10477902  0.51826846  0.75217328  1
  O  O238  1  0.13194353  1.00622286  0.24572519  1
  O  O239  1  0.12523885  0.99900809  0.73079559  1
  O  O240  1  0.68090224  0.45010614  0.19682702  1
  O  O241  1  0.61716376  0.48498025  0.74415080  1
  O  O242  1  0.63859154  1.00413568  0.25998465  1
  O  O243  1  0.57886350  0.95157876  0.72758690  1
  O  O244  1  0.35137750  0.01486100  0.25074921  1
  O  O245  1  0.28275910  -0.03328913  0.77825173  1
  O  O246  1  0.35840474  0.50670600  0.27493581  1
  O  O247  1  0.37895051  0.51106583  0.75760624  1
  O  O248  1  0.86526701  0.00290513  0.25282114  1
  O  O249  1  0.83045109  0.00747052  0.69160399  1
  O  O250  1  0.87131234  0.46549386  0.27061248  1
  O  O251  1  0.91112261  0.49548538  0.75060253  1
  O  O252  1  0.12020886  0.36210170  0.36226743  1
  O  O253  1  0.11811952  0.34865918  0.89644874  1
  O  O254  1  0.10890164  0.88980572  0.38479689  1
  O  O255  1  0.14608337  0.86620511  0.89394172  1
  O  O256  1  0.54377315  0.39526766  0.31181270  1
  O  O257  1  0.61317718  0.38183887  0.86558247  1
  O  O258  1  0.64013785  0.84417285  0.36667963  1
  O  O259  1  0.59818232  0.88917960  0.88685233  1
  O  O260  1  0.38726108  0.12144607  0.14500411  1
  O  O261  1  0.38068485  0.15846941  0.62811299  1
  O  O262  1  0.36543243  0.62158094  0.12712527  1
  O  O263  1  0.37942039  0.63333565  0.63749894  1
  O  O264  1  0.87261423  0.11717123  0.13255798  1
  O  O265  1  0.89048981  0.14829768  0.63082420  1
  O  O266  1  0.87365156  0.62296405  0.09371612  1
  O  O267  1  0.90084358  0.64543728  0.61768913  1
  O  O268  1  0.27254766  0.18628033  0.09027953  1
  O  O269  1  0.24854090  0.25034388  0.61437176  1
  O  O270  1  0.24001085  0.75834254  0.12419352  1
  O  O271  1  0.27009093  0.75892712  0.63104024  1
  O  O272  1  0.74991980  0.22704772  0.10733185  1
  O  O273  1  0.76934915  0.26046740  0.64228525  1
  O  O274  1  0.74564593  0.76533660  0.11212678  1
  O  O275  1  0.74584959  0.73876458  0.60735103  1
  O  O276  1  0.24572299  0.24287233  0.38891873  1
  O  O277  1  0.26159848  0.23208191  0.88754707  1
  O  O278  1  0.24490414  0.75655326  0.39123835  1
  O  O279  1  0.25599513  0.74476283  0.89082442  1
  O  O280  1  0.77235234  0.24344782  0.35410938  1
  O  O281  1  0.75314273  0.21888595  0.88675494  1
  O  O282  1  0.74514309  0.71968758  0.37655829  1
  O  O283  1  0.73843097  0.78643093  0.89000077  1
  O  O284  1  0.00247171  0.10468432  -0.01128032  1
  O  O285  1  0.00547806  0.14131160  0.52000247  1
  O  O286  1  0.02421945  0.60319742  -0.01375108  1
  O  O287  1  -0.00610767  0.61948692  0.46299774  1
  O  O288  1  0.50096424  0.11837852  0.01675308  1
  O  O289  1  0.45078541  0.08817583  0.50097056  1
  O  O290  1  0.51344372  0.61947865  0.00415949  1
  O  O291  1  0.51003761  0.61904409  0.50536633  1
  O  O292  1  0.48192430  0.39705068  0.50300422  1
  O  O293  1  0.49877838  0.38662952  0.98435131  1
  O  O294  1  0.50358899  0.86259748  0.45685595  1
  O  O295  1  0.49303481  0.88555975  1.01676999  1
  O  O296  1  0.98259424  0.39366807  0.51358719  1
  O  O297  1  1.00797690  0.37448261  0.99963001  1
  O  O298  1  0.97863131  0.86453691  0.48134046  1
  O  O299  1  0.98787175  0.87305733  1.01358672  1
  O  O300  1  0.46502965  0.51483693  0.39744808  1
  O  O301  1  0.48944250  0.50387245  0.87570197  1
  O  O302  1  0.49752723  1.00992278  0.38102586  1
  O  O303  1  0.49186159  0.99895209  0.90830842  1
  O  O304  1  0.97459420  0.49095353  0.38111797  1
  O  O305  1  1.01575867  0.47278647  0.89337203  1
  O  O306  1  0.98152386  0.98785108  0.37298986  1
  O  O307  1  1.01441102  0.98971093  0.88489994  1
  O  O308  1  0.00795858  -0.01222545  0.13825812  1
  O  O309  1  -0.00547025  0.02300280  0.63287272  1
  O  O310  1  0.03521770  0.48998462  0.10658334  1
  O  O311  1  0.00750922  0.53937458  0.60377607  1
  O  O312  1  0.50090217  0.00879723  0.12832880  1
  O  O313  1  0.56936719  0.09880937  0.64654253  1
  O  O314  1  0.50854238  0.49179305  0.10677130  1
  O  O315  1  0.48147373  0.51651870  0.60512050  1
  O  O316  1  0.23679598  0.39174140  0.25740157  1
  O  O317  1  0.22995857  0.39891962  0.80992504  1
  O  O318  1  0.25029221  0.89165389  0.25475080  1
  O  O319  1  0.26015342  0.88938853  0.76602404  1
  O  O320  1  0.84134174  0.39528084  0.25094375  1
  O  O321  1  0.74517096  0.37672855  0.75458472  1
  O  O322  1  0.75867320  0.87909341  0.23821721  1
  O  O323  1  0.73944559  0.87093047  0.72560881  1
  O  O324  1  0.25078511  0.12369138  0.25690202  1
  O  O325  1  0.25895845  0.13184796  0.76029709  1
  O  O326  1  0.22439291  0.59991696  0.24282950  1
  O  O327  1  0.26550589  0.63608415  0.76355245  1
  O  O328  1  0.75741106  0.11055882  0.25778523  1
  O  O329  1  0.73186842  0.12830445  0.75948660  1
  O  O330  1  0.73478139  0.59870849  0.25551743  1
  O  O331  1  0.74745958  0.66342489  0.77292582  1
  O  O332  1  0.35618219  0.13112123  0.36385902  1
  O  O333  1  0.36023289  0.11261229  0.88860868  1
  O  O334  1  0.35650110  0.62535347  0.39131665  1
  O  O335  1  0.37997335  0.62386703  0.85781057  1
  O  O336  1  0.86848111  0.10196046  0.35691274  1
  O  O337  1  0.85723665  0.10011940  0.86308955  1
  O  O338  1  0.85604103  0.59831837  0.36682587  1
  O  O339  1  0.86593914  0.62285008  0.88423879  1
  O  O340  1  0.14471181  0.37368245  0.11177294  1
  O  O341  1  0.07939636  0.41210516  0.63957445  1
  O  O342  1  0.13280534  0.87876358  0.13282862  1
  O  O343  1  0.11508134  0.89907643  0.61619329  1
  O  O344  1  0.64353159  0.36307288  0.10600514  1
  O  O345  1  0.65353812  0.38089674  0.63220764  1
  O  O346  1  0.64100202  0.88356951  0.12227762  1
  O  O347  1  0.62595575  0.86829919  0.59699358  1
  O  O348  1  0.13504815  0.26300756  0.23230528  1
  O  O349  1  0.11609332  0.25317819  0.75351853  1
  O  O350  1  0.14562207  0.74350615  0.27044526  1
  O  O351  1  0.14868595  0.76843340  0.77037695  1
  O  O352  1  0.63098693  0.26545169  0.27359116  1
  O  O353  1  0.61369643  0.28179010  0.74362921  1
  O  O354  1  0.64032710  0.73063287  0.25780415  1
  O  O355  1  0.60871702  0.77687634  0.72800167  1
  O  O356  1  0.36017378  0.24262358  0.25145636  1
  O  O357  1  0.36970963  0.28047221  0.73029389  1
  O  O358  1  0.36920436  0.74012180  0.26019179  1
  O  O359  1  0.38145917  0.74085875  0.74183459  1
  O  O360  1  0.86919591  0.22820228  0.22360310  1
  O  O361  1  0.88280936  0.25726471  0.75295397  1
  O  O362  1  0.88953877  0.72854783  0.26837216  1
  O  O363  1  0.89082885  0.77214682  0.77128110  1
  O  O364  1  0.35170935  0.50138199  0.49642796  1
  O  O365  1  0.39161339  0.49480027  0.98832479  1
  O  O366  1  0.39627583  1.03867935  0.51574914  1
  O  O367  1  0.38239977  0.99524350  1.02598337  1
  O  O368  1  0.88258444  0.50130228  0.49801879  1
  O  O369  1  0.90713661  0.48930043  1.01187494  1
  O  O370  1  0.85594887  0.97979032  0.48000744  1
  O  O371  1  0.89009585  0.98598158  1.00457824  1
  O  O372  1  0.10106226  -0.01760766  0.01895683  1
  O  O373  1  0.11582589  0.02509274  0.51456387  1
  O  O374  1  0.14360276  0.50401390  -0.00012173  1
  O  O375  1  0.10461222  0.50179514  0.48675010  1
  O  O376  1  0.60888537  0.01289785  0.01293288  1
  O  O377  1  0.66173252  0.00554848  0.50783943  1
  O  O378  1  0.60767196  0.51186620  -0.01687400  1
  O  O379  1  0.60690864  0.50058473  0.49106835  1
  O  O380  1  0.38476862  0.38399174  0.10934691  1
  O  O381  1  0.36642719  0.37776504  0.60785050  1
  O  O382  1  0.35788135  0.88023261  0.13419194  1
  O  O383  1  0.40407866  0.85999071  0.63160253  1
  O  O384  1  0.86172653  0.34278870  0.08803080  1
  O  O385  1  0.87351158  0.37265472  0.63446946  1
  O  O386  1  0.86200848  0.87393675  0.11491422  1
  O  O387  1  0.87395532  0.87376360  0.59938016  1
  O  O388  1  0.11984672  0.12763932  0.39312614  1
  O  O389  1  0.14593844  0.11931003  0.87468453  1
  O  O390  1  0.13155213  0.63158588  0.37910166  1
  O  O391  1  0.14910889  0.63477430  0.87947812  1
  O  O392  1  0.65500028  0.13179881  0.37982678  1
  O  O393  1  0.59856667  0.11586089  0.88395631  1
  O  O394  1  0.63881445  0.61784949  0.38557090  1
  O  O395  1  0.63257533  0.62648951  0.88414633  1
