# generated using pymatgen
data_V35Zn35O128
_symmetry_space_group_name_H-M   'P 1'
_cell_length_a   16.83864166
_cell_length_b   16.84359115
_cell_length_c   16.83732273
_cell_angle_alpha   90.22243436
_cell_angle_beta   89.90594422
_cell_angle_gamma   90.14265751
_symmetry_Int_Tables_number   1
_chemical_formula_structural   V35Zn35O128
_chemical_formula_sum   'V70 Zn70 O256'
_cell_volume   4775.39812786
_cell_formula_units_Z   2
loop_
 _symmetry_equiv_pos_site_id
 _symmetry_equiv_pos_as_xyz
  1  'x, y, z'
loop_
 _atom_site_type_symbol
 _atom_site_label
 _atom_site_symmetry_multiplicity
 _atom_site_fract_x
 _atom_site_fract_y
 _atom_site_fract_z
 _atom_site_occupancy
  V  V0  1  0.12075531  0.74437288  0.36782671  1
  V  V1  1  0.77455992  0.87145557  0.12783789  1
  V  V2  1  0.52614599  -0.01198012  -0.00434725  1
  V  V3  1  0.00424215  -0.00822462  0.50418439  1
  V  V4  1  0.61760618  0.63496079  0.49699863  1
  V  V5  1  0.37354823  0.02059816  0.88443055  1
  V  V6  1  0.36514020  0.76513698  0.12958921  1
  V  V7  1  -0.00373657  0.12924121  0.61967450  1
  V  V8  1  0.87761269  0.48421329  0.86733733  1
  V  V9  1  0.84748710  0.62384888  0.74966116  1
  V  V10  1  0.24358357  -0.01840310  0.24794350  1
  V  V11  1  0.62210422  0.87735606  0.75073565  1
  V  V12  1  0.00019852  0.62571507  0.13210387  1
  V  V13  1  0.60087288  0.25091245  0.36851291  1
  V  V14  1  0.23935036  0.37517522  0.61725241  1
  V  V15  1  0.13916687  0.49779325  0.13840454  1
  V  V16  1  0.37304184  0.51130714  0.86854539  1
  V  V17  1  0.75712946  0.86640472  0.62563748  1
  V  V18  1  0.62900287  0.26181372  0.91368891  1
  V  V19  1  0.38108975  0.26207496  0.64514046  1
  V  V20  1  0.12059986  0.12031664  0.00780617  1
  V  V21  1  0.37913618  0.87544116  0.50209259  1
  V  V22  1  0.37083380  0.37391216  0.02076206  1
  V  V23  1  0.12375597  0.14581957  0.49841348  1
  V  V24  1  0.37932734  0.49384268  0.38497589  1
  V  V25  1  -0.00211234  0.26395633  0.75419567  1
  V  V26  1  0.49842514  0.50185111  0.00784678  1
  V  V27  1  0.85363871  0.24964807  0.61924682  1
  V  V28  1  0.34940169  0.61616136  0.25185309  1
  V  V29  1  0.87686590  0.25989946  0.12637595  1
  V  V30  1  0.25793839  0.24467615  0.02270861  1
  V  V31  1  0.52507350  0.12405515  0.11683603  1
  V  V32  1  0.63745675  0.50175035  0.13011376  1
  V  V33  1  0.50441687  0.37150337  0.86889955  1
  V  V34  1  0.38190701  0.73567473  0.62762472  1
  V  V35  1  0.74994858  0.65019226  0.37595518  1
  V  V36  1  0.11480173  0.87374950  0.77264964  1
  V  V37  1  0.50771365  0.86039027  0.37430854  1
  V  V38  1  0.38110953  -0.00207008  0.38207687  1
  V  V39  1  0.87166303  0.85398852  0.49933426  1
  V  V40  1  0.00797800  0.36896032  0.36626670  1
  V  V41  1  -0.00504855  0.74344158  0.72903314  1
  V  V42  1  0.12701090  0.61272312  -0.01551447  1
  V  V43  1  0.61840704  0.00112494  0.61177313  1
  V  V44  1  0.91212829  0.10012242  0.79540530  1
  V  V45  1  0.25011743  0.74956450  -0.01661016  1
  V  V46  1  0.62279602  0.38474887  0.26233003  1
  V  V47  1  0.73871822  0.12863196  0.90001214  1
  V  V48  1  0.76597056  0.74964763  0.00373817  1
  V  V49  1  0.23254119  0.50302359  0.74638875  1
  V  V50  1  0.62624356  0.75384063  0.87653948  1
  V  V51  1  0.74934872  0.13483486  0.37954938  1
  V  V52  1  0.24776065  0.12959542  0.38223318  1
  V  V53  1  -0.00690038  0.49412648  0.50815431  1
  V  V54  1  0.25026678  0.73578082  0.49611722  1
  V  V55  1  0.14086056  0.35800621  0.24921444  1
  V  V56  1  0.49813806  0.73693091  0.75386714  1
  V  V57  1  0.49619421  0.63671498  0.13721051  1
  V  V58  1  0.38032340  0.12711032  0.23812544  1
  V  V59  1  0.61750602  0.13468109  0.49952665  1
  V  V60  1  0.60137746  0.50050067  0.62088361  1
  V  V61  1  0.14206800  0.25861283  0.86780703  1
  V  V62  1  0.23766529  0.87727186  0.62543219  1
  V  V63  1  0.11926322  0.61288529  0.51061334  1
  V  V64  1  0.62261580  0.63235399  -0.00343523  1
  V  V65  1  0.74524719  0.02198439  0.74358129  1
  V  V66  1  0.90973286  0.03502285  0.35258676  1
  V  V67  1  0.86799532  0.49207669  0.36417398  1
  V  V68  1  0.73965543  0.00464746  0.25681057  1
  V  V69  1  0.61941335  0.86150435  0.24145351  1
  Zn  Zn70  1  0.19653734  0.88037902  0.11197394  1
  Zn  Zn71  1  0.48316998  0.12858341  0.64337432  1
  Zn  Zn72  1  0.87645022  0.62799866  0.24408240  1
  Zn  Zn73  1  0.72821103  0.35914459  0.64164625  1
  Zn  Zn74  1  0.24017111  0.01823763  0.75171475  1
  Zn  Zn75  1  0.00054662  0.85979234  0.36181422  1
  Zn  Zn76  1  0.19038320  0.17599646  0.19336578  1
  Zn  Zn77  1  0.18763259  0.20100239  0.68613600  1
  Zn  Zn78  1  0.18288382  0.69197085  0.17773371  1
  Zn  Zn79  1  0.18541988  0.68826069  0.69465379  1
  Zn  Zn80  1  0.68745993  0.19595423  0.19273704  1
  Zn  Zn81  1  0.64886061  0.18853702  0.70242526  1
  Zn  Zn82  1  0.69157830  0.68698429  0.18799444  1
  Zn  Zn83  1  0.68156737  0.68248181  0.68090974  1
  Zn  Zn84  1  0.31966890  0.30871613  0.32072183  1
  Zn  Zn85  1  0.31874379  0.32638664  0.81073193  1
  Zn  Zn86  1  0.31692033  0.80470986  0.31368645  1
  Zn  Zn87  1  0.31392527  0.82042651  0.80349346  1
  Zn  Zn88  1  0.80348664  0.32301164  0.31566518  1
  Zn  Zn89  1  0.81266028  0.29058656  0.81144117  1
  Zn  Zn90  1  0.81166614  0.82033086  0.31398959  1
  Zn  Zn91  1  0.82056890  0.81441495  0.81701754  1
  Zn  Zn92  1  0.19367497  0.43865208  0.42949721  1
  Zn  Zn93  1  0.19077195  0.43506421  0.93645239  1
  Zn  Zn94  1  0.18957547  0.93098725  0.43553209  1
  Zn  Zn95  1  0.20325081  0.94595356  0.93391226  1
  Zn  Zn96  1  0.68146222  0.44780260  0.44428359  1
  Zn  Zn97  1  0.69572706  0.44150603  0.94460403  1
  Zn  Zn98  1  0.69113286  0.93304439  0.43599558  1
  Zn  Zn99  1  0.71691391  0.93023470  0.92740718  1
  Zn  Zn100  1  0.30146607  0.05430494  0.06355889  1
  Zn  Zn101  1  0.28935343  0.08787424  0.59437125  1
  Zn  Zn102  1  0.31148642  0.56617475  0.06118197  1
  Zn  Zn103  1  0.31705401  0.55016687  0.56199547  1
  Zn  Zn104  1  0.81081577  0.06495955  0.08352247  1
  Zn  Zn105  1  0.81523286  0.05908539  0.55103549  1
  Zn  Zn106  1  0.81536329  0.56266834  0.05482658  1
  Zn  Zn107  1  0.81551676  0.57188705  0.55566666  1
  Zn  Zn108  1  0.42707498  0.41655377  0.22762493  1
  Zn  Zn109  1  0.43761530  0.43811081  0.68877351  1
  Zn  Zn110  1  0.44551393  0.95038635  0.18799784  1
  Zn  Zn111  1  0.44279145  0.92994428  0.67902845  1
  Zn  Zn112  1  0.95405565  0.44741411  0.18794733  1
  Zn  Zn113  1  0.91711909  0.43954498  0.68986265  1
  Zn  Zn114  1  0.99132778  0.83737994  0.14241621  1
  Zn  Zn115  1  0.93917133  0.93789395  0.68918902  1
  Zn  Zn116  1  0.07430596  0.05437086  0.31716679  1
  Zn  Zn117  1  0.08406805  0.06684003  0.82582597  1
  Zn  Zn118  1  0.06786926  0.56158556  0.31775716  1
  Zn  Zn119  1  0.05274431  0.55544459  0.80532413  1
  Zn  Zn120  1  0.55963773  0.05946806  0.31168268  1
  Zn  Zn121  1  0.54598143  0.08572377  0.82840168  1
  Zn  Zn122  1  0.56355384  0.57057540  0.31764367  1
  Zn  Zn123  1  0.57190849  0.55599843  0.81093686  1
  Zn  Zn124  1  0.42031162  0.17521741  0.47096934  1
  Zn  Zn125  1  0.44305973  0.18749882  0.94979751  1
  Zn  Zn126  1  0.43306330  0.68027747  0.42889688  1
  Zn  Zn127  1  0.43626806  0.69762433  0.94245689  1
  Zn  Zn128  1  0.93442281  0.19888826  0.44499075  1
  Zn  Zn129  1  0.94417062  0.19783795  0.94383716  1
  Zn  Zn130  1  0.93811694  0.67454241  0.43750174  1
  Zn  Zn131  1  0.93719495  0.65497824  0.94069002  1
  Zn  Zn132  1  0.07664540  0.31821413  0.05898559  1
  Zn  Zn133  1  0.05491566  0.31905232  0.56558881  1
  Zn  Zn134  1  0.07917050  0.82875789  -0.01294509  1
  Zn  Zn135  1  0.06170169  0.80572324  0.55563451  1
  Zn  Zn136  1  0.54284974  0.32414410  0.09710872  1
  Zn  Zn137  1  0.55454188  0.31691928  0.55865440  1
  Zn  Zn138  1  0.55630495  0.81853797  0.06291865  1
  Zn  Zn139  1  0.56397064  0.80854343  0.56081752  1
  O  O140  1  0.13801593  0.11946420  0.10975438  1
  O  O141  1  0.11112596  0.13618632  0.60725258  1
  O  O142  1  0.12094022  0.61295134  0.12187605  1
  O  O143  1  0.12975650  0.62721824  0.60961634  1
  O  O144  1  0.62511071  0.12451182  0.13031433  1
  O  O145  1  0.63188766  0.11570270  0.60611745  1
  O  O146  1  0.61177288  0.62903649  0.12017515  1
  O  O147  1  0.63387311  0.61259010  0.60708902  1
  O  O148  1  0.39116197  0.39265015  0.33899770  1
  O  O149  1  0.39308120  0.38382342  0.88586928  1
  O  O150  1  0.38318191  0.87914197  0.38016513  1
  O  O151  1  0.38458691  0.91390873  0.82762027  1
  O  O152  1  0.88693931  0.38401185  0.36716214  1
  O  O153  1  0.85776476  0.38429188  0.85668531  1
  O  O154  1  0.87788907  0.87064312  0.39642818  1
  O  O155  1  0.82234570  0.89992665  0.88735927  1
  O  O156  1  0.25952423  0.00065093  0.37078049  1
  O  O157  1  0.26672309  0.00998793  0.86505745  1
  O  O158  1  0.27383876  0.49532088  0.37345412  1
  O  O159  1  0.26608450  0.49054723  0.86249532  1
  O  O160  1  0.74551773  0.01071072  0.36768453  1
  O  O161  1  0.73565034  0.02686178  0.85553173  1
  O  O162  1  0.76597652  0.48665033  0.37445750  1
  O  O163  1  0.76243746  0.51241687  0.89021252  1
  O  O164  1  0.23985869  0.50186106  0.12415192  1
  O  O165  1  0.25448833  0.48949309  0.63555592  1
  O  O166  1  0.25552785  0.98097745  0.14075557  1
  O  O167  1  0.26180364  0.97635141  0.62602981  1
  O  O168  1  0.73488973  0.52337720  0.12818664  1
  O  O169  1  0.75279782  0.47596966  0.59226232  1
  O  O170  1  0.76141833  0.98637639  0.14635300  1
  O  O171  1  0.74394507  1.00072601  0.62937357  1
  O  O172  1  0.01226128  0.37747305  0.26036057  1
  O  O173  1  -0.00881213  0.36149884  0.74274903  1
  O  O174  1  -0.03711934  0.81836176  0.25458908  1
  O  O175  1  0.00774627  0.86798896  0.74889718  1
  O  O176  1  0.52808127  0.36386061  0.21348183  1
  O  O177  1  0.50475549  0.37902983  0.77059285  1
  O  O178  1  0.51157286  0.88283857  0.26186914  1
  O  O179  1  0.51896903  0.86526654  0.73776297  1
  O  O180  1  0.48875162  0.10610690  0.23270000  1
  O  O181  1  0.54579982  0.14424070  0.73595687  1
  O  O182  1  0.50258650  0.63285767  0.23684065  1
  O  O183  1  0.50580229  0.63866923  0.75173776  1
  O  O184  1  0.97197146  0.10100191  0.30583896  1
  O  O185  1  1.00219122  0.12735488  0.73482963  1
  O  O186  1  1.00201594  0.62102988  0.23881393  1
  O  O187  1  1.00801690  0.64414718  0.74688886  1
  O  O188  1  0.36971140  0.26325282  0.00043863  1
  O  O189  1  0.40184169  0.29811667  0.47835727  1
  O  O190  1  0.36120493  0.74580071  0.01748909  1
  O  O191  1  0.36785030  0.75108139  0.50676281  1
  O  O192  1  0.87195085  0.25299620  0.02208063  1
  O  O193  1  0.87160392  0.25949827  0.51963899  1
  O  O194  1  0.86302012  0.73489400  -0.00414340  1
  O  O195  1  0.88004312  0.75606421  0.50549321  1
  O  O196  1  0.12108507  0.24381814  0.49389825  1
  O  O197  1  0.14669203  0.24849775  0.99839381  1
  O  O198  1  0.13937853  0.73832235  0.50093556  1
  O  O199  1  0.14108822  0.73143674  0.98963976  1
  O  O200  1  0.62033467  0.24159851  0.48853600  1
  O  O201  1  0.62307990  0.26186719  1.01124445  1
  O  O202  1  0.63447424  0.73625607  0.51022292  1
  O  O203  1  0.61717469  0.74864837  0.99139974  1
  O  O204  1  0.49683066  0.22185054  0.11852584  1
  O  O205  1  0.48709461  0.25309641  0.62252237  1
  O  O206  1  0.48560209  0.74133444  0.11729000  1
  O  O207  1  0.49010230  0.75078371  0.63338108  1
  O  O208  1  0.98102278  0.25325810  0.13054597  1
  O  O209  1  0.99137007  0.24554598  0.63189349  1
  O  O210  1  1.00504955  0.72588860  0.11587954  1
  O  O211  1  0.99344317  0.75128550  0.62934103  1
  O  O212  1  -0.00525460  0.26963795  0.38047209  1
  O  O213  1  -0.00326489  0.24716943  0.85713180  1
  O  O214  1  0.01571577  0.74510939  0.39091397  1
  O  O215  1  -0.00897004  0.75133870  0.87789588  1
  O  O216  1  0.50465378  0.23592890  0.37405030  1
  O  O217  1  0.51491696  0.26395432  0.88977741  1
  O  O218  1  0.49128946  0.76276409  0.36738599  1
  O  O219  1  0.50439498  0.75335209  0.86203473  1
  O  O220  1  0.23149695  0.11467047  0.49495989  1
  O  O221  1  0.25341200  0.14214129  1.00113064  1
  O  O222  1  0.24789717  0.63261102  0.50530234  1
  O  O223  1  0.24246353  0.63742035  1.00331219  1
  O  O224  1  0.73437344  0.11732728  0.48453980  1
  O  O225  1  0.75195710  0.10674168  0.99610846  1
  O  O226  1  0.74698893  0.62217912  0.48044560  1
  O  O227  1  0.73329668  0.64509441  1.01499617  1
  O  O228  1  0.26571872  0.36621917  0.00042780  1
  O  O229  1  0.24819275  0.38500522  0.51634894  1
  O  O230  1  0.23385974  0.85816420  -0.00015538  1
  O  O231  1  0.25876281  0.86148849  0.50869264  1
  O  O232  1  0.76245794  0.38591017  0.01350891  1
  O  O233  1  0.75830814  0.41603078  0.53239474  1
  O  O234  1  0.74963134  0.86475699  0.02247955  1
  O  O235  1  0.76324617  0.88157116  0.51133358  1
  O  O236  1  0.13054101  0.49399574  0.24289165  1
  O  O237  1  0.13355622  0.49254916  0.75251218  1
  O  O238  1  0.14308789  0.99770001  0.25195417  1
  O  O239  1  0.12401232  0.98173532  0.76002543  1
  O  O240  1  0.61895179  0.49404678  0.24226539  1
  O  O241  1  0.62526668  0.50915269  0.72241212  1
  O  O242  1  0.63605421  0.98783951  0.25712519  1
  O  O243  1  0.63647109  0.99476608  0.73518818  1
  O  O244  1  0.36693228  0.00468617  0.26462489  1
  O  O245  1  0.37566649  -0.02521303  0.76442577  1
  O  O246  1  0.37398734  0.51861055  0.23557664  1
  O  O247  1  0.38841275  0.50529416  0.76820667  1
  O  O248  1  0.86074107  -0.00803724  0.27417503  1
  O  O249  1  0.86285922  0.01887141  0.74415423  1
  O  O250  1  0.88096067  0.50208523  0.26087670  1
  O  O251  1  0.85568111  0.51078245  0.75521102  1
  O  O252  1  0.11972390  0.37813154  0.36129921  1
  O  O253  1  0.11909079  0.35586074  0.89144786  1
  O  O254  1  0.12166279  0.85271679  0.38607697  1
  O  O255  1  0.12334228  0.86997951  0.87339025  1
  O  O256  1  0.61702275  0.36717294  0.37122791  1
  O  O257  1  0.61471705  0.37300259  0.89625159  1
  O  O258  1  0.61239694  0.87447974  0.37407984  1
  O  O259  1  0.63520371  0.86586517  0.85988548  1
  O  O260  1  0.36402683  0.11850932  0.13945196  1
  O  O261  1  0.38301895  0.15494428  0.58483304  1
  O  O262  1  0.38290489  0.63205512  0.13184051  1
  O  O263  1  0.37312126  0.63768410  0.62025737  1
  O  O264  1  0.87640353  0.15256306  0.12938332  1
  O  O265  1  0.88620434  0.13368007  0.61139119  1
  O  O266  1  0.89364078  0.60949614  0.12518902  1
  O  O267  1  0.86083197  0.62127494  0.64653918  1
  O  O268  1  0.25471121  0.24868652  0.12100171  1
  O  O269  1  0.26723468  0.26531162  0.62563705  1
  O  O270  1  0.25403017  0.76669023  0.12228167  1
  O  O271  1  0.26223016  0.75637171  0.62004985  1
  O  O272  1  0.77084194  0.25519866  0.12963387  1
  O  O273  1  0.75118119  0.23579246  0.62815996  1
  O  O274  1  0.75300134  0.76143747  0.12033668  1
  O  O275  1  0.74660945  0.76857187  0.63098804  1
  O  O276  1  0.26426620  0.22792952  0.38370151  1
  O  O277  1  0.24388179  0.25877013  0.86730563  1
  O  O278  1  0.24664210  0.75089236  0.39231601  1
  O  O279  1  0.27242245  0.75388741  0.88521047  1
  O  O280  1  0.74189939  0.23796411  0.36910162  1
  O  O281  1  0.73827258  0.24261870  0.89400707  1
  O  O282  1  0.75211064  0.74983289  0.38308382  1
  O  O283  1  0.73791006  0.75567585  0.89550882  1
  O  O284  1  0.02019691  0.14186415  0.00466553  1
  O  O285  1  0.01084162  0.12030049  0.49617116  1
  O  O286  1  0.02074366  0.62029195  0.00714294  1
  O  O287  1  0.01084612  0.61044080  0.50343576  1
  O  O288  1  0.50818156  0.11159550  0.00938823  1
  O  O289  1  0.51831663  0.11767400  0.49594929  1
  O  O290  1  0.50530549  0.62229661  0.00713093  1
  O  O291  1  0.51636264  0.63616974  0.48943747  1
  O  O292  1  0.46241055  0.34472011  0.47843513  1
  O  O293  1  0.48931640  0.38613026  1.00751257  1
  O  O294  1  0.49127086  0.86673813  0.48878072  1
  O  O295  1  0.49634069  0.89021432  0.99965219  1
  O  O296  1  1.01187552  0.38863197  0.48511593  1
  O  O297  1  0.98136758  0.34809985  1.01028416  1
  O  O298  1  0.98482325  0.88403578  0.51245333  1
  O  O299  1  0.98097216  0.81769625  0.91842505  1
  O  O300  1  0.48226048  0.51133621  0.36316240  1
  O  O301  1  0.50083995  0.49281219  0.88888801  1
  O  O302  1  0.48513282  0.99270694  0.37513059  1
  O  O303  1  0.49517148  1.00672790  0.88974605  1
  O  O304  1  0.99281665  0.49136407  0.37994118  1
  O  O305  1  0.97983520  0.48825370  0.85832760  1
  O  O306  1  1.00157351  0.97623592  0.38040087  1
  O  O307  1  0.97062141  1.04949570  0.85829737  1
  O  O308  1  -0.03199589  0.00391155  0.08172569  1
  O  O309  1  -0.00865166  0.01096537  0.60996314  1
  O  O310  1  0.02148838  0.50747173  0.12089239  1
  O  O311  1  -0.01354366  0.48377412  0.60790982  1
  O  O312  1  0.50253433  0.00796789  0.10743882  1
  O  O313  1  0.51501042  0.00570956  0.62810681  1
  O  O314  1  0.50767234  0.51825277  0.11648350  1
  O  O315  1  0.50100593  0.50408424  0.62122642  1
  O  O316  1  0.24057895  0.36351672  0.25571962  1
  O  O317  1  0.25992688  0.39167333  0.73843989  1
  O  O318  1  0.25036098  0.88132966  0.26014892  1
  O  O319  1  0.22915087  0.86622882  0.73812199  1
  O  O320  1  0.72247478  0.37071601  0.24804263  1
  O  O321  1  0.71284520  0.33385774  0.75876253  1
  O  O322  1  0.74026495  0.87920270  0.24452037  1
  O  O323  1  0.74528970  0.88702375  0.73589074  1
  O  O324  1  0.25957908  0.11239051  0.26709054  1
  O  O325  1  0.25843319  0.11628223  0.70204805  1
  O  O326  1  0.25081266  0.62181278  0.24378980  1
  O  O327  1  0.24655263  0.60558872  0.74411281  1
  O  O328  1  0.74202669  0.11246142  0.26029936  1
  O  O329  1  0.74041477  0.12218131  0.74304682  1
  O  O330  1  0.75928120  0.63906761  0.26553644  1
  O  O331  1  0.74930583  0.64169434  0.76305791  1
  O  O332  1  0.36727973  0.10890811  0.38680176  1
  O  O333  1  0.39031306  0.12006914  0.87002704  1
  O  O334  1  0.36978754  0.61844172  0.35758322  1
  O  O335  1  0.38201316  0.60907799  0.88835432  1
  O  O336  1  0.85545752  0.13072789  0.38602504  1
  O  O337  1  0.85228083  0.14401330  0.87518456  1
  O  O338  1  0.86367284  0.61673828  0.37164177  1
  O  O339  1  0.88164400  0.61437671  0.85347817  1
  O  O340  1  0.12459401  0.38432053  0.13828370  1
  O  O341  1  0.13987090  0.36184650  0.62951794  1
  O  O342  1  0.08253340  0.87865201  0.08964508  1
  O  O343  1  0.13732671  0.87375071  0.61391495  1
  O  O344  1  0.63394545  0.40125118  0.11641876  1
  O  O345  1  0.61994008  0.39125070  0.60959823  1
  O  O346  1  0.62461945  0.87274027  0.13995704  1
  O  O347  1  0.63537184  0.88689155  0.62359522  1
  O  O348  1  0.12539923  0.25791333  0.24225917  1
  O  O349  1  0.11303656  0.24958080  0.75950866  1
  O  O350  1  0.13012672  0.74297784  0.26797240  1
  O  O351  1  0.11042520  0.76416339  0.74502234  1
  O  O352  1  0.62083582  0.25558000  0.26480708  1
  O  O353  1  0.64722943  0.28446875  0.76960396  1
  O  O354  1  0.62612028  0.76269480  0.25206281  1
  O  O355  1  0.61679639  0.75413184  0.75494458  1
  O  O356  1  0.37569471  0.22444686  0.26001299  1
  O  O357  1  0.38054263  0.25041480  0.74410195  1
  O  O358  1  0.36600199  0.73458418  0.23641320  1
  O  O359  1  0.38731148  0.75361254  0.73934798  1
  O  O360  1  0.87274747  0.26199741  0.23212704  1
  O  O361  1  0.88793767  0.22476011  0.74551006  1
  O  O362  1  0.89706018  0.76590235  0.25780176  1
  O  O363  1  0.88617221  0.74378759  0.75652147  1
  O  O364  1  0.38303697  0.49731174  0.48713771  1
  O  O365  1  0.37933481  0.49101146  0.99621243  1
  O  O366  1  0.36822369  0.98381164  0.48959491  1
  O  O367  1  0.36828553  1.00200974  0.98488810  1
  O  O368  1  0.89011878  0.50824827  0.48449332  1
  O  O369  1  0.87074434  0.51059647  0.97333154  1
  O  O370  1  0.89525950  1.01226647  0.47537991  1
  O  O371  1  0.91231419  1.01415498  1.03371466  1
  O  O372  1  0.12926870  0.02121166  -0.02118708  1
  O  O373  1  0.10666578  -0.00144273  0.49197104  1
  O  O374  1  0.13938712  0.50821994  0.00911827  1
  O  O375  1  0.11919467  0.50881805  0.49492484  1
  O  O376  1  0.62586708  -0.01598017  -0.01323531  1
  O  O377  1  0.62760401  0.00131450  0.50874612  1
  O  O378  1  0.61936863  0.51540064  0.00978099  1
  O  O379  1  0.61602028  0.51525450  0.50564809  1
  O  O380  1  0.37857214  0.37992840  0.11928782  1
  O  O381  1  0.37538781  0.36548142  0.62656541  1
  O  O382  1  0.38491593  0.86176719  0.13957720  1
  O  O383  1  0.37197525  0.86292734  0.61560138  1
  O  O384  1  0.87977080  0.36404066  0.12771325  1
  O  O385  1  0.85208084  0.35001828  0.65393711  1
  O  O386  1  0.87333745  0.87023035  0.12699698  1
  O  O387  1  0.86384081  0.88388665  0.61753311  1
  O  O388  1  0.13884105  0.12459517  0.38315932  1
  O  O389  1  0.12704198  0.15036640  0.88846360  1
  O  O390  1  0.12661273  0.63480371  0.39231981  1
  O  O391  1  0.12318872  0.60773001  0.88510381  1
  O  O392  1  0.62696731  0.13342407  0.37894019  1
  O  O393  1  0.63054983  0.14787938  0.88895368  1
  O  O394  1  0.64126769  0.62500054  0.38074178  1
  O  O395  1  0.61783045  0.63661946  0.88667356  1
