# generated using pymatgen
data_V35Zn35O128
_symmetry_space_group_name_H-M   'P 1'
_cell_length_a   16.88759147
_cell_length_b   16.90951057
_cell_length_c   16.91919781
_cell_angle_alpha   89.67339502
_cell_angle_beta   89.80843494
_cell_angle_gamma   89.88587303
_symmetry_Int_Tables_number   1
_chemical_formula_structural   V35Zn35O128
_chemical_formula_sum   'V70 Zn70 O256'
_cell_volume   4831.34655931
_cell_formula_units_Z   2
loop_
 _symmetry_equiv_pos_site_id
 _symmetry_equiv_pos_as_xyz
  1  'x, y, z'
loop_
 _atom_site_type_symbol
 _atom_site_label
 _atom_site_symmetry_multiplicity
 _atom_site_fract_x
 _atom_site_fract_y
 _atom_site_fract_z
 _atom_site_occupancy
  V  V0  1  0.00164953  0.76194785  0.74578783  1
  V  V1  1  0.87248134  0.38439089  -0.02172589  1
  V  V2  1  0.49987149  -0.00440018  -0.00734060  1
  V  V3  1  0.49420765  0.50190381  -0.00640149  1
  V  V4  1  0.85949091  0.63252610  0.25963610  1
  V  V5  1  0.49354010  0.73646224  0.74492574  1
  V  V6  1  0.00950744  0.87488003  0.88976268  1
  V  V7  1  -0.02031114  0.47261317  0.49073901  1
  V  V8  1  0.13373491  0.00698567  0.14030731  1
  V  V9  1  0.87492210  0.87880655  0.50114393  1
  V  V10  1  0.74622434  0.88727733  0.63004428  1
  V  V11  1  0.86016532  -0.01139150  0.87479736  1
  V  V12  1  0.00995695  0.86366956  0.37138872  1
  V  V13  1  0.88936191  0.74545413  0.11715333  1
  V  V14  1  0.63089656  0.36943431  0.24682649  1
  V  V15  1  0.76196760  0.61908889  0.88134649  1
  V  V16  1  -0.02201462  0.26096592  0.25146224  1
  V  V17  1  0.75659758  0.38359316  0.11571392  1
  V  V18  1  0.51512001  -0.00080232  0.51011763  1
  V  V19  1  -0.00211743  0.12909854  0.12852665  1
  V  V20  1  0.24222728  0.86879862  0.62032731  1
  V  V21  1  0.48412417  0.87200972  0.87384544  1
  V  V22  1  0.51412686  0.38521689  0.38460083  1
  V  V23  1  0.48154778  0.62762283  0.59651079  1
  V  V24  1  0.00392562  0.49640400  -0.00635131  1
  V  V25  1  0.63059976  0.73636535  0.37184296  1
  V  V26  1  0.63582031  0.75057363  0.87584398  1
  V  V27  1  0.50574119  0.87356336  0.37251148  1
  V  V28  1  0.36916654  0.12702371  0.75407310  1
  V  V29  1  0.24874931  0.51178864  0.72917214  1
  V  V30  1  0.85387283  0.24132414  0.11150498  1
  V  V31  1  0.12778844  0.74447996  0.87076349  1
  V  V32  1  -0.00309837  0.01714867  0.50652693  1
  V  V33  1  0.13094120  0.61880436  0.00718926  1
  V  V34  1  0.51567028  0.11758469  0.63038541  1
  V  V35  1  0.87040952  0.00764163  0.36544830  1
  V  V36  1  0.63360230  0.88071003  0.24779491  1
  V  V37  1  0.62271456  0.50800937  0.12901298  1
  V  V38  1  0.22933988  0.38866969  0.61632214  1
  V  V39  1  0.15198165  0.23290192  0.33742135  1
  V  V40  1  0.38051788  0.86616388  0.51313912  1
  V  V41  1  0.88386054  0.13222141  0.74682413  1
  V  V42  1  0.62222043  0.37092806  0.75157095  1
  V  V43  1  0.48082171  0.26324394  0.25810065  1
  V  V44  1  0.43466476  0.69470191  0.20139364  1
  V  V45  1  0.38932224  0.38586257  0.51089757  1
  V  V46  1  0.24921117  0.24597582  0.50867931  1
  V  V47  1  0.48211142  0.09859742  0.17805434  1
  V  V48  1  0.86175125  0.48305024  0.35725847  1
  V  V49  1  0.62911214  0.51519963  0.61786396  1
  V  V50  1  0.73575950  0.20965975  0.46761368  1
  V  V51  1  0.75424580  0.86537803  0.11145217  1
  V  V52  1  0.12097407  0.36433784  0.21700010  1
  V  V53  1  0.39719419  0.24945159  0.62731409  1
  V  V54  1  0.36522032  0.49832356  0.35564283  1
  V  V55  1  0.88420435  0.61530463  0.75016116  1
  V  V56  1  0.24433208  0.00610825  0.75064183  1
  V  V57  1  0.87292119  0.74716808  0.62998346  1
  V  V58  1  0.62833275  0.62939700  -0.00031929  1
  V  V59  1  0.76054262  0.36599415  0.61826551  1
  V  V60  1  0.25938586  0.76334464  -0.00660094  1
  V  V61  1  0.37177856  0.26534829  0.10813835  1
  V  V62  1  0.73562223  0.13296222  0.87407829  1
  V  V63  1  0.21399619  0.66081244  0.37528270  1
  V  V64  1  0.74648684  0.73668059  0.50000784  1
  V  V65  1  0.26821427  0.62053555  0.85951829  1
  V  V66  1  0.48532235  0.37633851  0.87415401  1
  V  V67  1  0.62851130  0.88414940  0.74871541  1
  V  V68  1  0.12365828  0.02177233  0.61863157  1
  V  V69  1  0.01126078  0.00647518  -0.00171765  1
  Zn  Zn70  1  0.11642635  0.57615595  0.51312318  1
  Zn  Zn71  1  0.27870158  0.11844937  0.36179219  1
  Zn  Zn72  1  0.76082801  -0.00644384  0.24330805  1
  Zn  Zn73  1  0.21901802  0.83191447  0.17694617  1
  Zn  Zn74  1  0.62296782  0.25956607  0.89804377  1
  Zn  Zn75  1  0.75462368  0.49814385  0.75002824  1
  Zn  Zn76  1  0.20705665  0.16511528  0.16495997  1
  Zn  Zn77  1  0.19022670  0.19690190  0.67660126  1
  Zn  Zn78  1  0.23223959  0.65962362  0.18817774  1
  Zn  Zn79  1  0.18358202  0.68735721  0.68317410  1
  Zn  Zn80  1  0.63031357  0.12374922  0.03142114  1
  Zn  Zn81  1  0.69515429  0.18678595  0.69888428  1
  Zn  Zn82  1  0.69291245  0.69161444  0.18774473  1
  Zn  Zn83  1  0.69273162  0.69081641  0.69552673  1
  Zn  Zn84  1  0.30099032  0.33601929  0.32633515  1
  Zn  Zn85  1  0.31523837  0.33019416  0.79031509  1
  Zn  Zn86  1  0.32584628  0.81088577  0.31398403  1
  Zn  Zn87  1  0.30659110  0.81287160  0.79577838  1
  Zn  Zn88  1  0.80062033  0.29778522  0.30405094  1
  Zn  Zn89  1  0.80528983  0.30791635  0.80438257  1
  Zn  Zn90  1  0.81820062  0.81013388  0.31429976  1
  Zn  Zn91  1  0.81589709  0.81361158  0.81659062  1
  Zn  Zn92  1  0.15152488  0.45514204  0.36102334  1
  Zn  Zn93  1  0.19201339  0.45143753  0.92270276  1
  Zn  Zn94  1  0.18651184  0.93944188  0.43690847  1
  Zn  Zn95  1  0.22168681  0.97265666  0.96221119  1
  Zn  Zn96  1  0.69568674  0.44643342  0.44024198  1
  Zn  Zn97  1  0.68468604  0.44328718  0.93604000  1
  Zn  Zn98  1  0.68960479  0.94042924  0.43582293  1
  Zn  Zn99  1  0.67610331  0.93706089  0.94266696  1
  Zn  Zn100  1  0.33741302  0.05672990  0.07867800  1
  Zn  Zn101  1  0.30419571  0.04113634  0.52546074  1
  Zn  Zn102  1  0.34143993  0.61844244  0.04460060  1
  Zn  Zn103  1  0.30734589  0.57297909  0.53451807  1
  Zn  Zn104  1  0.80900890  0.04568138  0.05238378  1
  Zn  Zn105  1  0.80700396  0.07324461  0.56266444  1
  Zn  Zn106  1  0.82137216  0.56380195  0.06882605  1
  Zn  Zn107  1  0.81768941  0.55137746  0.56232518  1
  Zn  Zn108  1  0.43934423  0.44070417  0.18103843  1
  Zn  Zn109  1  0.44519580  0.45450795  0.68978894  1
  Zn  Zn110  1  0.42811787  0.89498571  0.17322839  1
  Zn  Zn111  1  0.43357029  0.93933308  0.69110017  1
  Zn  Zn112  1  0.99821034  0.51192670  0.20953921  1
  Zn  Zn113  1  0.95241520  0.42910646  0.67343981  1
  Zn  Zn114  1  0.94400572  0.92403514  0.18488299  1
  Zn  Zn115  1  0.93646845  0.94384047  0.69103903  1
  Zn  Zn116  1  0.04571595  0.06997158  0.31848490  1
  Zn  Zn117  1  0.06652652  0.06678091  0.80992804  1
  Zn  Zn118  1  0.02276869  0.59452508  0.35872638  1
  Zn  Zn119  1  0.06574985  0.55923439  0.80825108  1
  Zn  Zn120  1  0.44333704  0.04474799  0.33512217  1
  Zn  Zn121  1  0.55458739  0.06087977  0.81236789  1
  Zn  Zn122  1  0.55590407  0.56416767  0.30726371  1
  Zn  Zn123  1  0.56951786  0.55798350  0.81158860  1
  Zn  Zn124  1  0.45124914  0.19433678  0.44514016  1
  Zn  Zn125  1  0.44206045  0.19144861  0.93367126  1
  Zn  Zn126  1  0.43058351  0.69006669  0.41478046  1
  Zn  Zn127  1  0.44644065  0.68606870  0.92589332  1
  Zn  Zn128  1  0.91724662  0.19782910  0.44224108  1
  Zn  Zn129  1  0.90458919  0.17001511  0.95464027  1
  Zn  Zn130  1  0.93264614  0.68305763  0.44978079  1
  Zn  Zn131  1  0.94661027  0.68353417  0.93932910  1
  Zn  Zn132  1  0.04492694  0.30639128  0.04714777  1
  Zn  Zn133  1  0.09025572  0.34886729  0.48521384  1
  Zn  Zn134  1  0.05658381  0.71363023  0.21848004  1
  Zn  Zn135  1  0.06203040  0.81830631  0.55969398  1
  Zn  Zn136  1  0.55499956  0.31175552  0.06623528  1
  Zn  Zn137  1  0.58261937  0.31108976  0.56436995  1
  Zn  Zn138  1  0.55616766  0.80843021  0.06664942  1
  Zn  Zn139  1  0.56568321  0.80527585  0.56393085  1
  O  O140  1  0.09935488  0.13092094  0.12020378  1
  O  O141  1  0.12335529  0.12055109  0.61909203  1
  O  O142  1  0.15432718  0.61677259  0.10359607  1
  O  O143  1  0.11526685  0.66411023  0.59190385  1
  O  O144  1  0.56839660  0.09678513  0.12727653  1
  O  O145  1  0.61300353  0.12538074  0.64562622  1
  O  O146  1  0.63797797  0.61527252  0.11500413  1
  O  O147  1  0.63740258  0.61650365  0.62865361  1
  O  O148  1  0.39293981  0.38524620  0.39311082  1
  O  O149  1  0.38573954  0.38030338  0.86553850  1
  O  O150  1  0.40135562  0.87485372  0.38284326  1
  O  O151  1  0.38618226  0.86569249  0.86510134  1
  O  O152  1  0.85767873  0.38352297  0.35080999  1
  O  O153  1  0.86148847  0.37553810  0.88100185  1
  O  O154  1  0.88129787  0.88230904  0.38754330  1
  O  O155  1  0.88873248  0.88318412  0.87255917  1
  O  O156  1  0.24575525  0.03154382  0.42602948  1
  O  O157  1  0.22680142  0.00022009  0.84702351  1
  O  O158  1  0.26883974  0.45711359  0.36298417  1
  O  O159  1  0.25080297  0.51348578  0.84932017  1
  O  O160  1  0.76590666  -0.00672046  0.36845450  1
  O  O161  1  0.75874322  -0.01208213  0.87711967  1
  O  O162  1  0.76236584  0.50679495  0.37298393  1
  O  O163  1  0.75017126  0.51663854  0.87017950  1
  O  O164  1  0.25452284  0.44976712  0.08283729  1
  O  O165  1  0.24545851  0.49919680  0.61521367  1
  O  O166  1  0.22997366  1.05171155  0.13347060  1
  O  O167  1  0.23385594  1.00047889  0.61953464  1
  O  O168  1  0.73892747  0.48994990  0.11806781  1
  O  O169  1  0.74357506  0.49193974  0.62994323  1
  O  O170  1  0.76203440  0.97627866  0.12869794  1
  O  O171  1  0.75068523  0.98453418  0.62479150  1
  O  O172  1  -0.00209349  0.35892914  0.23256315  1
  O  O173  1  0.01793274  0.35662634  0.74429840  1
  O  O174  1  0.00487045  0.87445007  0.27024178  1
  O  O175  1  -0.00356644  0.86492467  0.76019691  1
  O  O176  1  0.50768479  0.37637841  0.25991210  1
  O  O177  1  0.51093201  0.39256688  0.76490287  1
  O  O178  1  0.51558453  0.87222341  0.26796962  1
  O  O179  1  0.51104938  0.86716420  0.75407730  1
  O  O180  1  0.50099662  0.15543831  0.26520332  1
  O  O181  1  0.48373952  0.11355300  0.73841991  1
  O  O182  1  0.50720858  0.62797668  0.22146443  1
  O  O183  1  0.50181223  0.63713763  0.76108942  1
  O  O184  1  0.98436135  0.13338571  0.23164688  1
  O  O185  1  0.98527333  0.12594299  0.76028551  1
  O  O186  1  0.99684753  0.62149493  0.25023064  1
  O  O187  1  0.98669711  0.64108526  0.75893457  1
  O  O188  1  0.39023381  0.25623013  0.01001385  1
  O  O189  1  0.38052064  0.26136552  0.51568895  1
  O  O190  1  0.36104526  0.72717669  -0.00977941  1
  O  O191  1  0.38571497  0.76782599  0.49341776  1
  O  O192  1  0.88150112  0.26963787  0.00501654  1
  O  O193  1  0.83070809  0.23468499  0.50266454  1
  O  O194  1  0.88383381  0.73743497  0.01622956  1
  O  O195  1  0.86732190  0.75856027  0.51231112  1
  O  O196  1  0.14882446  0.25290466  0.51616165  1
  O  O197  1  0.11438484  0.23506536  0.97762468  1
  O  O198  1  0.12436405  0.72475294  0.53470850  1
  O  O199  1  0.14536459  0.73205228  0.98302520  1
  O  O200  1  0.64437414  0.24979612  0.49599566  1
  O  O201  1  0.59984073  0.23002808  1.00515262  1
  O  O202  1  0.64247698  0.74962461  0.49777254  1
  O  O203  1  0.61618607  0.74039114  0.98921659  1
  O  O204  1  0.48677453  0.26067765  0.14908939  1
  O  O205  1  0.50274022  0.23762096  0.62014023  1
  O  O206  1  0.47218091  0.77510347  0.14151252  1
  O  O207  1  0.51213969  0.72939890  0.63501496  1
  O  O208  1  0.98208241  0.23814899  0.12048015  1
  O  O209  1  1.04952676  0.29484475  0.70443203  1
  O  O210  1  0.98773181  0.75622483  0.13556859  1
  O  O211  1  0.98740316  0.76334240  0.63908173  1
  O  O212  1  -0.03669800  0.25088233  0.34967562  1
  O  O213  1  0.08204099  0.20189006  0.91324432  1
  O  O214  1  -0.01133921  0.76695570  0.38975756  1
  O  O215  1  0.00344265  0.75901717  0.86939450  1
  O  O216  1  0.50162263  0.27402182  0.36968355  1
  O  O217  1  0.50304938  0.27338475  0.87602739  1
  O  O218  1  0.52546032  0.76561700  0.39433493  1
  O  O219  1  0.51153181  0.75854536  0.86302388  1
  O  O220  1  0.26734888  0.15029903  0.52850798  1
  O  O221  1  0.31895491  0.02354252  0.97815984  1
  O  O222  1  0.22238443  0.60459205  0.46887660  1
  O  O223  1  0.24530452  0.61713574  0.97209495  1
  O  O224  1  0.73067321  0.10816526  0.48870267  1
  O  O225  1  0.73776110  0.10642094  0.98303823  1
  O  O226  1  0.76171218  0.63948316  0.50755062  1
  O  O227  1  0.74691210  0.61984763  0.98778061  1
  O  O228  1  0.26243923  0.41205715  0.02027945  1
  O  O229  1  0.27698438  0.37028919  0.51512189  1
  O  O230  1  0.25314417  0.86049989  -0.02544799  1
  O  O231  1  0.26822546  0.88221938  0.51166852  1
  O  O232  1  0.75838814  0.38296261  0.00396606  1
  O  O233  1  0.74595012  0.37909570  0.51839051  1
  O  O234  1  0.74026360  0.87211831  0.01266102  1
  O  O235  1  0.75807716  0.87026956  0.51408474  1
  O  O236  1  0.10594411  0.46363741  0.25176598  1
  O  O237  1  0.14185081  0.51776548  0.73594652  1
  O  O238  1  0.11038326  1.01828602  0.23827113  1
  O  O239  1  0.13170413  1.01039399  0.72992221  1
  O  O240  1  0.61869569  0.49625374  0.23215930  1
  O  O241  1  0.63125582  0.49512250  0.74058675  1
  O  O242  1  0.63300059  0.97896464  0.24870277  1
  O  O243  1  0.62135807  0.98194045  0.75392316  1
  O  O244  1  0.28533102  0.00394607  0.27358824  1
  O  O245  1  0.35917441  0.01603833  0.74230682  1
  O  O246  1  0.38113135  0.50252909  0.25681648  1
  O  O247  1  0.35229235  0.50319177  0.73091952  1
  O  O248  1  0.88240895  -0.00768301  0.26259784  1
  O  O249  1  0.88332899  0.00606542  0.77164272  1
  O  O250  1  0.88028416  0.51691827  0.25392213  1
  O  O251  1  0.88773748  0.51463092  0.74248606  1
  O  O252  1  0.12261864  0.33045725  0.37138478  1
  O  O253  1  0.17133251  0.34428301  0.87809054  1
  O  O254  1  0.10888028  0.87210070  0.39667661  1
  O  O255  1  0.11254929  0.85759880  0.87678004  1
  O  O256  1  0.62092063  0.39279752  0.36030905  1
  O  O257  1  0.62414014  0.37787518  0.86511402  1
  O  O258  1  0.62776300  0.86737239  0.36739775  1
  O  O259  1  0.62593275  0.86645169  0.86262996  1
  O  O260  1  0.39662182  0.13903938  0.13138556  1
  O  O261  1  0.39013673  0.14278651  0.63096444  1
  O  O262  1  0.35194312  0.64585303  0.15520383  1
  O  O263  1  0.38163425  0.62668733  0.60369543  1
  O  O264  1  0.86996945  0.13684470  0.10283119  1
  O  O265  1  0.86641630  0.11313086  0.64835694  1
  O  O266  1  0.87158783  0.63621736  0.13898981  1
  O  O267  1  0.87027937  0.63652661  0.63958647  1
  O  O268  1  0.27321000  0.24098834  0.11737873  1
  O  O269  1  0.26330636  0.27411701  0.62436610  1
  O  O270  1  0.24941539  0.75369607  0.09264208  1
  O  O271  1  0.24839832  0.77087982  0.63692966  1
  O  O272  1  0.75448634  0.26129805  0.11113064  1
  O  O273  1  0.73990324  0.26693995  0.63328263  1
  O  O274  1  0.76076226  0.75889382  0.12482795  1
  O  O275  1  0.75764239  0.75744988  0.61915419  1
  O  O276  1  0.25480721  0.25065370  0.39854816  1
  O  O277  1  0.23082069  0.29543994  0.87296988  1
  O  O278  1  0.25596954  0.75427155  0.38109357  1
  O  O279  1  0.24568231  0.73943067  0.86337656  1
  O  O280  1  0.74330284  0.22625031  0.36572879  1
  O  O281  1  0.74125408  0.23631520  0.87869415  1
  O  O282  1  0.74453074  0.75376618  0.39213581  1
  O  O283  1  0.74305094  0.74095462  0.87104589  1
  O  O284  1  -0.00769921  0.11193262  0.00552837  1
  O  O285  1  -0.01662957  0.11486874  0.50066015  1
  O  O286  1  0.02474774  0.62262345  -0.00102041  1
  O  O287  1  0.00642426  0.60081300  0.47692143  1
  O  O288  1  0.48097143  0.09362211  -0.02163492  1
  O  O289  1  0.50672304  0.11044478  0.51596256  1
  O  O290  1  0.51774524  0.61676981  -0.01079733  1
  O  O291  1  0.50014758  0.63461951  0.50017244  1
  O  O292  1  0.50544795  0.37302411  0.49081478  1
  O  O293  1  0.50378850  0.39144178  0.98763854  1
  O  O294  1  0.49899324  0.87858846  0.50619086  1
  O  O295  1  0.50413492  0.87086369  0.97802255  1
  O  O296  1  0.97786459  0.37004167  0.49427034  1
  O  O297  1  0.98698277  0.38546301  0.98643624  1
  O  O298  1  0.98531464  0.88353954  0.50261879  1
  O  O299  1  1.00077461  0.88734002  0.98971522  1
  O  O300  1  0.49110661  0.48911075  0.36958724  1
  O  O301  1  0.50468490  0.49602128  0.88657520  1
  O  O302  1  0.51774921  0.98212666  0.39540635  1
  O  O303  1  0.49747737  0.97975655  0.87725546  1
  O  O304  1  0.97518142  0.48774453  0.37431014  1
  O  O305  1  1.00025267  0.51375863  0.88950099  1
  O  O306  1  0.99168065  0.99166355  0.39068871  1
  O  O307  1  1.01373916  0.98948202  0.88398345  1
  O  O308  1  0.00171125  0.00706980  0.11539092  1
  O  O309  1  0.00826930  -0.00266348  0.61669989  1
  O  O310  1  0.00205016  0.50159315  0.09620868  1
  O  O311  1  -0.00619886  0.49542406  0.59162778  1
  O  O312  1  0.44998551  0.01059071  0.22569723  1
  O  O313  1  0.50149105  0.00787922  0.62321694  1
  O  O314  1  0.51716750  0.49489588  0.11020552  1
  O  O315  1  0.51302089  0.52700209  0.62936086  1
  O  O316  1  0.21747382  0.34562570  0.24497049  1
  O  O317  1  0.24473343  0.39298853  0.72423889  1
  O  O318  1  0.24508724  0.94527870  0.29197881  1
  O  O319  1  0.25877530  0.89659700  0.72993203  1
  O  O320  1  0.73708874  0.36988654  0.23065445  1
  O  O321  1  0.73699121  0.37979160  0.74583948  1
  O  O322  1  0.74330501  0.87004820  0.24670464  1
  O  O323  1  0.74144912  0.86876940  0.74076266  1
  O  O324  1  0.22112695  0.17244976  0.27824336  1
  O  O325  1  0.25823377  0.12154836  0.73733247  1
  O  O326  1  0.24474760  0.61017579  0.29239194  1
  O  O327  1  0.25329328  0.62543320  0.74834067  1
  O  O328  1  0.72810335  0.11744702  0.23300821  1
  O  O329  1  0.75630821  0.11942073  0.76901191  1
  O  O330  1  0.75902650  0.62553167  0.25427012  1
  O  O331  1  0.76719137  0.62593528  0.76158636  1
  O  O332  1  0.38782611  0.12393069  0.38570725  1
  O  O333  1  0.37496948  0.14301444  0.85124798  1
  O  O334  1  0.36920065  0.59167255  0.39746934  1
  O  O335  1  0.36658470  0.62480916  0.86474972  1
  O  O336  1  0.88079724  0.10566403  0.37452928  1
  O  O337  1  0.85762279  0.11193691  0.87185443  1
  O  O338  1  0.87650627  0.62736973  0.36304402  1
  O  O339  1  0.86781502  0.63218423  0.86762923  1
  O  O340  1  0.11856804  0.36020543  0.11672940  1
  O  O341  1  0.13346388  0.38057121  0.60398965  1
  O  O342  1  0.15198760  0.90976902  0.12931408  1
  O  O343  1  0.13859573  0.88510386  0.61375250  1
  O  O344  1  0.62995404  0.38578869  0.12858054  1
  O  O345  1  0.62352867  0.38882754  0.63909279  1
  O  O346  1  0.63538191  0.85693851  0.13978535  1
  O  O347  1  0.63608198  0.86657312  0.63796893  1
  O  O348  1  0.09413086  0.25109266  0.24310369  1
  O  O349  1  0.10912959  0.26040841  0.74394812  1
  O  O350  1  0.16233783  0.74633160  0.22542960  1
  O  O351  1  0.10666548  0.74384613  0.75306965  1
  O  O352  1  0.61212478  0.27334358  0.24592307  1
  O  O353  1  0.62200049  0.26991674  0.75115712  1
  O  O354  1  0.63431680  0.75345700  0.26825514  1
  O  O355  1  0.61901567  0.75537971  0.75985120  1
  O  O356  1  0.38074377  0.27106593  0.26145712  1
  O  O357  1  0.37175659  0.24627038  0.73382501  1
  O  O358  1  0.40583862  0.72303523  0.29533475  1
  O  O359  1  0.39544650  0.75437260  0.74713690  1
  O  O360  1  0.87086419  0.25334677  0.22019087  1
  O  O361  1  0.87347399  0.23288659  0.75907952  1
  O  O362  1  0.87493431  0.73865515  0.24575413  1
  O  O363  1  0.88302289  0.74716264  0.74607673  1
  O  O364  1  0.38367091  0.48432173  0.51365212  1
  O  O365  1  0.39729873  0.52219838  1.01172755  1
  O  O366  1  0.39956090  0.98151141  0.50306012  1
  O  O367  1  0.44545095  0.97127227  1.08024530  1
  O  O368  1  0.87420201  0.49693767  0.47964854  1
  O  O369  1  0.88181579  0.49140848  0.99686823  1
  O  O370  1  0.87952759  0.99419377  0.49811746  1
  O  O371  1  0.89128055  1.00022215  0.97955035  1
  O  O372  1  0.11507920  0.00420451  0.01023172  1
  O  O373  1  0.10447089  0.00489923  0.50783112  1
  O  O374  1  0.11959437  0.50729921  -0.01167256  1
  O  O375  1  0.10098796  0.47141737  0.46424834  1
  O  O376  1  0.60279318  -0.00117737  0.00584124  1
  O  O377  1  0.61474389  -0.01697244  0.51163011  1
  O  O378  1  0.62048890  0.51084764  0.00694852  1
  O  O379  1  0.62867203  0.49944094  0.51880160  1
  O  O380  1  0.37663130  0.36603884  0.12534874  1
  O  O381  1  0.40468864  0.36614024  0.61913518  1
  O  O382  1  0.32640797  0.85642393  0.21014184  1
  O  O383  1  0.37166162  0.87352693  0.61847972  1
  O  O384  1  0.85811081  0.37127582  0.11323999  1
  O  O385  1  0.85889905  0.37595846  0.63801973  1
  O  O386  1  0.86607912  0.85894780  0.12811393  1
  O  O387  1  0.86376293  0.87030836  0.62551545  1
  O  O388  1  0.09718311  0.15945342  0.37824392  1
  O  O389  1  0.12769215  0.14371879  0.88261131  1
  O  O390  1  0.11335188  0.66683582  0.36638855  1
  O  O391  1  0.13279868  0.63468417  0.87184853  1
  O  O392  1  0.66828029  0.13326231  0.27238381  1
  O  O393  1  0.63140541  0.12315083  0.86694784  1
  O  O394  1  0.61661509  0.63757296  0.37181719  1
  O  O395  1  0.63983195  0.63180107  0.87995314  1
