# generated using pymatgen
data_V35Zn35O128
_symmetry_space_group_name_H-M   'P 1'
_cell_length_a   16.92679815
_cell_length_b   16.91300483
_cell_length_c   16.91198883
_cell_angle_alpha   89.71191200
_cell_angle_beta   90.04461540
_cell_angle_gamma   90.16246969
_symmetry_Int_Tables_number   1
_chemical_formula_structural   V35Zn35O128
_chemical_formula_sum   'V70 Zn70 O256'
_cell_volume   4841.53313608
_cell_formula_units_Z   2
loop_
 _symmetry_equiv_pos_site_id
 _symmetry_equiv_pos_as_xyz
  1  'x, y, z'
loop_
 _atom_site_type_symbol
 _atom_site_label
 _atom_site_symmetry_multiplicity
 _atom_site_fract_x
 _atom_site_fract_y
 _atom_site_fract_z
 _atom_site_occupancy
  V  V0  1  0.62414172  0.25769348  0.87832993  1
  V  V1  1  0.87297955  0.86903915  -0.00034984  1
  V  V2  1  0.75627918  0.00602263  0.27048074  1
  V  V3  1  0.24255990  0.13628913  0.38718842  1
  V  V4  1  0.62557237  0.88057757  0.24998372  1
  V  V5  1  0.00636744  -0.00846310  0.01556955  1
  V  V6  1  0.49215180  0.00253437  0.50587080  1
  V  V7  1  0.37510713  0.11217122  0.26274796  1
  V  V8  1  0.87371812  0.13346731  0.25491370  1
  V  V9  1  0.62807789  0.37311549  0.23739494  1
  V  V10  1  0.11887208  0.37436063  0.76334684  1
  V  V11  1  0.88332400  0.62600503  0.74546230  1
  V  V12  1  0.48388748  0.12649632  0.63547833  1
  V  V13  1  0.24550580  0.35113843  0.12671329  1
  V  V14  1  0.37373822  0.49978553  0.88500566  1
  V  V15  1  0.10710626  0.62248103  0.50461222  1
  V  V16  1  0.25097269  -0.00671651  0.76227190  1
  V  V17  1  0.87649544  0.74677772  0.60934786  1
  V  V18  1  0.49367904  0.51443635  0.47356215  1
  V  V19  1  0.74470667  0.74012047  -0.00041551  1
  V  V20  1  0.87586506  -0.00360781  0.87187758  1
  V  V21  1  0.14035741  0.13616298  -0.00689884  1
  V  V22  1  0.24441672  0.62451788  0.89242926  1
  V  V23  1  0.23104069  -0.00475554  0.24739913  1
  V  V24  1  0.64085261  0.75282524  0.38198062  1
  V  V25  1  0.63928195  0.63070375  0.50280824  1
  V  V26  1  0.49837315  0.75435040  0.75371968  1
  V  V27  1  0.62405104  0.87554799  0.74836273  1
  V  V28  1  0.25699853  0.61457541  0.36600104  1
  V  V29  1  -0.00412542  0.62520370  0.13196656  1
  V  V30  1  0.37192908  0.75077362  0.62208058  1
  V  V31  1  0.37859139  0.36542343  0.50065652  1
  V  V32  1  0.36908123  0.62726380  0.75090010  1
  V  V33  1  0.66925656  0.05446977  0.58126839  1
  V  V34  1  0.87341777  0.48932765  0.87391709  1
  V  V35  1  0.00912767  0.25477605  0.27281380  1
  V  V36  1  0.00344776  0.86571143  0.86189684  1
  V  V37  1  0.87448763  0.74350395  0.13818563  1
  V  V38  1  0.75095465  0.86553158  0.61562300  1
  V  V39  1  0.24672922  0.74796021  0.49623417  1
  V  V40  1  0.38703953  0.24491787  0.14021383  1
  V  V41  1  0.49481042  0.87297078  0.37196657  1
  V  V42  1  0.37006136  0.87648050  0.49603370  1
  V  V43  1  0.87881442  0.25227911  0.61928644  1
  V  V44  1  0.50060447  0.52238920  0.01021898  1
  V  V45  1  0.86406059  0.12590399  0.75705205  1
  V  V46  1  0.11640635  0.75853572  0.36005773  1
  V  V47  1  0.24977411  0.49800878  0.73564991  1
  V  V48  1  0.10130858  0.49735050  0.62375839  1
  V  V49  1  0.88764590  0.38800728  0.48782582  1
  V  V50  1  0.11303702  0.13544634  0.51186696  1
  V  V51  1  0.12734690  0.74099556  0.87771272  1
  V  V52  1  0.39003666  0.75774543  0.14453831  1
  V  V53  1  0.51107806  0.35613425  0.37262618  1
  V  V54  1  0.51270636  0.11039815  0.13188104  1
  V  V55  1  0.76256805  0.50847263  0.25237898  1
  V  V56  1  0.62275566  0.74794083  0.87668526  1
  V  V57  1  0.74802394  0.62002675  0.86510571  1
  V  V58  1  0.74225435  0.38179528  0.62441077  1
  V  V59  1  0.50074761  0.62221155  0.61973393  1
  V  V60  1  0.74686789  -0.00341649  0.75865634  1
  V  V61  1  0.00174770  0.14279992  0.12268209  1
  V  V62  1  -0.00678228  0.49493057  -0.00395350  1
  V  V63  1  0.74681707  0.88736208  0.12253431  1
  V  V64  1  -0.01168787  0.88665548  0.37424296  1
  V  V65  1  0.00580639  0.24117091  0.76689703  1
  V  V66  1  0.11298216  -0.00799081  0.62345880  1
  V  V67  1  0.37662823  0.36311668  0.00213369  1
  V  V68  1  0.77215279  0.36993063  0.11628420  1
  V  V69  1  0.13468602  0.51264419  0.11627241  1
  Zn  Zn70  1  0.12626445  0.37116782  0.24839463  1
  Zn  Zn71  1  0.00757470  0.75144514  0.73379399  1
  Zn  Zn72  1  0.38233915  0.09571363  0.79103709  1
  Zn  Zn73  1  0.48875596  0.00668001  -0.02213800  1
  Zn  Zn74  1  0.38518407  0.87312495  0.00499845  1
  Zn  Zn75  1  0.23646191  0.86653255  0.63983492  1
  Zn  Zn76  1  0.18318288  0.17487197  0.18940899  1
  Zn  Zn77  1  0.18092297  0.16825890  0.70622153  1
  Zn  Zn78  1  0.19194376  0.68676758  0.18420739  1
  Zn  Zn79  1  0.18073480  0.68606737  0.68789451  1
  Zn  Zn80  1  0.69089829  0.19710857  0.19123855  1
  Zn  Zn81  1  0.71281706  0.24644548  0.53448842  1
  Zn  Zn82  1  0.69515431  0.69840686  0.19999025  1
  Zn  Zn83  1  0.68777393  0.68631310  0.68645415  1
  Zn  Zn84  1  0.31685217  0.31904069  0.31585825  1
  Zn  Zn85  1  0.28258281  0.32872504  0.83007832  1
  Zn  Zn86  1  0.30326590  0.81100636  0.30697292  1
  Zn  Zn87  1  0.31038420  0.82087759  0.82308248  1
  Zn  Zn88  1  0.84142872  0.34011775  0.28599130  1
  Zn  Zn89  1  0.80403761  0.31468950  0.79883116  1
  Zn  Zn90  1  0.81516070  0.81877801  0.31724184  1
  Zn  Zn91  1  0.81372675  0.80872530  0.80702218  1
  Zn  Zn92  1  0.19645393  0.43938704  0.45573432  1
  Zn  Zn93  1  0.19133057  0.44223936  0.94822862  1
  Zn  Zn94  1  0.18323969  0.94805682  0.43251376  1
  Zn  Zn95  1  0.17772700  0.93533265  0.93851666  1
  Zn  Zn96  1  0.71674873  0.40790342  0.42429967  1
  Zn  Zn97  1  0.68626206  0.44719328  0.95262558  1
  Zn  Zn98  1  0.68415750  0.94126065  0.43633082  1
  Zn  Zn99  1  0.67710893  0.93547650  0.93853217  1
  Zn  Zn100  1  0.31457718  0.05324345  0.06513533  1
  Zn  Zn101  1  0.29941095  0.05840014  0.57197860  1
  Zn  Zn102  1  0.34574031  0.54619464  0.10733192  1
  Zn  Zn103  1  0.31489617  0.56333109  0.55204949  1
  Zn  Zn104  1  0.82937424  0.05991091  0.06814881  1
  Zn  Zn105  1  0.83124794  0.08224601  0.57110345  1
  Zn  Zn106  1  0.81010869  0.55538319  0.06485217  1
  Zn  Zn107  1  0.81640203  0.55672555  0.55976891  1
  Zn  Zn108  1  0.45901856  0.46244074  0.21227475  1
  Zn  Zn109  1  0.43006294  0.45056974  0.68110547  1
  Zn  Zn110  1  0.42992970  0.93752866  0.18780179  1
  Zn  Zn111  1  0.43112542  0.93683574  0.68756944  1
  Zn  Zn112  1  0.94380289  0.44068273  0.18991390  1
  Zn  Zn113  1  0.93154388  0.43198422  0.69191584  1
  Zn  Zn114  1  0.93737546  0.93102383  0.19909819  1
  Zn  Zn115  1  0.93448390  0.93295807  0.56185485  1
  Zn  Zn116  1  0.06892948  0.07002617  0.31765172  1
  Zn  Zn117  1  0.06716896  0.05100205  0.81368605  1
  Zn  Zn118  1  0.09643004  0.56831773  0.29745732  1
  Zn  Zn119  1  0.06067659  0.56053461  0.81240366  1
  Zn  Zn120  1  0.56049556  0.05889119  0.31399048  1
  Zn  Zn121  1  0.55937458  0.05897131  0.82901131  1
  Zn  Zn122  1  0.62192412  0.53429237  0.34880142  1
  Zn  Zn123  1  0.55128316  0.57206039  0.82442637  1
  Zn  Zn124  1  0.43831318  0.18610372  0.43920507  1
  Zn  Zn125  1  0.43720947  0.17700549  0.94340578  1
  Zn  Zn126  1  0.43631601  0.69261343  0.42228063  1
  Zn  Zn127  1  0.42423665  0.70798830  0.94266055  1
  Zn  Zn128  1  0.93894343  0.06224211  0.43912907  1
  Zn  Zn129  1  0.95508916  0.17808712  0.93119872  1
  Zn  Zn130  1  0.93414332  0.68542113  0.42378021  1
  Zn  Zn131  1  0.93737360  0.67979657  0.94044045  1
  Zn  Zn132  1  0.06491735  0.31584881  0.04703355  1
  Zn  Zn133  1  0.05744472  0.31022569  0.57338179  1
  Zn  Zn134  1  0.05942944  0.79829607  0.05534725  1
  Zn  Zn135  1  0.06087191  0.81242593  0.55337515  1
  Zn  Zn136  1  0.55410102  0.31992281  0.06634160  1
  Zn  Zn137  1  0.53416644  0.33184995  0.58631063  1
  Zn  Zn138  1  0.56051918  0.82074278  0.06145375  1
  Zn  Zn139  1  0.56137126  0.81269094  0.56311687  1
  O  O140  1  0.10766036  0.12595470  0.11030266  1
  O  O141  1  0.13240565  0.11107206  0.61951207  1
  O  O142  1  0.11241801  0.61955708  0.12231535  1
  O  O143  1  0.12465848  0.61428345  0.61535459  1
  O  O144  1  0.61035548  0.13135005  0.14628584  1
  O  O145  1  0.60629663  0.10370028  0.63624369  1
  O  O146  1  0.58567633  0.63800925  0.15822669  1
  O  O147  1  0.61399388  0.64066119  0.61056949  1
  O  O148  1  0.39705077  0.37137324  0.38329452  1
  O  O149  1  0.36004517  0.38511175  0.89290754  1
  O  O150  1  0.38846261  0.86791148  0.38300763  1
  O  O151  1  0.38811320  0.82221862  0.89994101  1
  O  O152  1  0.87331361  0.36764560  0.38896640  1
  O  O153  1  0.86254681  0.39183357  0.86391320  1
  O  O154  1  0.88744856  0.87576877  0.37943715  1
  O  O155  1  0.88311142  0.87352532  0.88214310  1
  O  O156  1  0.24167599  0.02183707  0.36437053  1
  O  O157  1  0.23835382  -0.01094549  0.86394116  1
  O  O158  1  0.25007866  0.51663487  0.38938199  1
  O  O159  1  0.25401723  0.51146059  0.86758755  1
  O  O160  1  0.75590584  0.00269966  0.36954753  1
  O  O161  1  0.76483881  -0.01440355  0.86981720  1
  O  O162  1  0.73842027  0.49907610  0.35983491  1
  O  O163  1  0.75828143  0.51444387  0.88281932  1
  O  O164  1  0.23301370  0.51000905  0.10987366  1
  O  O165  1  0.25342259  0.50645951  0.63405954  1
  O  O166  1  0.25335167  1.00838376  0.14821263  1
  O  O167  1  0.24408063  0.98501164  0.63784993  1
  O  O168  1  0.75673471  0.48695205  0.13702577  1
  O  O169  1  0.74141180  0.48123016  0.60773462  1
  O  O170  1  0.75105662  0.98890182  0.11324568  1
  O  O171  1  0.74041295  0.99344435  0.63779801  1
  O  O172  1  0.00019015  0.35761501  0.24691054  1
  O  O173  1  0.01550202  0.37892967  0.75929088  1
  O  O174  1  0.00090191  0.87473066  0.27104553  1
  O  O175  1  -0.00557675  0.87107476  0.76464306  1
  O  O176  1  0.51284871  0.37878488  0.26349883  1
  O  O177  1  0.54569493  0.42274416  0.73507297  1
  O  O178  1  0.51048778  0.89147253  0.26720218  1
  O  O179  1  0.50710195  0.86187813  0.74287385  1
  O  O180  1  0.48381462  0.12005743  0.25095468  1
  O  O181  1  0.49247788  0.10780810  0.73814495  1
  O  O182  1  0.53758470  0.62495980  0.21216499  1
  O  O183  1  0.48810202  0.63159510  0.74148165  1
  O  O184  1  0.99970653  0.13812132  0.23912382  1
  O  O185  1  1.00327727  0.13883951  0.76115276  1
  O  O186  1  1.00411783  0.61485102  0.23151326  1
  O  O187  1  0.98567876  0.62724948  0.75238276  1
  O  O188  1  0.38141815  0.25863062  0.00631109  1
  O  O189  1  0.38518343  0.26540618  0.50003158  1
  O  O190  1  0.36059238  0.75943740  0.02040421  1
  O  O191  1  0.36724323  0.75443477  0.50436953  1
  O  O192  1  0.84874274  0.21415798  -0.00637079  1
  O  O193  1  0.88629321  0.23786882  0.52349190  1
  O  O194  1  0.86560664  0.75760992  0.00331958  1
  O  O195  1  0.87136619  0.73531371  0.51215615  1
  O  O196  1  0.12707445  0.23534532  0.52638939  1
  O  O197  1  0.12666781  0.23707604  0.99491926  1
  O  O198  1  0.13311927  0.73508234  0.50550373  1
  O  O199  1  0.11597117  0.73832081  0.97823385  1
  O  O200  1  0.68615486  0.24058577  0.41811842  1
  O  O201  1  0.61656595  0.25874476  0.98415177  1
  O  O202  1  0.62128361  0.74503244  0.49152773  1
  O  O203  1  0.63530601  0.75508283  0.98968974  1
  O  O204  1  0.48878919  0.24518584  0.12920443  1
  O  O205  1  0.50698534  0.22289356  0.61719264  1
  O  O206  1  0.49074417  0.75729888  0.12323711  1
  O  O207  1  0.48962854  0.74392706  0.63164238  1
  O  O208  1  0.99470908  0.24069067  0.10935563  1
  O  O209  1  0.98307710  0.26707715  0.65725613  1
  O  O210  1  0.98507709  0.74064191  0.12158109  1
  O  O211  1  0.98098862  0.75707430  0.62125998  1
  O  O212  1  0.00825811  0.24911579  0.36793654  1
  O  O213  1  -0.00206644  0.25959971  0.86683681  1
  O  O214  1  0.01253770  0.75676798  0.38027281  1
  O  O215  1  0.00062622  0.75582726  0.87497187  1
  O  O216  1  0.51359978  0.25786716  0.38455267  1
  O  O217  1  0.51874472  0.25582544  0.87982854  1
  O  O218  1  0.51194485  0.76876815  0.37867567  1
  O  O219  1  0.51314282  0.73109227  0.86139120  1
  O  O220  1  0.25432448  0.12572362  0.48960294  1
  O  O221  1  0.23795150  0.11805519  1.00505353  1
  O  O222  1  0.24862383  0.63617440  0.49109721  1
  O  O223  1  0.25048034  0.62031890  0.98719409  1
  O  O224  1  0.72822191  0.12636538  0.53434013  1
  O  O225  1  0.79686351  0.15983730  1.00401977  1
  O  O226  1  0.73684641  0.62484833  0.50871144  1
  O  O227  1  0.75749245  0.63498475  0.98982108  1
  O  O228  1  0.26371590  0.38113002  0.01707305  1
  O  O229  1  0.27915035  0.38256234  0.50583999  1
  O  O230  1  0.21146181  0.87156665  0.03659368  1
  O  O231  1  0.25827141  0.86218283  0.49104578  1
  O  O232  1  0.75424165  0.38683196  0.01608736  1
  O  O233  1  0.77325144  0.35561306  0.50625094  1
  O  O234  1  0.75382993  0.86702590  0.00373730  1
  O  O235  1  0.73824185  0.88112486  0.51872824  1
  O  O236  1  0.11270019  0.48559061  0.21666140  1
  O  O237  1  0.12893396  0.49714154  0.74003854  1
  O  O238  1  0.13056779  1.01290121  0.24435074  1
  O  O239  1  0.13471068  1.00299453  0.73631230  1
  O  O240  1  0.63764792  0.48534152  0.24729943  1
  O  O241  1  0.59496072  0.47765509  0.75372356  1
  O  O242  1  0.64247329  0.99292950  0.25961795  1
  O  O243  1  0.63392402  0.98711339  0.76639219  1
  O  O244  1  0.36795594  0.01082893  0.25648415  1
  O  O245  1  0.36113233  -0.01379220  0.75828116  1
  O  O246  1  0.36115951  0.50837933  0.21361106  1
  O  O247  1  0.36798477  0.50641310  0.75784557  1
  O  O248  1  0.85912064  0.00422165  0.24456218  1
  O  O249  1  0.86629359  0.00842934  0.75796936  1
  O  O250  1  0.86351683  0.48888705  0.25731507  1
  O  O251  1  0.87896717  0.51336747  0.76241542  1
  O  O252  1  0.11258321  0.41078640  0.37078808  1
  O  O253  1  0.13820264  0.38082849  0.86277509  1
  O  O254  1  0.12237065  0.86025631  0.38318680  1
  O  O255  1  0.11045002  0.85899026  0.87938013  1
  O  O256  1  0.61438646  0.38557112  0.37257244  1
  O  O257  1  0.62852326  0.36255738  0.88241176  1
  O  O258  1  0.61834009  0.87020329  0.37312757  1
  O  O259  1  0.63530087  0.85531128  0.85981443  1
  O  O260  1  0.37931683  0.13394358  0.13958061  1
  O  O261  1  0.38360108  0.11818104  0.62284097  1
  O  O262  1  0.35986304  0.65628111  0.12396222  1
  O  O263  1  0.37900400  0.63399485  0.63009876  1
  O  O264  1  0.89458976  0.11617244  0.14125815  1
  O  O265  1  0.88430258  0.13841391  0.65161828  1
  O  O266  1  0.87900886  0.63709659  0.12366657  1
  O  O267  1  0.86326542  0.63300172  0.63767349  1
  O  O268  1  0.25540201  0.24921108  0.12480997  1
  O  O269  1  0.27659337  0.24826883  0.64493069  1
  O  O270  1  0.26830156  0.74831299  0.13572062  1
  O  O271  1  0.25672628  0.74794993  0.61654295  1
  O  O272  1  0.75053161  0.26930449  0.12887826  1
  O  O273  1  0.77473870  0.25500780  0.63543293  1
  O  O274  1  0.75840216  0.75378148  0.11712767  1
  O  O275  1  0.75798298  0.75943605  0.62916208  1
  O  O276  1  0.25211403  0.23664123  0.36826249  1
  O  O277  1  0.28440632  0.21985548  0.86030680  1
  O  O278  1  0.23576564  0.74325935  0.38073425  1
  O  O279  1  0.23579833  0.73600739  0.87080218  1
  O  O280  1  0.67729852  0.17497841  0.37583794  1
  O  O281  1  0.72845448  0.26163453  0.87610063  1
  O  O282  1  0.73958658  0.76562876  0.38473689  1
  O  O283  1  0.74493033  0.73944392  0.87941002  1
  O  O284  1  -0.00959117  0.10617917  0.01394713  1
  O  O285  1  0.01473259  0.12402823  0.50295200  1
  O  O286  1  -0.00670451  0.61346405  0.01290018  1
  O  O287  1  0.00962200  0.62722642  0.49784293  1
  O  O288  1  0.49462585  0.12179291  0.02982126  1
  O  O289  1  0.49037521  0.10516147  0.50418912  1
  O  O290  1  0.48673862  0.62145474  -0.00727066  1
  O  O291  1  0.49352059  0.62585775  0.50170052  1
  O  O292  1  0.50439727  0.39840479  0.47954872  1
  O  O293  1  0.47819232  0.38714613  1.00866082  1
  O  O294  1  0.49119649  0.87873131  0.49540324  1
  O  O295  1  0.50871724  0.89349984  0.99431376  1
  O  O296  1  0.98535829  0.36740914  0.50738650  1
  O  O297  1  0.99341563  0.39456473  1.00651172  1
  O  O298  1  0.99879902  0.87634292  0.48593985  1
  O  O299  1  0.99042616  0.87795028  0.99949851  1
  O  O300  1  0.49865199  0.52096501  0.37394900  1
  O  O301  1  0.47730044  0.50649576  0.88083054  1
  O  O302  1  0.50942562  0.98560501  0.39468805  1
  O  O303  1  0.45589530  1.07962010  0.88355421  1
  O  O304  1  1.05929329  0.46838452  0.37028172  1
  O  O305  1  0.98665878  0.50629480  0.88469937  1
  O  O306  1  1.00548383  0.99324018  0.37507788  1
  O  O307  1  0.99387991  0.98112692  0.88272715  1
  O  O308  1  -0.00532968  -0.01116628  0.11580601  1
  O  O309  1  0.01302024  -0.00692217  0.62727128  1
  O  O310  1  -0.00564020  0.51215942  0.11287023  1
  O  O311  1  0.00353831  0.50392328  0.63190587  1
  O  O312  1  0.50585295  0.00927999  0.13850417  1
  O  O313  1  0.49512687  -0.00263248  0.61192263  1
  O  O314  1  0.49391275  0.50810379  0.11077182  1
  O  O315  1  0.49987554  0.52065887  0.61582977  1
  O  O316  1  0.24822671  0.36898585  0.23159198  1
  O  O317  1  0.23654196  0.38773594  0.74699893  1
  O  O318  1  0.24396968  0.89593355  0.26607073  1
  O  O319  1  0.24763312  0.87872256  0.75370609  1
  O  O320  1  0.74533164  0.38326897  0.23972161  1
  O  O321  1  0.74604443  0.37820534  0.72653389  1
  O  O322  1  0.74810700  0.89103444  0.24416133  1
  O  O323  1  0.74600720  0.88118381  0.74182392  1
  O  O324  1  0.25923231  0.12168480  0.25940870  1
  O  O325  1  0.26203822  0.10206085  0.75038699  1
  O  O326  1  0.21753414  0.61364715  0.26986835  1
  O  O327  1  0.26005869  0.61859580  0.74798049  1
  O  O328  1  0.76287295  0.11663066  0.24439781  1
  O  O329  1  0.76284498  0.11356296  0.75663625  1
  O  O330  1  0.74741030  0.60847858  0.23822492  1
  O  O331  1  0.75693919  0.62641116  0.76006371  1
  O  O332  1  0.36878407  0.13012773  0.36604580  1
  O  O333  1  0.36224006  0.20088122  0.84674450  1
  O  O334  1  0.35567937  0.63819124  0.36455658  1
  O  O335  1  0.36035988  0.62408177  0.86651064  1
  O  O336  1  0.88688959  0.11721444  0.35190519  1
  O  O337  1  0.88728336  0.10664404  0.86733662  1
  O  O338  1  0.85892895  0.63333218  0.36528507  1
  O  O339  1  0.86413232  0.62449269  0.86328745  1
  O  O340  1  0.14133868  0.37546782  0.11374056  1
  O  O341  1  0.11944006  0.39362969  0.63398408  1
  O  O342  1  0.15867057  0.86178042  0.09132533  1
  O  O343  1  0.12446987  0.88410623  0.61617141  1
  O  O344  1  0.62344918  0.37551533  0.13473574  1
  O  O345  1  0.64755634  0.33749599  0.58975044  1
  O  O346  1  0.63812740  0.86637765  0.13878606  1
  O  O347  1  0.63581502  0.86369937  0.63922617  1
  O  O348  1  0.11278004  0.25000518  0.24469702  1
  O  O349  1  0.11743452  0.26212991  0.74715965  1
  O  O350  1  0.12379130  0.74863088  0.26173290  1
  O  O351  1  0.11636876  0.73938466  0.76412692  1
  O  O352  1  0.63587929  0.27334627  0.25795881  1
  O  O353  1  0.61544455  0.26032541  0.77601081  1
  O  O354  1  0.63515295  0.76895755  0.26735678  1
  O  O355  1  0.61677114  0.75255133  0.75436009  1
  O  O356  1  0.37429300  0.24397241  0.24212537  1
  O  O357  1  0.33309620  0.26400843  0.68914592  1
  O  O358  1  0.38460256  0.76407750  0.24699144  1
  O  O359  1  0.37915848  0.74338609  0.74152384  1
  O  O360  1  0.88750716  0.23870393  0.25237404  1
  O  O361  1  0.88052763  0.23520697  0.76741930  1
  O  O362  1  0.86483451  0.75307421  0.23591448  1
  O  O363  1  0.87778324  0.73735120  0.74378189  1
  O  O364  1  0.39210023  0.49860742  0.49826822  1
  O  O365  1  0.37766262  0.49752112  0.99847380  1
  O  O366  1  0.38107891  0.98481628  0.50342802  1
  O  O367  1  0.37594871  0.98720796  0.99973030  1
  O  O368  1  0.87958224  0.48867353  0.49769039  1
  O  O369  1  0.88000501  0.50483743  0.98407259  1
  O  O370  1  0.86873006  1.00573018  0.50547045  1
  O  O371  1  0.88174156  0.98618391  0.99245674  1
  O  O372  1  0.10671301  0.00039705  0.00367974  1
  O  O373  1  0.13472784  0.01201940  0.51634001  1
  O  O374  1  0.10816637  0.49789253  0.00770059  1
  O  O375  1  0.12427568  0.51007975  0.51536768  1
  O  O376  1  0.59635450  0.01299448  -0.06573651  1
  O  O377  1  0.61428832  -0.00170917  0.51144412  1
  O  O378  1  0.59751777  0.50388559  -0.01525795  1
  O  O379  1  0.60796441  0.52859939  0.48803882  1
  O  O380  1  0.36375909  0.35545678  0.11954244  1
  O  O381  1  0.42250865  0.37171043  0.60406510  1
  O  O382  1  0.37422180  0.86714887  0.12302733  1
  O  O383  1  0.37445579  0.86018782  0.61449859  1
  O  O384  1  0.87227072  0.37143968  0.12974756  1
  O  O385  1  0.86648168  0.37038714  0.61905180  1
  O  O386  1  0.86667776  0.86383093  0.11784029  1
  O  O387  1  0.86025516  0.86128390  0.62175142  1
  O  O388  1  0.13303928  0.13036399  0.39613837  1
  O  O389  1  0.11253538  0.11491190  0.89670307  1
  O  O390  1  0.12698299  0.63493196  0.39185211  1
  O  O391  1  0.13559043  0.62562365  0.87169103  1
  O  O392  1  0.61693126  0.12695571  0.39810928  1
  O  O393  1  0.63287957  0.15384490  0.87908818  1
  O  O394  1  0.62820376  0.64637615  0.38489649  1
  O  O395  1  0.64015915  0.63110061  0.86567343  1
