# generated using pymatgen
data_V35Zn35O128
_symmetry_space_group_name_H-M   'P 1'
_cell_length_a   16.93548471
_cell_length_b   16.95509350
_cell_length_c   16.87181741
_cell_angle_alpha   90.49088037
_cell_angle_beta   89.43945618
_cell_angle_gamma   90.12731698
_symmetry_Int_Tables_number   1
_chemical_formula_structural   V35Zn35O128
_chemical_formula_sum   'V70 Zn70 O256'
_cell_volume   4844.19894394
_cell_formula_units_Z   2
loop_
 _symmetry_equiv_pos_site_id
 _symmetry_equiv_pos_as_xyz
  1  'x, y, z'
loop_
 _atom_site_type_symbol
 _atom_site_label
 _atom_site_symmetry_multiplicity
 _atom_site_fract_x
 _atom_site_fract_y
 _atom_site_fract_z
 _atom_site_occupancy
  V  V0  1  0.86868443  0.62399123  0.75545263  1
  V  V1  1  0.73643532  0.39117744  0.63974977  1
  V  V2  1  0.05544111  0.44916019  0.55747484  1
  V  V3  1  0.13280273  0.74877720  0.37590173  1
  V  V4  1  0.12808827  0.88145330  0.24980535  1
  V  V5  1  0.00073885  0.88020929  0.38531007  1
  V  V6  1  0.50396677  0.25295528  0.73333865  1
  V  V7  1  0.86702759  0.49355472  0.87900619  1
  V  V8  1  0.36544208  0.37047938  -0.02189598  1
  V  V9  1  0.12197568  0.62762265  0.50236657  1
  V  V10  1  0.23168091  0.49471051  0.75432684  1
  V  V11  1  0.00058989  0.75161724  0.24983786  1
  V  V12  1  0.86575960  0.87722564  0.50649840  1
  V  V13  1  0.12937855  -0.02001609  0.62063866  1
  V  V14  1  -0.00260432  0.62882506  0.62433184  1
  V  V15  1  0.67068158  -0.02278705  0.12907113  1
  V  V16  1  0.13197404  -0.00077248  0.11031750  1
  V  V17  1  -0.00250902  0.50686224  0.00501456  1
  V  V18  1  0.89698864  0.00124595  0.88408571  1
  V  V19  1  0.87536133  0.76447501  0.12684051  1
  V  V20  1  0.86945570  0.50532683  0.37512788  1
  V  V21  1  0.24965218  0.75291905  0.52066484  1
  V  V22  1  0.50548306  0.48616549  0.00618240  1
  V  V23  1  0.35509649  0.63071090  0.73866271  1
  V  V24  1  0.00041453  0.24787132  0.25273387  1
  V  V25  1  0.63040971  0.72525435  0.36804759  1
  V  V26  1  0.85772165  0.75511150  0.63021307  1
  V  V27  1  0.24304898  0.10877974  0.87739620  1
  V  V28  1  -0.00258301  0.11374015  0.61614367  1
  V  V29  1  0.86133380  0.11971320  0.75157841  1
  V  V30  1  0.75035607  0.47439128  0.23262640  1
  V  V31  1  0.88285587  0.12403916  0.25525845  1
  V  V32  1  0.49804944  0.02312703  0.47297963  1
  V  V33  1  0.12694251  0.25129219  0.87828204  1
  V  V34  1  0.37611853  0.87639213  0.49655142  1
  V  V35  1  0.26148854  0.25263123  0.50813456  1
  V  V36  1  0.25438312  0.73143825  0.01060600  1
  V  V37  1  0.62470909  0.26547466  0.36536308  1
  V  V38  1  0.75339395  0.76420440  0.01271617  1
  V  V39  1  -0.00860656  0.25380838  0.74113295  1
  V  V40  1  0.36979030  0.13315475  0.74360461  1
  V  V41  1  0.62671034  0.60958721  0.01814011  1
  V  V42  1  0.74312720  0.12797344  0.37155532  1
  V  V43  1  0.00406463  0.38624565  0.37406889  1
  V  V44  1  0.12878218  0.25027982  0.38097531  1
  V  V45  1  0.12728416  0.38174169  0.24879726  1
  V  V46  1  0.25697692  0.11920123  0.38218555  1
  V  V47  1  0.48925885  0.38174708  0.37848997  1
  V  V48  1  0.86458010  0.62687255  0.25205072  1
  V  V49  1  0.60823822  -0.00739374  0.63424544  1
  V  V50  1  0.88222399  0.00552829  0.38191176  1
  V  V51  1  0.51194361  0.51729563  0.51537467  1
  V  V52  1  0.74403832  0.25653164  0.50566494  1
  V  V53  1  0.13213666  0.50502060  0.12208310  1
  V  V54  1  0.25147623  0.36171231  0.12121295  1
  V  V55  1  0.37641560  0.38717547  0.51601149  1
  V  V56  1  0.40574640  -0.01204747  0.87717410  1
  V  V57  1  0.74617395  0.62546197  0.88299789  1
  V  V58  1  0.86970268  0.38225252  0.50677341  1
  V  V59  1  0.49451401  0.26064034  0.23661174  1
  V  V60  1  0.49944743  0.77680772  0.25951511  1
  V  V61  1  0.00425156  0.37641474  0.87469818  1
  V  V62  1  0.39100012  0.71417675  0.13377052  1
  V  V63  1  0.49448707  0.12162206  0.10485039  1
  V  V64  1  0.00651195  0.12368749  0.11186762  1
  V  V65  1  0.26098212  -0.00235395  0.24564894  1
  V  V66  1  0.52891440  0.36811769  0.86357687  1
  V  V67  1  0.61117858  0.76602152  0.88522639  1
  V  V68  1  -0.00313976  0.76560361  0.76235640  1
  V  V69  1  0.12496659  0.72959353  0.88145409  1
  Zn  Zn70  1  0.82781565  0.27281810  0.09620870  1
  Zn  Zn71  1  0.17821268  0.19284310  0.03783162  1
  Zn  Zn72  1  0.26753900  0.87458400  0.66616576  1
  Zn  Zn73  1  0.37070769  0.14054721  0.23949654  1
  Zn  Zn74  1  0.00714520  0.63444439  0.12164831  1
  Zn  Zn75  1  0.74094951  0.75336320  0.48941109  1
  Zn  Zn76  1  0.18285323  0.18298300  0.20181847  1
  Zn  Zn77  1  0.17775793  0.17450152  0.70046441  1
  Zn  Zn78  1  0.19056883  0.69325207  0.18390152  1
  Zn  Zn79  1  0.17960622  0.68781927  0.69647187  1
  Zn  Zn80  1  0.68450722  0.15351168  0.17482640  1
  Zn  Zn81  1  0.68268882  0.18211863  0.67956622  1
  Zn  Zn82  1  0.68653959  0.68963385  0.19191551  1
  Zn  Zn83  1  0.67061008  0.68458298  0.70500219  1
  Zn  Zn84  1  0.30981598  0.32050316  0.31614914  1
  Zn  Zn85  1  0.30493624  0.31572989  0.79630762  1
  Zn  Zn86  1  0.31513348  0.81451311  0.31267848  1
  Zn  Zn87  1  0.31807731  0.81192799  0.84141971  1
  Zn  Zn88  1  0.81725717  0.31456051  0.31574443  1
  Zn  Zn89  1  0.81031906  0.30771904  0.81308583  1
  Zn  Zn90  1  0.81199020  0.81504280  0.31614534  1
  Zn  Zn91  1  0.82395644  0.81069117  0.83490876  1
  Zn  Zn92  1  0.23291652  0.38318557  0.62256019  1
  Zn  Zn93  1  0.18343873  0.43951001  0.93774028  1
  Zn  Zn94  1  0.18840879  0.93722847  0.44272619  1
  Zn  Zn95  1  0.16423704  0.93328429  0.80561587  1
  Zn  Zn96  1  0.68867706  0.44511405  0.43795323  1
  Zn  Zn97  1  0.68933193  0.42995183  0.93834177  1
  Zn  Zn98  1  0.69220880  0.94943465  0.43643113  1
  Zn  Zn99  1  0.57057502  0.95540191  0.97060681  1
  Zn  Zn100  1  0.32017836  0.06157436  0.05357508  1
  Zn  Zn101  1  0.30774847  0.05192339  0.56039831  1
  Zn  Zn102  1  0.31926805  0.55215892  0.05820131  1
  Zn  Zn103  1  0.31138928  0.56492881  0.57186874  1
  Zn  Zn104  1  0.80992009  0.07947021  0.06415648  1
  Zn  Zn105  1  0.81622881  0.07502943  0.55569211  1
  Zn  Zn106  1  0.81974300  0.57092086  0.06824666  1
  Zn  Zn107  1  0.80896308  0.56042545  0.57114426  1
  Zn  Zn108  1  0.44285439  0.42844080  0.18303461  1
  Zn  Zn109  1  0.43366307  0.44687446  0.69567297  1
  Zn  Zn110  1  0.45364890  0.94665402  0.17917868  1
  Zn  Zn111  1  0.42033007  0.96999869  0.67013193  1
  Zn  Zn112  1  0.92387085  0.42903196  0.18232321  1
  Zn  Zn113  1  0.92598197  0.43663531  0.69395823  1
  Zn  Zn114  1  0.94338773  0.94771712  0.18917312  1
  Zn  Zn115  1  0.93453703  0.94326586  0.68994341  1
  Zn  Zn116  1  0.06957540  0.06263153  0.32172206  1
  Zn  Zn117  1  0.05598157  0.07186706  0.80655511  1
  Zn  Zn118  1  0.06214834  0.56643264  0.31228767  1
  Zn  Zn119  1  0.05659234  0.56121712  0.80631942  1
  Zn  Zn120  1  0.56451948  0.07142468  0.29052386  1
  Zn  Zn121  1  0.55873696  0.08007691  0.81371462  1
  Zn  Zn122  1  0.57588156  0.54186262  0.31600162  1
  Zn  Zn123  1  0.56417461  0.56018933  0.81664914  1
  Zn  Zn124  1  0.43549002  0.19223523  0.43185802  1
  Zn  Zn125  1  0.42150679  0.19655441  0.92309264  1
  Zn  Zn126  1  0.46419852  0.71890874  0.46950227  1
  Zn  Zn127  1  0.44020957  0.67211802  0.94216536  1
  Zn  Zn128  1  0.93479600  0.19979035  0.44033339  1
  Zn  Zn129  1  0.93195419  0.18547738  0.92950268  1
  Zn  Zn130  1  0.93407389  0.69184043  0.43927781  1
  Zn  Zn131  1  0.93459852  0.68587768  0.94218723  1
  Zn  Zn132  1  0.02667716  0.32094371  0.06936165  1
  Zn  Zn133  1  0.09667600  0.26140537  0.58931036  1
  Zn  Zn134  1  0.07470781  0.81440440  0.05915411  1
  Zn  Zn135  1  0.05373107  0.80812725  0.56748862  1
  Zn  Zn136  1  0.55217778  0.26652462  0.03758435  1
  Zn  Zn137  1  0.56435448  0.31595497  0.56172844  1
  Zn  Zn138  1  0.57512891  0.79989440  0.08384538  1
  Zn  Zn139  1  0.58087677  0.85515286  0.53134115  1
  O  O140  1  0.12497133  0.11659423  0.12015062  1
  O  O141  1  0.10223502  0.13906418  0.62313591  1
  O  O142  1  0.12482230  0.60978440  0.13554625  1
  O  O143  1  0.10605680  0.63676063  0.61868064  1
  O  O144  1  0.58779245  0.16977107  0.11439513  1
  O  O145  1  0.65128606  0.09645552  0.59823940  1
  O  O146  1  0.62846407  0.62208469  0.11702452  1
  O  O147  1  0.65772403  0.64060047  0.57885504  1
  O  O148  1  0.38492356  0.37184031  0.38939662  1
  O  O149  1  0.36144212  0.37702969  0.87895121  1
  O  O150  1  0.36860421  0.87147203  0.39514263  1
  O  O151  1  0.40514759  0.89068865  0.85739869  1
  O  O152  1  0.88709204  0.38494091  0.38133139  1
  O  O153  1  0.87795980  0.39162544  0.87128087  1
  O  O154  1  0.88226986  0.88460846  0.38100794  1
  O  O155  1  0.87048591  0.90261412  0.87546029  1
  O  O156  1  0.24534294  0.01336608  0.36841903  1
  O  O157  1  0.22951477  0.01205745  0.87092724  1
  O  O158  1  0.23866168  0.57471877  0.30682388  1
  O  O159  1  0.23770500  0.49444251  0.85718793  1
  O  O160  1  0.76122508  0.02475860  0.38259589  1
  O  O161  1  0.71666664  -0.05621822  0.80762955  1
  O  O162  1  0.76502408  0.48631702  0.35763195  1
  O  O163  1  0.76133080  0.50466959  0.88606243  1
  O  O164  1  0.23464716  0.49212757  0.11828735  1
  O  O165  1  0.24340451  0.49746838  0.63068109  1
  O  O166  1  0.24218165  1.00703745  0.13766040  1
  O  O167  1  0.23426029  0.99243062  0.62771166  1
  O  O168  1  0.76689963  0.49576699  0.13424977  1
  O  O169  1  0.74775813  0.49183158  0.63706417  1
  O  O170  1  0.77137361  0.99054224  0.12970050  1
  O  O171  1  0.71193622  1.03427053  0.60058777  1
  O  O172  1  0.00609357  0.36624668  0.25670079  1
  O  O173  1  -0.01420819  0.36466830  0.76094436  1
  O  O174  1  0.00970724  0.87036801  0.26110966  1
  O  O175  1  -0.00599729  0.86364340  0.74965870  1
  O  O176  1  0.49683470  0.37271600  0.27098309  1
  O  O177  1  0.49691917  0.36836434  0.75782466  1
  O  O178  1  0.50246484  0.87596032  0.25521515  1
  O  O179  1  0.48780295  0.77804452  0.69352726  1
  O  O180  1  0.49331710  0.14785061  0.23262487  1
  O  O181  1  0.48152769  0.14443955  0.75784948  1
  O  O182  1  0.48583090  0.56832276  0.24580161  1
  O  O183  1  0.45323859  0.60799370  0.79666986  1
  O  O184  1  1.00112475  0.13386177  0.26020110  1
  O  O185  1  0.98810413  0.13762903  0.73789942  1
  O  O186  1  0.99746250  0.64310318  0.25015720  1
  O  O187  1  0.98468967  0.63151453  0.74245378  1
  O  O188  1  0.37112499  0.27306758  -0.00310064  1
  O  O189  1  0.36451581  0.25244153  0.50362457  1
  O  O190  1  0.40702322  0.72961670  0.03576402  1
  O  O191  1  0.34985087  0.74555163  0.49910872  1
  O  O192  1  0.84638195  0.25897962  -0.03159454  1
  O  O193  1  0.85847316  0.27380531  0.48673205  1
  O  O194  1  0.86450464  0.74467949  0.01399772  1
  O  O195  1  0.86173812  0.75507838  0.51000881  1
  O  O196  1  0.13954544  0.25921387  0.48454218  1
  O  O197  1  0.10657935  0.26080991  0.98367178  1
  O  O198  1  0.13097579  0.74882514  0.49493263  1
  O  O199  1  0.14632186  0.74157724  1.00144348  1
  O  O200  1  0.63785802  0.25629087  0.48663636  1
  O  O201  1  0.64198142  0.22939947  0.96061133  1
  O  O202  1  0.62173310  0.76737839  0.46816931  1
  O  O203  1  0.63769748  0.73476046  1.00583916  1
  O  O204  1  0.49531176  0.28997157  0.14113986  1
  O  O205  1  0.49390688  0.25862312  0.63358004  1
  O  O206  1  0.50157449  0.73778146  0.15536875  1
  O  O207  1  0.52447520  0.72867374  0.65443649  1
  O  O208  1  1.02314135  0.22908017  0.14280286  1
  O  O209  1  0.99233802  0.25373776  0.63823780  1
  O  O210  1  1.00004284  0.75576412  0.13247453  1
  O  O211  1  0.98485410  0.74450848  0.63982930  1
  O  O212  1  0.00898920  0.26260370  0.37370866  1
  O  O213  1  -0.00132797  0.26463392  0.87197963  1
  O  O214  1  0.00588183  0.76085352  0.36732368  1
  O  O215  1  -0.01178064  0.75160691  0.86599056  1
  O  O216  1  0.51141405  0.26028803  0.37537702  1
  O  O217  1  0.49571312  0.26626838  0.86341130  1
  O  O218  1  0.50823590  0.74334588  0.36069767  1
  O  O219  1  0.51463949  0.73967314  0.88848751  1
  O  O220  1  0.25858337  0.13254341  0.48887521  1
  O  O221  1  0.25261094  0.12833829  0.98321395  1
  O  O222  1  0.23165710  0.63892507  0.51288243  1
  O  O223  1  0.28164875  0.63523766  0.98970174  1
  O  O224  1  0.76488606  0.15036816  0.48129044  1
  O  O225  1  0.63882482  0.15282460  0.94620513  1
  O  O226  1  0.71998527  0.63688408  0.53138993  1
  O  O227  1  0.74205531  0.62214341  0.99952758  1
  O  O228  1  0.25620953  0.38210570  0.00939792  1
  O  O229  1  0.26612477  0.36179578  0.50281434  1
  O  O230  1  0.29921851  0.80441817  -0.03954281  1
  O  O231  1  0.25562447  0.86114701  0.50062088  1
  O  O232  1  0.71303133  0.35240217  0.03315355  1
  O  O233  1  0.75188997  0.37300617  0.50750951  1
  O  O234  1  0.74952896  0.85852679  0.00701698  1
  O  O235  1  0.76114987  0.87430595  0.49114231  1
  O  O236  1  0.11178592  0.49096657  0.23570911  1
  O  O237  1  0.12925624  0.50552999  0.74234354  1
  O  O238  1  0.13494369  0.99343767  0.25082123  1
  O  O239  1  0.11465195  1.00500594  0.73366348  1
  O  O240  1  0.65180986  0.48991978  0.24948608  1
  O  O241  1  0.60431532  0.59454674  0.72086812  1
  O  O242  1  0.64005427  1.04546030  0.20874421  1
  O  O243  1  0.60323025  1.01182069  0.73302584  1
  O  O244  1  0.36105298  -0.01072873  0.23889293  1
  O  O245  1  0.38903541  0.01851993  0.76894345  1
  O  O246  1  0.37419906  0.49576840  0.25761914  1
  O  O247  1  0.35030454  0.51029997  0.73988199  1
  O  O248  1  0.88549944  0.01163997  0.26873023  1
  O  O249  1  0.87682747  0.01176628  0.76292502  1
  O  O250  1  0.87165537  0.50730509  0.25315825  1
  O  O251  1  0.87913234  0.51240378  0.76803763  1
  O  O252  1  0.11506005  0.37247193  0.36426576  1
  O  O253  1  0.10842554  0.37109728  0.87054344  1
  O  O254  1  0.11839071  0.86967571  0.37140885  1
  O  O255  1  0.10875101  0.85166960  0.89555447  1
  O  O256  1  0.61615283  0.36806633  0.37841834  1
  O  O257  1  0.62923560  0.36218096  0.86818060  1
  O  O258  1  0.66672492  0.89638860  0.32762057  1
  O  O259  1  0.61143162  0.86373172  0.91221081  1
  O  O260  1  0.38492864  0.12508240  0.12435374  1
  O  O261  1  0.36284104  0.10897880  0.64512049  1
  O  O262  1  0.37771274  0.61623279  0.13944357  1
  O  O263  1  0.37530480  0.63418460  0.63868466  1
  O  O264  1  0.90405640  0.11521511  0.14367206  1
  O  O265  1  0.88438195  0.11345377  0.63882637  1
  O  O266  1  0.88584057  0.63911545  0.13788004  1
  O  O267  1  0.87618320  0.63338234  0.63428675  1
  O  O268  1  0.23262618  0.25919256  0.12128028  1
  O  O269  1  0.22864975  0.24967962  0.60920860  1
  O  O270  1  0.27435804  0.74220021  0.12010459  1
  O  O271  1  0.23815622  0.76004066  0.62215899  1
  O  O272  1  0.76567303  0.18115606  0.09919528  1
  O  O273  1  0.74416815  0.25351283  0.60716439  1
  O  O274  1  0.76024346  0.74668303  0.12175755  1
  O  O275  1  0.75850721  0.74988541  0.64351470  1
  O  O276  1  0.24779711  0.24474206  0.38367922  1
  O  O277  1  0.22690139  0.26109004  0.87026979  1
  O  O278  1  0.23447770  0.75140769  0.37291473  1
  O  O279  1  0.22059138  0.72286594  0.86444939  1
  O  O280  1  0.73793040  0.25348571  0.37605167  1
  O  O281  1  0.78393059  0.26242103  0.91814160  1
  O  O282  1  0.73576015  0.74453290  0.36634841  1
  O  O283  1  0.75343164  0.74151304  0.89811725  1
  O  O284  1  -0.00585670  0.13878866  0.01490928  1
  O  O285  1  -0.01589910  0.13606023  0.51860938  1
  O  O286  1  -0.00292730  0.61142877  0.00450901  1
  O  O287  1  0.00284089  0.63746345  0.51409046  1
  O  O288  1  0.48804448  0.15753391  0.00669432  1
  O  O289  1  0.49891631  0.12059342  0.49388111  1
  O  O290  1  0.51594629  0.59755996  -0.00093796  1
  O  O291  1  0.49215512  0.61480159  0.49837258  1
  O  O292  1  0.48815854  0.37341381  0.49556993  1
  O  O293  1  0.49556198  0.37077659  0.97780910  1
  O  O294  1  0.47128987  0.83298409  0.50789895  1
  O  O295  1  0.49273877  0.87153743  1.03283777  1
  O  O296  1  0.99258662  0.39032388  0.49515372  1
  O  O297  1  0.99694445  0.39029495  0.98137836  1
  O  O298  1  0.98508604  0.86302345  0.49024413  1
  O  O299  1  1.05587766  0.86952891  0.95334227  1
  O  O300  1  0.50448592  0.48300864  0.39091425  1
  O  O301  1  0.52088809  0.47720976  0.88299378  1
  O  O302  1  0.50101808  1.02139283  0.37096287  1
  O  O303  1  0.50754287  1.01427805  0.89452262  1
  O  O304  1  0.99015294  0.49215901  0.36627910  1
  O  O305  1  0.99242694  0.49326916  0.88077179  1
  O  O306  1  0.99748504  0.99033290  0.37808362  1
  O  O307  1  0.99785274  1.01000495  0.88300797  1
  O  O308  1  0.01969046  0.01360395  0.12896350  1
  O  O309  1  0.00741363  0.01022508  0.62376248  1
  O  O310  1  0.00074835  0.49652649  0.11205033  1
  O  O311  1  -0.00473680  0.50625143  0.62356906  1
  O  O312  1  0.50656975  0.02131712  0.10987093  1
  O  O313  1  0.50760670  0.00321374  0.60455835  1
  O  O314  1  0.51535892  0.46751600  0.10387166  1
  O  O315  1  0.49843837  0.49774515  0.61362527  1
  O  O316  1  0.23711064  0.37050100  0.23853048  1
  O  O317  1  0.24206293  0.38536954  0.73751305  1
  O  O318  1  0.24006130  0.88815485  0.25929258  1
  O  O319  1  0.24192245  0.86175201  0.77334146  1
  O  O320  1  0.76853026  0.37356090  0.23282829  1
  O  O321  1  0.75404020  0.36427906  0.73649065  1
  O  O322  1  0.72805089  0.89330532  0.27923462  1
  O  O323  1  0.74163797  0.89132303  0.76263413  1
  O  O324  1  0.25403203  0.11312526  0.25722198  1
  O  O325  1  0.25721660  0.13435186  0.76606660  1
  O  O326  1  0.26365864  0.62654535  0.25985556  1
  O  O327  1  0.24756472  0.61216161  0.74395463  1
  O  O328  1  0.77021365  0.13970742  0.26730197  1
  O  O329  1  0.76279850  0.13251774  0.74240635  1
  O  O330  1  0.76371408  0.62161786  0.24678356  1
  O  O331  1  0.76264366  0.63415739  0.76897464  1
  O  O332  1  0.35907216  0.13274959  0.36465027  1
  O  O333  1  0.35653964  0.12053485  0.86689328  1
  O  O334  1  0.41432802  0.55760640  0.28453406  1
  O  O335  1  0.39571559  0.60378917  0.85829511  1
  O  O336  1  0.87844964  0.12144885  0.37314167  1
  O  O337  1  0.87600537  0.11702187  0.85855290  1
  O  O338  1  0.88289254  0.61638507  0.36637604  1
  O  O339  1  0.86669317  0.61703037  0.87493842  1
  O  O340  1  0.12764728  0.38358375  0.13019073  1
  O  O341  1  0.11151536  0.38022497  0.60571115  1
  O  O342  1  0.12064769  0.88869641  0.13716857  1
  O  O343  1  0.12040629  0.87908127  0.62728926  1
  O  O344  1  0.65021441  0.34358005  0.07687609  1
  O  O345  1  0.63839890  0.37523864  0.62457743  1
  O  O346  1  0.63522055  0.88126425  0.13798099  1
  O  O347  1  0.62849285  0.89246242  0.62710930  1
  O  O348  1  0.11955130  0.25994287  0.26220464  1
  O  O349  1  0.10078795  0.24669586  0.76352359  1
  O  O350  1  0.12100430  0.75939724  0.25352021  1
  O  O351  1  0.10270006  0.74446447  0.76551368  1
  O  O352  1  0.61240784  0.25231807  0.26253338  1
  O  O353  1  0.60379088  0.23602349  0.73975733  1
  O  O354  1  0.61288944  0.74723802  0.26082434  1
  O  O355  1  0.63956769  0.76282785  0.78705284  1
  O  O356  1  0.39046559  0.25882555  0.25805913  1
  O  O357  1  0.37670526  0.24030926  0.74801615  1
  O  O358  1  0.38924074  0.75919987  0.24366585  1
  O  O359  1  0.35511713  0.72832745  0.76824798  1
  O  O360  1  0.89241431  0.24026355  0.26161673  1
  O  O361  1  0.88448615  0.23663402  0.75937503  1
  O  O362  1  0.88227677  0.74764371  0.24923273  1
  O  O363  1  0.87961421  0.74600767  0.75102386  1
  O  O364  1  0.38090381  0.48989109  0.50483666  1
  O  O365  1  0.39551031  0.48251525  1.00473887  1
  O  O366  1  0.39279600  0.98853738  0.49580296  1
  O  O367  1  0.36324404  0.99661997  0.96973390  1
  O  O368  1  0.86079964  0.49705596  0.48795301  1
  O  O369  1  0.88579009  0.50544079  0.98919714  1
  O  O370  1  0.87082234  0.99303365  0.49126146  1
  O  O371  1  0.86252476  1.02903960  0.97731854  1
  O  O372  1  0.13824133  -0.00768756  0.01556988  1
  O  O373  1  0.12409234  -0.00391894  0.51823927  1
  O  O374  1  0.11180719  0.49617362  0.01276531  1
  O  O375  1  0.11230769  0.51224971  0.50297623  1
  O  O376  1  0.64570840  0.00974851  0.03550131  1
  O  O377  1  0.59321079  -0.03015495  0.48678160  1
  O  O378  1  0.62707466  0.50361034  0.00276646  1
  O  O379  1  0.61167307  0.50178931  0.49845368  1
  O  O380  1  0.35112778  0.37771207  0.12864906  1
  O  O381  1  0.37615490  0.37543228  0.61558830  1
  O  O382  1  0.42877288  0.88238423  0.07977697  1
  O  O383  1  0.36508706  0.88992336  0.61095556  1
  O  O384  1  0.91269979  0.34118082  0.11276037  1
  O  O385  1  0.86250720  0.38526428  0.61294718  1
  O  O386  1  0.88546886  0.86354494  0.13837483  1
  O  O387  1  0.87888965  0.86980683  0.61576923  1
  O  O388  1  0.14208645  0.13966433  0.36842720  1
  O  O389  1  0.13272842  0.14055197  0.87180850  1
  O  O390  1  0.11084482  0.63743388  0.38977959  1
  O  O391  1  0.09503348  0.63423175  0.88517013  1
  O  O392  1  0.64094642  0.13553720  0.36731253  1
  O  O393  1  0.65174428  0.13172480  0.87002637  1
  O  O394  1  0.62627218  0.62657487  0.37425782  1
  O  O395  1  0.63728785  0.62897222  0.89238171  1
