# generated using pymatgen
data_V35Zn35O128
_symmetry_space_group_name_H-M   'P 1'
_cell_length_a   16.87921922
_cell_length_b   16.96277118
_cell_length_c   16.90682698
_cell_angle_alpha   89.93240488
_cell_angle_beta   90.16312995
_cell_angle_gamma   90.14406266
_symmetry_Int_Tables_number   1
_chemical_formula_structural   V35Zn35O128
_chemical_formula_sum   'V70 Zn70 O256'
_cell_volume   4840.69627424
_cell_formula_units_Z   2
loop_
 _symmetry_equiv_pos_site_id
 _symmetry_equiv_pos_as_xyz
  1  'x, y, z'
loop_
 _atom_site_type_symbol
 _atom_site_label
 _atom_site_symmetry_multiplicity
 _atom_site_fract_x
 _atom_site_fract_y
 _atom_site_fract_z
 _atom_site_occupancy
  V  V0  1  0.26200805  0.74616113  0.51178395  1
  V  V1  1  0.89801181  0.01264198  0.38011211  1
  V  V2  1  0.12766978  0.24011330  0.87064774  1
  V  V3  1  0.38150937  0.12716623  0.24432391  1
  V  V4  1  0.12270118  0.02676191  0.10042951  1
  V  V5  1  0.37832275  0.51459851  0.37119525  1
  V  V6  1  0.64556402  0.61710983  0.50125805  1
  V  V7  1  0.23015414  0.87565599  0.11522044  1
  V  V8  1  0.37495836  0.38857263  -0.00689141  1
  V  V9  1  0.62003288  0.75395978  0.37280031  1
  V  V10  1  0.76107851  0.87994093  0.13681450  1
  V  V11  1  0.25215552  0.15294817  0.36651688  1
  V  V12  1  0.50519300  0.63441188  0.62485227  1
  V  V13  1  0.62271900  0.35288460  0.25466359  1
  V  V14  1  -0.00026032  0.38892530  0.38111884  1
  V  V15  1  0.12600842  0.61740416  0.48899662  1
  V  V16  1  0.52744507  0.11455958  0.63348629  1
  V  V17  1  0.25863754  0.61086753  0.86751849  1
  V  V18  1  0.23924072  0.00152246  0.24814265  1
  V  V19  1  0.35344093  0.14950958  0.76082882  1
  V  V20  1  0.50357808  0.50126806  0.50218469  1
  V  V21  1  0.63281486  0.48284461  0.63791218  1
  V  V22  1  0.61252410  0.12508493  -0.00510078  1
  V  V23  1  0.74561533  0.88367807  0.64307713  1
  V  V24  1  0.62046484  0.62948918  0.00441415  1
  V  V25  1  0.75709543  0.76127214  -0.00421094  1
  V  V26  1  0.74829465  0.24619211  0.00709044  1
  V  V27  1  0.00590761  0.24450427  0.73713062  1
  V  V28  1  0.75953195  0.61762856  0.86949392  1
  V  V29  1  0.25107518  -0.01670577  0.75870119  1
  V  V30  1  -0.01766234  0.03666390  -0.01275471  1
  V  V31  1  0.84851870  0.12701969  0.23959236  1
  V  V32  1  0.39172725  0.25018128  0.12610842  1
  V  V33  1  0.24695982  0.24297179  -0.01014352  1
  V  V34  1  0.43058348  0.69999434  0.19518111  1
  V  V35  1  0.75137532  0.37351878  0.12972105  1
  V  V36  1  0.74112208  0.24723559  0.49375337  1
  V  V37  1  0.12573508  0.74880744  0.87738677  1
  V  V38  1  0.85712243  0.50786637  0.36620644  1
  V  V39  1  -0.01774829  0.48811823  -0.00467804  1
  V  V40  1  0.75789323  0.75322638  0.49656992  1
  V  V41  1  0.62235368  -0.00637573  0.14643272  1
  V  V42  1  0.12401022  0.37001043  0.25708722  1
  V  V43  1  0.13240888  0.39501657  0.74719461  1
  V  V44  1  0.76203827  0.47450224  0.75895431  1
  V  V45  1  0.50028633  0.50586609  -0.00697883  1
  V  V46  1  0.50268357  0.36525213  0.37509704  1
  V  V47  1  0.25532066  0.51004861  0.25626377  1
  V  V48  1  0.25694778  0.24977107  0.51423558  1
  V  V49  1  -0.01055520  0.87140337  0.89707585  1
  V  V50  1  -0.01335793  0.62669214  0.13021990  1
  V  V51  1  0.12561143  0.49769590  0.12474572  1
  V  V52  1  0.37836809  0.87978114  0.00014512  1
  V  V53  1  0.87204466  0.38049060  0.50914427  1
  V  V54  1  0.49448353  0.87273321  0.85951239  1
  V  V55  1  0.24920546  0.40817093  0.62700693  1
  V  V56  1  -0.00573424  0.24421794  0.23519722  1
  V  V57  1  0.07635534  0.19886485  0.42514596  1
  V  V58  1  0.39013604  0.62511852  0.74814529  1
  V  V59  1  0.87109245  0.74160554  0.62796367  1
  V  V60  1  0.12826033  0.61932652  -0.00091569  1
  V  V61  1  -0.01453738  0.73957029  0.75629751  1
  V  V62  1  0.87655389  0.23484616  0.62372184  1
  V  V63  1  0.63570529  0.10573895  0.47993335  1
  V  V64  1  0.25431917  0.74741442  0.00251823  1
  V  V65  1  0.11991801  0.01625439  0.60487035  1
  V  V66  1  0.61400894  0.74692526  0.86050211  1
  V  V67  1  0.25177043  0.37240854  0.12881109  1
  V  V68  1  0.62167383  0.51018859  0.14639940  1
  V  V69  1  0.12092023  0.86535000  0.73724948  1
  Zn  Zn70  1  0.45567235  0.01731825  0.48971110  1
  Zn  Zn71  1  0.37267186  0.37905045  0.50178735  1
  Zn  Zn72  1  0.50086142  -0.00144520  0.00632673  1
  Zn  Zn73  1  0.61944708  0.26071414  0.84831051  1
  Zn  Zn74  1  -0.01346539  0.38132486  0.86213006  1
  Zn  Zn75  1  0.85935607  0.08395089  0.78569523  1
  Zn  Zn76  1  0.18607507  0.19240768  0.18414410  1
  Zn  Zn77  1  0.18080767  0.17764287  0.69203614  1
  Zn  Zn78  1  0.15651928  0.69345212  0.18735233  1
  Zn  Zn79  1  0.19978812  0.68621381  0.68302277  1
  Zn  Zn80  1  0.67035457  0.18445676  0.17613626  1
  Zn  Zn81  1  0.69363237  0.17748043  0.67782693  1
  Zn  Zn82  1  0.67986460  0.70712049  0.17783609  1
  Zn  Zn83  1  0.69315104  0.68032513  0.68606170  1
  Zn  Zn84  1  0.32681955  0.32148764  0.30708013  1
  Zn  Zn85  1  0.43388570  0.31853405  0.81591424  1
  Zn  Zn86  1  0.26566859  0.78892673  0.28502559  1
  Zn  Zn87  1  0.31362911  0.80360024  0.81069678  1
  Zn  Zn88  1  0.81372981  0.31430378  0.31085308  1
  Zn  Zn89  1  0.81012685  0.28442144  0.81892558  1
  Zn  Zn90  1  0.89166593  0.83702715  0.27472612  1
  Zn  Zn91  1  0.80590538  0.81652175  0.81942135  1
  Zn  Zn92  1  0.18687731  0.44139319  0.44201685  1
  Zn  Zn93  1  0.18860326  0.43023698  0.93371812  1
  Zn  Zn94  1  0.24762119  0.97865413  0.46557000  1
  Zn  Zn95  1  0.18040032  0.93977341  0.93317674  1
  Zn  Zn96  1  0.68883724  0.43011132  0.44084955  1
  Zn  Zn97  1  0.69055365  0.43305897  0.94071972  1
  Zn  Zn98  1  0.70446303  0.92310456  0.43094690  1
  Zn  Zn99  1  0.67439446  0.93935603  0.92998642  1
  Zn  Zn100  1  0.31461818  0.06372154  0.05825311  1
  Zn  Zn101  1  0.32397351  0.04791826  0.61176298  1
  Zn  Zn102  1  0.31646704  0.56963940  0.07253748  1
  Zn  Zn103  1  0.31954752  0.57753660  0.55435413  1
  Zn  Zn104  1  0.79973934  0.06291309  0.06278047  1
  Zn  Zn105  1  0.81606340  0.06068903  0.55826903  1
  Zn  Zn106  1  0.80233791  0.55944677  0.06297450  1
  Zn  Zn107  1  0.83570953  0.54876965  0.58511115  1
  Zn  Zn108  1  0.44488340  0.43884600  0.18657803  1
  Zn  Zn109  1  0.42789004  0.44772281  0.68813859  1
  Zn  Zn110  1  0.41805394  0.94735829  0.16945035  1
  Zn  Zn111  1  0.44914459  0.94133071  0.68013173  1
  Zn  Zn112  1  0.93715939  0.44154084  0.19151412  1
  Zn  Zn113  1  0.94917365  0.44467140  0.68637310  1
  Zn  Zn114  1  0.92747013  0.97142587  0.16689830  1
  Zn  Zn115  1  0.93284224  0.93416743  0.66502069  1
  Zn  Zn116  1  0.06559220  0.05772681  0.30080119  1
  Zn  Zn117  1  0.02842739  0.03343586  0.78515077  1
  Zn  Zn118  1  0.06228733  0.56788377  0.31453523  1
  Zn  Zn119  1  0.05929899  0.56172802  0.81732971  1
  Zn  Zn120  1  0.56349518  0.06300380  0.31479601  1
  Zn  Zn121  1  0.51974327  0.08057519  0.84076355  1
  Zn  Zn122  1  0.55712926  0.58261104  0.31908684  1
  Zn  Zn123  1  0.56680955  0.55383678  0.81466505  1
  Zn  Zn124  1  0.47393442  0.22158909  0.49914407  1
  Zn  Zn125  1  0.43119122  0.18546931  0.94246618  1
  Zn  Zn126  1  0.40925097  0.72925929  0.37888130  1
  Zn  Zn127  1  0.43541417  0.68765663  0.94031012  1
  Zn  Zn128  1  0.90893843  0.19802583  0.42326742  1
  Zn  Zn129  1  0.92230094  0.21984288  0.92334857  1
  Zn  Zn130  1  0.93883608  0.68624274  0.43327816  1
  Zn  Zn131  1  0.93882621  0.68042186  0.94545273  1
  Zn  Zn132  1  0.06319938  0.30818665  0.05935350  1
  Zn  Zn133  1  0.06699827  0.32242622  0.56431363  1
  Zn  Zn134  1  0.01556128  0.83680355  0.10957715  1
  Zn  Zn135  1  0.07204571  0.74388210  0.57586180  1
  Zn  Zn136  1  0.55600621  0.31317184  -0.01907970  1
  Zn  Zn137  1  0.55741138  0.30295897  0.67732932  1
  Zn  Zn138  1  0.56459883  0.81519531  0.07253488  1
  Zn  Zn139  1  0.57857820  0.81012404  0.56538051  1
  O  O140  1  0.12964763  0.12515910  0.11107968  1
  O  O141  1  0.11309876  0.11502379  0.62440277  1
  O  O142  1  0.12674290  0.61136330  0.11651312  1
  O  O143  1  0.12879240  0.64557550  0.60704096  1
  O  O144  1  0.61744874  0.09807642  0.12507768  1
  O  O145  1  0.62895062  0.11384674  0.60408999  1
  O  O146  1  0.63600396  0.61873291  0.11629376  1
  O  O147  1  0.62128143  0.61219587  0.62158158  1
  O  O148  1  0.38985872  0.38672756  0.37682630  1
  O  O149  1  0.37103205  0.38251994  0.89583528  1
  O  O150  1  0.40575783  0.89000424  0.38662871  1
  O  O151  1  0.38472559  0.86270478  0.88483550  1
  O  O152  1  0.88754235  0.37898286  0.38008066  1
  O  O153  1  0.88843985  0.33222082  0.88935443  1
  O  O154  1  0.86085938  0.90345085  0.37383674  1
  O  O155  1  0.89209381  0.86790191  0.87616541  1
  O  O156  1  0.23838156  0.00073855  0.34859470  1
  O  O157  1  0.24551703  -0.00447660  0.85867435  1
  O  O158  1  0.26356697  0.49006471  0.36469479  1
  O  O159  1  0.24921262  0.51374655  0.88366853  1
  O  O160  1  0.79378887  -0.04498365  0.36297950  1
  O  O161  1  0.74120244  0.00679574  0.84999119  1
  O  O162  1  0.75746477  0.49343222  0.37565243  1
  O  O163  1  0.74116305  0.50798772  0.86885812  1
  O  O164  1  0.24751818  0.49128102  0.13632442  1
  O  O165  1  0.24721686  0.50564842  0.61455203  1
  O  O166  1  0.23615508  0.99779367  0.11421266  1
  O  O167  1  0.22422812  0.99884220  0.64666065  1
  O  O168  1  0.72970582  0.48892455  0.11957174  1
  O  O169  1  0.74351334  0.49635965  0.64563798  1
  O  O170  1  0.73614411  0.98981684  0.13024048  1
  O  O171  1  0.77175531  0.97997757  0.62180864  1
  O  O172  1  0.00417415  0.36832078  0.26122727  1
  O  O173  1  0.01576480  0.37086470  0.74381884  1
  O  O174  1  -0.02626275  0.87510441  0.20648696  1
  O  O175  1  0.01402024  0.85591330  0.76727794  1
  O  O176  1  0.50803520  0.37919862  0.26527071  1
  O  O177  1  0.49109744  0.37127622  0.73732588  1
  O  O178  1  0.46003796  0.92152151  0.34469328  1
  O  O179  1  0.49022732  0.87287893  0.76006343  1
  O  O180  1  0.47894016  0.11514529  0.25421897  1
  O  O181  1  0.54203760  0.10094992  0.73173713  1
  O  O182  1  0.48683931  0.63537069  0.24795133  1
  O  O183  1  0.49825707  0.61935371  0.74129603  1
  O  O184  1  1.01131948  0.14574156  0.24556274  1
  O  O185  1  1.00785737  0.14683074  0.75400978  1
  O  O186  1  1.00396909  0.61257315  0.22965685  1
  O  O187  1  1.00118162  0.64154445  0.76374315  1
  O  O188  1  0.36547540  0.26506156  0.01058880  1
  O  O189  1  0.36055383  0.25893557  0.49991147  1
  O  O190  1  0.35953495  0.75634135  -0.00258590  1
  O  O191  1  0.35936046  0.73564811  0.47886937  1
  O  O192  1  0.84719065  0.23879076  0.01291316  1
  O  O193  1  0.87979716  0.25929051  0.51281792  1
  O  O194  1  0.85568437  0.74412855  -0.00721076  1
  O  O195  1  0.86649054  0.73566754  0.51767052  1
  O  O196  1  0.13410929  0.25637085  0.49107350  1
  O  O197  1  0.13641182  0.25878275  0.98691249  1
  O  O198  1  0.15009808  0.75018346  0.49288659  1
  O  O199  1  0.13363715  0.73075639  0.99247967  1
  O  O200  1  0.64253743  0.24833967  0.49558058  1
  O  O201  1  0.61902790  0.22902848  1.02388592  1
  O  O202  1  0.64084486  0.73251281  0.50354436  1
  O  O203  1  0.62758079  0.73987254  0.99744095  1
  O  O204  1  0.48670792  0.25604717  0.11990503  1
  O  O205  1  0.50509100  0.21868505  0.61290478  1
  O  O206  1  0.49324374  0.76103275  0.14308259  1
  O  O207  1  0.51645578  0.73178658  0.62384705  1
  O  O208  1  0.99585092  0.26213829  0.13679365  1
  O  O209  1  1.00083875  0.25267682  0.63060051  1
  O  O210  1  1.01337582  0.72329141  0.11611582  1
  O  O211  1  0.98244072  0.75225721  0.64576097  1
  O  O212  1  0.00748896  0.25941982  0.36823274  1
  O  O213  1  0.01987602  0.26092885  0.86064035  1
  O  O214  1  -0.04325087  0.76696137  0.34979656  1
  O  O215  1  0.00544486  0.75118352  0.87636425  1
  O  O216  1  0.49560869  0.26845826  0.39189132  1
  O  O217  1  0.49981395  0.25791671  0.88778303  1
  O  O218  1  0.52144678  0.73782176  0.38735044  1
  O  O219  1  0.50665806  0.75282463  0.87593722  1
  O  O220  1  0.24815645  0.14791510  0.47327882  1
  O  O221  1  0.26194604  0.14521051  0.99650924  1
  O  O222  1  0.24225670  0.63727570  0.49667887  1
  O  O223  1  0.24733830  0.62893570  0.99545350  1
  O  O224  1  0.74342871  0.13488001  0.50286747  1
  O  O225  1  0.72783422  0.13631013  1.01242401  1
  O  O226  1  0.74606947  0.62264107  0.51832017  1
  O  O227  1  0.73742073  0.62844571  0.98942733  1
  O  O228  1  0.26087132  0.37757608  0.01184749  1
  O  O229  1  0.24344736  0.36527217  0.51190481  1
  O  O230  1  0.25302450  0.86908978  0.00013454  1
  O  O231  1  0.27049439  0.86064467  0.46981146  1
  O  O232  1  0.73669584  0.36559500  0.02263662  1
  O  O233  1  0.76414200  0.36199509  0.50119688  1
  O  O234  1  0.74626999  0.85986453  -0.02427410  1
  O  O235  1  0.75438622  0.85405580  0.51173976  1
  O  O236  1  0.13530743  0.48985025  0.24362737  1
  O  O237  1  0.11682503  0.49315380  0.74840687  1
  O  O238  1  0.13471801  1.00979580  0.22213749  1
  O  O239  1  0.12260439  0.97479856  0.74839174  1
  O  O240  1  0.62415087  0.52240823  0.24516048  1
  O  O241  1  0.63023137  0.49379931  0.74195834  1
  O  O242  1  0.62030775  0.99205292  0.24632265  1
  O  O243  1  0.69748942  1.03864818  0.79175926  1
  O  O244  1  0.35247841  0.01866862  0.22914454  1
  O  O245  1  0.35069453  -0.02401768  0.73425468  1
  O  O246  1  0.36554803  0.49478475  0.25714301  1
  O  O247  1  0.36819144  0.52499480  0.74689229  1
  O  O248  1  0.87753307  0.02325133  0.25395845  1
  O  O249  1  0.92210930  0.00245413  0.75312723  1
  O  O250  1  0.87415881  0.49770976  0.26642519  1
  O  O251  1  0.86105699  0.48670648  0.75606086  1
  O  O252  1  0.11280559  0.38508422  0.36763436  1
  O  O253  1  0.13037185  0.37245973  0.85550022  1
  O  O254  1  0.07025942  0.84613824  0.32668137  1
  O  O255  1  0.11613601  0.85722027  0.88170145  1
  O  O256  1  0.61431459  0.38043153  0.36482083  1
  O  O257  1  0.61169697  0.36832817  0.89650195  1
  O  O258  1  0.62626276  0.85344301  0.38753172  1
  O  O259  1  0.60876799  0.85548143  0.87747962  1
  O  O260  1  0.36940628  0.14104802  0.12975197  1
  O  O261  1  0.39212105  0.12303631  0.66787979  1
  O  O262  1  0.36841132  0.64786161  0.13363456  1
  O  O263  1  0.39670147  0.62265184  0.63053475  1
  O  O264  1  0.86503191  0.12318779  0.13974669  1
  O  O265  1  0.88048363  0.13551941  0.62634627  1
  O  O266  1  0.88710403  0.61848820  0.11513145  1
  O  O267  1  0.85611255  0.64481329  0.64808761  1
  O  O268  1  0.24617299  0.26365079  0.11297130  1
  O  O269  1  0.24621747  0.23514706  0.61135747  1
  O  O270  1  0.22998283  0.76803234  0.11384526  1
  O  O271  1  0.26494317  0.75483772  0.61255331  1
  O  O272  1  0.73623731  0.26584238  0.12491901  1
  O  O273  1  0.77011359  0.24497493  0.61553649  1
  O  O274  1  0.74448337  0.76687453  0.10443946  1
  O  O275  1  0.75487876  0.75655283  0.62590522  1
  O  O276  1  0.25041703  0.25382392  0.36604691  1
  O  O277  1  0.24327973  0.25902995  0.88864939  1
  O  O278  1  0.24015684  0.81467192  0.40912656  1
  O  O279  1  0.24175252  0.73945241  0.88499225  1
  O  O280  1  0.77079637  0.24873365  0.39579948  1
  O  O281  1  0.72751827  0.26093647  0.90561378  1
  O  O282  1  0.74740848  0.74410905  0.39794690  1
  O  O283  1  0.73501370  0.73664495  0.88024534  1
  O  O284  1  -0.00879064  0.13337095  -0.03028360  1
  O  O285  1  0.01328089  0.14494357  0.47631265  1
  O  O286  1  0.01043650  0.60707561  0.00513230  1
  O  O287  1  0.02444898  0.65588913  0.49916813  1
  O  O288  1  0.50258763  0.11663802  0.00332030  1
  O  O289  1  0.52255943  0.11611430  0.49634196  1
  O  O290  1  0.50379633  0.61665682  0.00279203  1
  O  O291  1  0.51589075  0.61238004  0.51441636  1
  O  O292  1  0.50220012  0.39342481  0.48648776  1
  O  O293  1  0.48229907  0.39281850  1.01445593  1
  O  O294  1  0.47503369  0.86618602  0.53080460  1
  O  O295  1  0.48243338  0.86526630  1.00053907  1
  O  O296  1  0.99381907  0.37212572  0.48647910  1
  O  O297  1  1.00666613  0.38911902  1.00279816  1
  O  O298  1  1.03005649  0.81829484  0.38023054  1
  O  O299  1  0.99713682  0.86186546  0.99655230  1
  O  O300  1  0.49105394  0.50360547  0.37976285  1
  O  O301  1  0.49823261  0.50265273  0.89355912  1
  O  O302  1  0.49778027  0.99016639  0.38396041  1
  O  O303  1  0.50743571  0.97312602  0.88268594  1
  O  O304  1  0.99327118  0.48938741  0.37250222  1
  O  O305  1  1.00046589  0.49600294  0.89069200  1
  O  O306  1  0.99725419  0.99577033  0.36365570  1
  O  O307  1  1.00987704  0.98192419  0.89448833  1
  O  O308  1  0.01040812  0.01365485  0.09404961  1
  O  O309  1  0.02601407  -0.02392870  0.61425375  1
  O  O310  1  0.00927165  0.50197731  0.11577337  1
  O  O311  1  -0.05220439  0.53030430  0.61644348  1
  O  O312  1  0.51570737  -0.02708341  0.12341912  1
  O  O313  1  0.48970784  0.01551816  0.60594212  1
  O  O314  1  0.51667440  0.50297056  0.12313850  1
  O  O315  1  0.51348719  0.50349818  0.61859378  1
  O  O316  1  0.24318224  0.37805354  0.24329801  1
  O  O317  1  0.24013889  0.39097974  0.73313392  1
  O  O318  1  0.25193261  0.89456662  0.22348343  1
  O  O319  1  0.23173450  0.87220810  0.76043015  1
  O  O320  1  0.73181949  0.36449600  0.24892028  1
  O  O321  1  0.75241709  0.37643826  0.76894697  1
  O  O322  1  0.78215283  0.85464774  0.23193223  1
  O  O323  1  0.74620372  0.87480000  0.74513571  1
  O  O324  1  0.24816483  0.12244539  0.25167680  1
  O  O325  1  0.25406706  0.11155984  0.75513170  1
  O  O326  1  0.24421044  0.60559807  0.24704920  1
  O  O327  1  0.24678831  0.62386570  0.76651189  1
  O  O328  1  0.74971767  0.13648382  0.24856733  1
  O  O329  1  0.74409320  0.08545238  0.74276863  1
  O  O330  1  0.78152674  0.64608903  0.24061982  1
  O  O331  1  0.74457712  0.61740878  0.76775857  1
  O  O332  1  0.35477944  0.13049584  0.35234879  1
  O  O333  1  0.40670569  0.11744934  0.84696717  1
  O  O334  1  0.37474873  0.61127390  0.36974251  1
  O  O335  1  0.36638775  0.62635229  0.86779213  1
  O  O336  1  0.87582546  0.11733862  0.35674140  1
  O  O337  1  0.84782958  0.17291926  0.84674162  1
  O  O338  1  0.87616426  0.60496020  0.38672714  1
  O  O339  1  0.85812737  0.62396941  0.88113198  1
  O  O340  1  0.13211569  0.38323897  0.13208966  1
  O  O341  1  0.13794871  0.37683371  0.63363331  1
  O  O342  1  0.12967747  0.89188950  0.10905199  1
  O  O343  1  0.11906234  0.84797098  0.64104225  1
  O  O344  1  0.62511733  0.39329844  0.15358318  1
  O  O345  1  0.62363701  0.38682036  0.62037498  1
  O  O346  1  0.64372356  0.88320946  0.11978440  1
  O  O347  1  0.64420306  0.87861981  0.62187861  1
  O  O348  1  0.11593869  0.26528407  0.24317147  1
  O  O349  1  0.12327934  0.25873377  0.75331057  1
  O  O350  1  0.16098945  0.75448879  0.27536428  1
  O  O351  1  0.12256634  0.74975614  0.76367041  1
  O  O352  1  0.61128446  0.25585251  0.24738797  1
  O  O353  1  0.63603231  0.24894073  0.73898564  1
  O  O354  1  0.63530732  0.73528032  0.27421298  1
  O  O355  1  0.62422598  0.73972710  0.76290055  1
  O  O356  1  0.37196294  0.24182616  0.23526083  1
  O  O357  1  0.35225238  0.24830109  0.76545019  1
  O  O358  1  0.37290578  0.75594336  0.27038433  1
  O  O359  1  0.36596216  0.72594742  0.74863697  1
  O  O360  1  0.88715151  0.23905206  0.25670788  1
  O  O361  1  0.89349600  0.26329361  0.72804431  1
  O  O362  1  0.84253993  0.68441687  0.25479673  1
  O  O363  1  0.88289028  0.75036003  0.75717644  1
  O  O364  1  0.38325888  0.50300911  0.48683861  1
  O  O365  1  0.38415655  0.49618728  1.01398452  1
  O  O366  1  0.34481450  1.01545352  0.50814566  1
  O  O367  1  0.37645463  0.98462184  0.99953727  1
  O  O368  1  0.86628837  0.48186296  0.48963845  1
  O  O369  1  0.88365777  0.49553760  1.00487237  1
  O  O370  1  0.88923849  1.02236756  0.48000778  1
  O  O371  1  0.88341825  1.02177516  0.99276756  1
  O  O372  1  0.12499480  0.01519441  -0.00156796  1
  O  O373  1  0.14569345  0.00355698  0.50725763  1
  O  O374  1  0.13104356  0.50408609  0.01075435  1
  O  O375  1  0.12560585  0.51614963  0.50061255  1
  O  O376  1  0.62357616  0.01214312  0.00043774  1
  O  O377  1  0.64627463  0.00662626  0.48094927  1
  O  O378  1  0.61132738  0.51046318  0.00494407  1
  O  O379  1  0.62764117  0.50467434  0.51135506  1
  O  O380  1  0.36784715  0.36594804  0.12870765  1
  O  O381  1  0.35335789  0.38826454  0.61876288  1
  O  O382  1  0.35496481  0.87471751  0.10685780  1
  O  O383  1  0.42181762  0.86025020  0.58584440  1
  O  O384  1  0.85042274  0.38381720  0.14041820  1
  O  O385  1  0.88641516  0.37364753  0.60907603  1
  O  O386  1  0.85221738  0.89919544  0.09852930  1
  O  O387  1  0.86205509  0.85360671  0.63317049  1
  O  O388  1  0.13537747  0.13489762  0.36386997  1
  O  O389  1  0.12909775  0.14447021  0.86602514  1
  O  O390  1  0.12798431  0.62239872  0.38492629  1
  O  O391  1  0.13442188  0.62682960  0.88380280  1
  O  O392  1  0.62863493  0.12722874  0.38129684  1
  O  O393  1  0.61301096  0.13295680  0.89203922  1
  O  O394  1  0.63203922  0.62285037  0.39883619  1
  O  O395  1  0.62247802  0.63337610  0.88471536  1
