# generated using pymatgen
data_V35Zn35O128
_symmetry_space_group_name_H-M   'P 1'
_cell_length_a   16.88160383
_cell_length_b   16.92551037
_cell_length_c   16.89473683
_cell_angle_alpha   89.81891100
_cell_angle_beta   89.84392376
_cell_angle_gamma   90.39980984
_symmetry_Int_Tables_number   1
_chemical_formula_structural   V35Zn35O128
_chemical_formula_sum   'V70 Zn70 O256'
_cell_volume   4827.16927342
_cell_formula_units_Z   2
loop_
 _symmetry_equiv_pos_site_id
 _symmetry_equiv_pos_as_xyz
  1  'x, y, z'
loop_
 _atom_site_type_symbol
 _atom_site_label
 _atom_site_symmetry_multiplicity
 _atom_site_fract_x
 _atom_site_fract_y
 _atom_site_fract_z
 _atom_site_occupancy
  V  V0  1  0.24091824  0.74150789  0.48702542  1
  V  V1  1  0.23347845  0.62118669  0.36835135  1
  V  V2  1  0.87459806  0.25049155  0.14172591  1
  V  V3  1  0.49424978  0.49323254  0.00322005  1
  V  V4  1  0.62775851  -0.01572872  0.12538674  1
  V  V5  1  0.12584610  0.12474367  -0.00114244  1
  V  V6  1  0.23909144  0.75046592  -0.02005457  1
  V  V7  1  0.24908674  0.24426653  0.50037180  1
  V  V8  1  0.74203754  0.63332439  0.36773438  1
  V  V9  1  0.38329969  0.14000165  0.74985398  1
  V  V10  1  0.24977209  0.12785654  0.87454080  1
  V  V11  1  0.24565275  0.35606590  0.10789509  1
  V  V12  1  -0.01236280  0.86838036  0.88093124  1
  V  V13  1  0.12722281  0.25152495  0.87814569  1
  V  V14  1  0.64092417  0.12456527  -0.00363470  1
  V  V15  1  0.25916198  0.87797593  0.61406485  1
  V  V16  1  0.13581162  -0.01097468  0.12988232  1
  V  V17  1  0.38092822  0.48965015  0.37826416  1
  V  V18  1  0.38033259  0.63057439  0.23893233  1
  V  V19  1  0.51869163  0.61979646  0.61265189  1
  V  V20  1  0.76463737  0.26780190  0.00529438  1
  V  V21  1  0.49555637  0.87732952  0.87886206  1
  V  V22  1  0.62797619  0.89276673  0.74118789  1
  V  V23  1  0.75792929  0.27152823  0.50720265  1
  V  V24  1  0.49583365  0.14114865  0.62124386  1
  V  V25  1  0.12404018  0.50405747  0.61100145  1
  V  V26  1  -0.00603332  -0.00605149  -0.00474046  1
  V  V27  1  0.49133793  -0.01251085  0.51026271  1
  V  V28  1  0.37204148  0.73604516  0.62060987  1
  V  V29  1  0.87995701  0.24484134  0.62487573  1
  V  V30  1  -0.00144210  0.24709328  0.74824548  1
  V  V31  1  0.24654844  0.49459487  0.24360826  1
  V  V32  1  0.12947122  0.01139030  0.61830048  1
  V  V33  1  0.74967287  0.48234102  0.23628782  1
  V  V34  1  0.38480700  0.25005459  0.13003914  1
  V  V35  1  0.49488511  0.74534344  0.75158557  1
  V  V36  1  0.61435195  0.87466976  0.27539490  1
  V  V37  1  -0.01053542  0.75533527  0.73547857  1
  V  V38  1  0.38100578  -0.00833572  0.37990991  1
  V  V39  1  0.13307335  0.87238763  0.75775436  1
  V  V40  1  0.74609058  0.39876915  0.64147551  1
  V  V41  1  -0.02280661  0.37408528  0.87304505  1
  V  V42  1  0.36418511  0.50654483  0.84727506  1
  V  V43  1  0.75613591  -0.00580358  0.25354381  1
  V  V44  1  0.87068669  0.11499680  0.76561819  1
  V  V45  1  -0.00216897  0.12502760  0.14230641  1
  V  V46  1  0.74776898  0.78872935  0.54219893  1
  V  V47  1  0.87399056  0.61711993  0.73934051  1
  V  V48  1  0.75353065  0.63332767  0.88751488  1
  V  V49  1  0.50163793  0.12368656  0.14626847  1
  V  V50  1  0.00601374  0.00635807  0.49617892  1
  V  V51  1  0.62423525  0.25685679  0.37644530  1
  V  V52  1  0.13657360  0.37971824  0.74493672  1
  V  V53  1  0.71870598  0.50999984  0.76179683  1
  V  V54  1  -0.00453142  0.62996933  0.11979214  1
  V  V55  1  0.27186437  0.37419072  0.61363722  1
  V  V56  1  0.12748204  0.49948841  0.10308963  1
  V  V57  1  0.11825624  0.35901153  0.25502793  1
  V  V58  1  0.26097381  -0.00662178  0.24867973  1
  V  V59  1  0.37296830  0.77945947  0.11262801  1
  V  V60  1  0.24628175  0.13018459  0.36994102  1
  V  V61  1  0.62279156  0.53673230  0.11815164  1
  V  V62  1  0.48738464  0.76066776  0.26315737  1
  V  V63  1  0.49598259  0.00116577  0.00261672  1
  V  V64  1  -0.01861623  0.49544279  -0.01046742  1
  V  V65  1  0.63598676  0.11290836  0.51072901  1
  V  V66  1  -0.04535624  0.38430816  0.41170547  1
  V  V67  1  0.62271051  0.74679906  0.88263571  1
  V  V68  1  0.01314075  0.86056767  0.37191155  1
  V  V69  1  0.37415586  -0.00031391  0.87814733  1
  Zn  Zn70  1  0.60951758  0.33590815  0.76976526  1
  Zn  Zn71  1  0.76285953  0.12955718  0.36385654  1
  Zn  Zn72  1  0.25274631  0.00311459  0.74756725  1
  Zn  Zn73  1  0.47051881  0.36307866  0.86469299  1
  Zn  Zn74  1  0.88304876  0.60966186  0.25496955  1
  Zn  Zn75  1  0.87308126  -0.01681970  0.39616924  1
  Zn  Zn76  1  0.18540431  0.17862705  0.19246028  1
  Zn  Zn77  1  0.19435997  0.19618512  0.68882718  1
  Zn  Zn78  1  0.19461944  0.68349229  0.16754088  1
  Zn  Zn79  1  0.17081506  0.69957944  0.67147199  1
  Zn  Zn80  1  0.68805106  0.18170485  0.18603641  1
  Zn  Zn81  1  0.69414623  0.16846302  0.69029256  1
  Zn  Zn82  1  0.66678154  0.67715056  0.22662267  1
  Zn  Zn83  1  0.68202852  0.69481804  0.69475041  1
  Zn  Zn84  1  0.30945292  0.30830154  0.30411116  1
  Zn  Zn85  1  0.31046769  0.31739312  0.81388794  1
  Zn  Zn86  1  0.17515580  0.81428979  0.29152253  1
  Zn  Zn87  1  0.31597779  0.81148020  0.81034347  1
  Zn  Zn88  1  0.81420152  0.30938993  0.31083316  1
  Zn  Zn89  1  0.78175299  0.29536570  0.80630184  1
  Zn  Zn90  1  0.80014207  0.82796108  0.32237741  1
  Zn  Zn91  1  0.80733430  0.81764846  0.80785176  1
  Zn  Zn92  1  0.18889201  0.43199253  0.43730535  1
  Zn  Zn93  1  0.20184827  0.43772256  0.92582068  1
  Zn  Zn94  1  0.19084183  0.93918327  0.43615965  1
  Zn  Zn95  1  0.19282494  0.93612408  0.94433897  1
  Zn  Zn96  1  0.73750721  0.42819645  0.41522401  1
  Zn  Zn97  1  0.68833038  0.44309577  0.94629461  1
  Zn  Zn98  1  0.68512992  0.93958020  0.44662369  1
  Zn  Zn99  1  0.68714528  0.93439263  0.93393249  1
  Zn  Zn100  1  0.31817920  0.08109874  0.06342279  1
  Zn  Zn101  1  0.31604103  0.07143580  0.55852573  1
  Zn  Zn102  1  0.30582896  0.56352796  0.05199827  1
  Zn  Zn103  1  0.30930948  0.55493984  0.56035163  1
  Zn  Zn104  1  0.81587076  0.05538245  0.07149750  1
  Zn  Zn105  1  0.85076241  0.09098087  0.52979334  1
  Zn  Zn106  1  0.81156722  0.56120738  0.06631389  1
  Zn  Zn107  1  0.81628282  0.62479778  0.54176949  1
  Zn  Zn108  1  0.41784283  0.45546846  0.15333677  1
  Zn  Zn109  1  0.44935803  0.43986211  0.69164095  1
  Zn  Zn110  1  0.43713827  0.94076114  0.19153867  1
  Zn  Zn111  1  0.44064961  0.94238069  0.69287801  1
  Zn  Zn112  1  0.94093322  0.43575054  0.18351113  1
  Zn  Zn113  1  0.93959556  0.42970067  0.66810491  1
  Zn  Zn114  1  0.95928877  0.94843736  0.20344656  1
  Zn  Zn115  1  0.95433411  0.94574074  0.68877266  1
  Zn  Zn116  1  0.07042331  0.05303031  0.31930830  1
  Zn  Zn117  1  0.05767087  0.05714655  0.80817523  1
  Zn  Zn118  1  0.05470245  0.54333245  0.30562576  1
  Zn  Zn119  1  0.03329306  0.53945103  0.77115969  1
  Zn  Zn120  1  0.57062401  0.06512671  0.32844190  1
  Zn  Zn121  1  0.56358024  0.07194149  0.81393990  1
  Zn  Zn122  1  0.56398323  0.55237456  0.30601472  1
  Zn  Zn123  1  0.52630978  0.58323214  0.84946121  1
  Zn  Zn124  1  0.43088528  0.18942725  0.43189992  1
  Zn  Zn125  1  0.43379643  0.18869705  0.95472604  1
  Zn  Zn126  1  0.42538817  0.67626574  0.43573752  1
  Zn  Zn127  1  0.40645556  0.66470560  0.95646688  1
  Zn  Zn128  1  0.94892981  0.18764456  0.41824308  1
  Zn  Zn129  1  0.93536232  0.18745829  0.94476318  1
  Zn  Zn130  1  0.89638294  0.73742459  0.41276913  1
  Zn  Zn131  1  0.95911594  0.66871177  0.91243370  1
  Zn  Zn132  1  0.05419873  0.31198673  0.06266710  1
  Zn  Zn133  1  0.06341251  0.31831417  0.55023576  1
  Zn  Zn134  1  0.07627564  0.80661884  0.05793578  1
  Zn  Zn135  1  0.06770535  0.82152150  0.55822139  1
  Zn  Zn136  1  0.58384377  0.30348861  -0.04249655  1
  Zn  Zn137  1  0.58025442  0.30417435  0.57420937  1
  Zn  Zn138  1  0.54913222  0.80283515  0.06537850  1
  Zn  Zn139  1  0.56667309  0.80740958  0.56151083  1
  O  O140  1  0.11588986  0.11917813  0.11553295  1
  O  O141  1  0.13877403  0.10881291  0.63675328  1
  O  O142  1  0.11941585  0.60222936  0.11634643  1
  O  O143  1  0.14469271  0.60202497  0.62873011  1
  O  O144  1  0.61805731  0.11080014  0.11997368  1
  O  O145  1  0.60925830  0.12914374  0.62032650  1
  O  O146  1  0.62413937  0.63695902  0.12542859  1
  O  O147  1  0.61853801  0.62997722  0.62399609  1
  O  O148  1  0.36219592  0.39111278  0.36122442  1
  O  O149  1  0.35916373  0.39485896  0.87540368  1
  O  O150  1  0.37291243  0.89584468  0.38090931  1
  O  O151  1  0.38458782  0.88812975  0.86781704  1
  O  O152  1  0.85035072  0.38588245  0.39194112  1
  O  O153  1  0.88102731  0.36613574  0.86294999  1
  O  O154  1  0.88970313  0.86564656  0.37998520  1
  O  O155  1  0.88894761  0.87255003  0.87364442  1
  O  O156  1  0.25930025  0.00387583  0.36666425  1
  O  O157  1  0.25689401  0.00963248  0.87379040  1
  O  O158  1  0.25243688  0.50730888  0.36271092  1
  O  O159  1  0.26932343  0.51787987  0.88715584  1
  O  O160  1  0.75495954  -0.00857038  0.36370886  1
  O  O161  1  0.76882169  -0.01062402  0.88317333  1
  O  O162  1  0.74019810  0.51029965  0.33968540  1
  O  O163  1  0.74015155  0.52244353  0.86931184  1
  O  O164  1  0.24007615  0.49176286  0.12102621  1
  O  O165  1  0.23949406  0.47977537  0.61831809  1
  O  O166  1  0.24463776  1.01311680  0.13448076  1
  O  O167  1  0.24910308  0.99018072  0.62218715  1
  O  O168  1  0.73132816  0.50654895  0.12447982  1
  O  O169  1  0.74411510  0.49968298  0.64156271  1
  O  O170  1  0.73405427  0.99529167  0.13536016  1
  O  O171  1  0.79295970  0.96601601  0.64518870  1
  O  O172  1  0.01980030  0.37778625  0.23876314  1
  O  O173  1  0.00997039  0.36850146  0.76258551  1
  O  O174  1  0.00406189  0.87282654  0.26818919  1
  O  O175  1  0.00726493  0.86954091  0.75971451  1
  O  O176  1  0.50186285  0.37276755  0.24872834  1
  O  O177  1  0.50453824  0.36635206  0.75325624  1
  O  O178  1  0.50154582  0.87206923  0.25857146  1
  O  O179  1  0.50381486  0.87134277  0.75968807  1
  O  O180  1  0.51901022  0.12136717  0.24419343  1
  O  O181  1  0.49125978  0.12684035  0.74018206  1
  O  O182  1  0.48521676  0.63938573  0.25313841  1
  O  O183  1  0.50617436  0.64486261  0.73887397  1
  O  O184  1  1.00788654  0.11432554  0.24100693  1
  O  O185  1  1.00237938  0.14513222  0.75508582  1
  O  O186  1  0.99799378  0.60600339  0.22516025  1
  O  O187  1  0.98597607  0.64506687  0.76223095  1
  O  O188  1  0.35709514  0.20294646  0.03850176  1
  O  O189  1  0.35373766  0.25264025  0.48890343  1
  O  O190  1  0.40037869  0.76431938  0.01397490  1
  O  O191  1  0.35804633  0.74565885  0.51403277  1
  O  O192  1  0.87134859  0.24192700  0.02031251  1
  O  O193  1  0.86616061  0.24939827  0.51412592  1
  O  O194  1  0.85469175  0.79467792  0.02759546  1
  O  O195  1  0.83409393  0.73608931  0.50907985  1
  O  O196  1  0.14412108  0.26269854  0.49706050  1
  O  O197  1  0.11173186  0.23819844  0.98631939  1
  O  O198  1  0.14581942  0.74287097  0.52063255  1
  O  O199  1  0.14024769  0.73416109  0.99737294  1
  O  O200  1  0.64689174  0.23784566  0.50360003  1
  O  O201  1  0.65061737  0.23093875  1.01674774  1
  O  O202  1  0.65518821  0.75718898  0.51116638  1
  O  O203  1  0.60862810  0.75540649  0.98103664  1
  O  O204  1  0.48944289  0.23214553  0.12747461  1
  O  O205  1  0.49599417  0.24083788  0.61842623  1
  O  O206  1  0.48003971  0.76151812  0.14437460  1
  O  O207  1  0.48656827  0.74602675  0.62887292  1
  O  O208  1  0.99362339  0.23100643  0.12359411  1
  O  O209  1  0.98553155  0.26894472  0.63399103  1
  O  O210  1  1.00925359  0.72779799  0.10867893  1
  O  O211  1  1.00050191  0.76269352  0.63631696  1
  O  O212  1  -0.01823993  0.28870140  0.38259688  1
  O  O213  1  0.00572364  0.26188216  0.87022966  1
  O  O214  1  0.00680283  0.76089819  0.39030802  1
  O  O215  1  0.00352054  0.76489419  0.87056936  1
  O  O216  1  0.52362766  0.24460261  0.38937042  1
  O  O217  1  0.49787381  0.25691193  0.89662290  1
  O  O218  1  0.47571183  0.75213260  0.36169994  1
  O  O219  1  0.50089351  0.75670433  0.86200339  1
  O  O220  1  0.24679783  0.13664988  0.49630976  1
  O  O221  1  0.23391430  0.11684998  0.98755239  1
  O  O222  1  0.25341881  0.63142503  0.48071489  1
  O  O223  1  0.28974345  0.65141232  0.98713459  1
  O  O224  1  0.73435891  0.10176172  0.52643265  1
  O  O225  1  0.74031913  0.10583417  1.00425841  1
  O  O226  1  0.74599584  0.59184726  0.46450364  1
  O  O227  1  0.75993981  0.62966072  0.98548697  1
  O  O228  1  0.24481459  0.36970575  0.00966459  1
  O  O229  1  0.25489358  0.36940819  0.50872436  1
  O  O230  1  0.24998409  0.85424591  -0.00619405  1
  O  O231  1  0.24944168  0.86193510  0.50976143  1
  O  O232  1  0.75318394  0.36692702  0.00991778  1
  O  O233  1  0.74857633  0.37447817  0.52104656  1
  O  O234  1  0.73564284  0.84542468  0.00002788  1
  O  O235  1  0.75619493  0.88726313  0.51358562  1
  O  O236  1  0.13586225  0.49073704  0.23227960  1
  O  O237  1  0.13357405  0.47999310  0.75871640  1
  O  O238  1  0.13494826  1.00152735  0.23495555  1
  O  O239  1  0.12432745  0.98816377  0.73863815  1
  O  O240  1  0.63139251  0.50242922  0.22428235  1
  O  O241  1  0.62243142  0.51314963  0.76094247  1
  O  O242  1  0.62237503  0.98702301  0.24568575  1
  O  O243  1  0.61375323  0.99274705  0.75258798  1
  O  O244  1  0.36791814  0.00080779  0.26200003  1
  O  O245  1  0.37564751  0.01200581  0.76379956  1
  O  O246  1  0.36116948  0.50629965  0.24463080  1
  O  O247  1  0.36287930  0.49806910  0.74764829  1
  O  O248  1  0.85457229  -0.02177665  0.23599566  1
  O  O249  1  0.91190492  0.02277717  0.75526271  1
  O  O250  1  0.85612537  0.49734735  0.22390335  1
  O  O251  1  0.88777832  0.51826622  0.74941550  1
  O  O252  1  0.13691755  0.37744949  0.35314483  1
  O  O253  1  0.13765476  0.36223535  0.86288959  1
  O  O254  1  0.12290446  0.87552410  0.37172612  1
  O  O255  1  0.12404542  0.88364965  0.85892217  1
  O  O256  1  0.64483366  0.35615426  0.39048715  1
  O  O257  1  0.63762724  0.36922140  0.87805135  1
  O  O258  1  0.61444827  0.88139534  0.37364216  1
  O  O259  1  0.61030912  0.86848844  0.86957944  1
  O  O260  1  0.40114127  0.10429512  0.14212775  1
  O  O261  1  0.38187196  0.12527548  0.64004596  1
  O  O262  1  0.37037615  0.61807013  0.13975531  1
  O  O263  1  0.36536364  0.63620700  0.62794892  1
  O  O264  1  0.89468572  0.11751476  0.12868205  1
  O  O265  1  0.88428133  0.14197129  0.62955356  1
  O  O266  1  0.89280309  0.62401623  0.11507170  1
  O  O267  1  0.86879570  0.62737552  0.63984883  1
  O  O268  1  0.24040438  0.25603511  0.12106490  1
  O  O269  1  0.25266227  0.26131360  0.61356097  1
  O  O270  1  0.27142030  0.74594957  0.10876562  1
  O  O271  1  0.26066828  0.76003992  0.62902564  1
  O  O272  1  0.76772851  0.23323438  0.12034453  1
  O  O273  1  0.76041624  0.24434561  0.61250871  1
  O  O274  1  0.79633326  0.76287067  0.16234238  1
  O  O275  1  0.75098895  0.76902531  0.64305499  1
  O  O276  1  0.25041063  0.23589217  0.37603080  1
  O  O277  1  0.24004533  0.23699145  0.86999979  1
  O  O278  1  0.23799835  0.73879338  0.38138423  1
  O  O279  1  0.25108246  0.75163470  0.87665015  1
  O  O280  1  0.75598893  0.24462569  0.40086740  1
  O  O281  1  0.76717193  0.24564442  0.90803745  1
  O  O282  1  0.74594312  0.73768461  0.36649910  1
  O  O283  1  0.73296521  0.74379115  0.86705051  1
  O  O284  1  0.00999763  0.10891690  -0.00048291  1
  O  O285  1  0.00839492  0.10802472  0.48539459  1
  O  O286  1  -0.00034527  0.60284150  -0.00413338  1
  O  O287  1  0.00886895  0.62175707  0.50315968  1
  O  O288  1  0.51278095  0.11123142  0.01182749  1
  O  O289  1  0.50313231  0.12299307  0.51397404  1
  O  O290  1  0.50166969  0.59818379  -0.02284903  1
  O  O291  1  0.49732619  0.63735933  0.51436106  1
  O  O292  1  0.51564759  0.39201832  0.50975735  1
  O  O293  1  0.51731739  0.39171641  1.00120332  1
  O  O294  1  0.50154308  0.88899448  0.51032423  1
  O  O295  1  0.50415727  0.89123499  0.99105248  1
  O  O296  1  0.97834129  0.38679318  0.51189252  1
  O  O297  1  1.00039767  0.38015753  0.98156555  1
  O  O298  1  1.01716465  0.88924251  0.48552165  1
  O  O299  1  1.01032606  0.88130662  0.98987910  1
  O  O300  1  0.48077447  0.50083667  0.35917102  1
  O  O301  1  0.47758440  0.48221289  0.88582048  1
  O  O302  1  0.48904723  1.01047450  0.39131303  1
  O  O303  1  0.49335109  0.99720729  0.88312412  1
  O  O304  1  0.99519196  0.46931762  0.36924305  1
  O  O305  1  0.99863965  0.48526799  0.87759411  1
  O  O306  1  0.99833797  0.98918110  0.38260690  1
  O  O307  1  1.00639295  0.98847570  0.88886277  1
  O  O308  1  0.01467132  0.00498011  0.11889114  1
  O  O309  1  0.02238939  -0.00604230  0.61211156  1
  O  O310  1  0.01046769  0.49361038  0.10200566  1
  O  O311  1  0.02296950  0.50379438  0.65171615  1
  O  O312  1  0.51095129  0.00276990  0.12309102  1
  O  O313  1  0.48942834  0.01120102  0.61354540  1
  O  O314  1  0.51840058  0.50315930  0.12031396  1
  O  O315  1  0.49431081  0.52355383  0.62946741  1
  O  O316  1  0.24239300  0.37965409  0.23091438  1
  O  O317  1  0.24000884  0.36110981  0.73089638  1
  O  O318  1  0.24897500  0.89493539  0.25203307  1
  O  O319  1  0.24214703  0.87769296  0.74302836  1
  O  O320  1  0.74846297  0.38294839  0.24570310  1
  O  O321  1  0.75068446  0.40509929  0.75374296  1
  O  O322  1  0.72341448  0.88109512  0.25460666  1
  O  O323  1  0.72688725  0.88157202  0.76485453  1
  O  O324  1  0.24801177  0.11248739  0.26128419  1
  O  O325  1  0.26179074  0.12389635  0.75742624  1
  O  O326  1  0.25349318  0.61679137  0.25381114  1
  O  O327  1  0.20627831  0.63410041  0.79276115  1
  O  O328  1  0.74310795  0.09839020  0.25242018  1
  O  O329  1  0.77300982  0.10457244  0.74087717  1
  O  O330  1  0.76403382  0.62294379  0.24789868  1
  O  O331  1  0.75588073  0.61758195  0.75272455  1
  O  O332  1  0.35784808  0.11264211  0.38292913  1
  O  O333  1  0.36929633  0.12164297  0.86829880  1
  O  O334  1  0.36117466  0.61463987  0.35774461  1
  O  O335  1  0.40168612  0.60709879  0.85693310  1
  O  O336  1  0.86474416  0.10829398  0.41052021  1
  O  O337  1  0.87867087  0.13247699  0.86449839  1
  O  O338  1  0.86364304  0.63867017  0.36362294  1
  O  O339  1  0.85790741  0.64145973  0.86132496  1
  O  O340  1  0.13169700  0.37860082  0.12421591  1
  O  O341  1  0.12186075  0.38150180  0.63797582  1
  O  O342  1  0.12773228  0.89061256  0.11935065  1
  O  O343  1  0.14180617  0.88329566  0.63297078  1
  O  O344  1  0.56069985  0.35046115  0.21217316  1
  O  O345  1  0.64679124  0.36742240  0.64075760  1
  O  O346  1  0.61516396  0.88414003  0.12670707  1
  O  O347  1  0.61615672  0.87620696  0.64235145  1
  O  O348  1  0.12677884  0.25924122  0.24516133  1
  O  O349  1  0.11770912  0.25676495  0.75675920  1
  O  O350  1  0.12573203  0.74101059  0.23009791  1
  O  O351  1  0.11302436  0.76731943  0.74293871  1
  O  O352  1  0.64821374  0.23729458  0.27903430  1
  O  O353  1  0.68358785  0.25362310  0.76025756  1
  O  O354  1  0.60139999  0.76761814  0.25085488  1
  O  O355  1  0.60882242  0.76375586  0.75766808  1
  O  O356  1  0.35866287  0.23631623  0.22726239  1
  O  O357  1  0.37365474  0.23763519  0.75806431  1
  O  O358  1  0.37428546  0.74035971  0.23776120  1
  O  O359  1  0.38733681  0.75749932  0.73695850  1
  O  O360  1  0.86647156  0.23538205  0.24357789  1
  O  O361  1  0.87737434  0.23953855  0.74197829  1
  O  O362  1  0.85459966  0.78613317  0.20165076  1
  O  O363  1  0.88627879  0.75557828  0.74845124  1
  O  O364  1  0.37055320  0.50530266  0.47816097  1
  O  O365  1  0.39325732  0.49051426  1.03381766  1
  O  O366  1  0.38261171  1.00147687  0.49538514  1
  O  O367  1  0.38289188  1.01355816  0.98814670  1
  O  O368  1  0.95313922  0.57444785  0.50215412  1
  O  O369  1  0.88327085  0.49282502  0.99965335  1
  O  O370  1  0.90341746  0.99010349  0.51550657  1
  O  O371  1  0.89621105  0.99507238  1.01266322  1
  O  O372  1  0.12171986  0.00572084  0.01022881  1
  O  O373  1  0.13008398  0.00081466  0.51286599  1
  O  O374  1  0.12663846  0.48984369  0.00227691  1
  O  O375  1  0.11992301  0.49069408  0.51180053  1
  O  O376  1  0.62022508  0.00073890  0.01306162  1
  O  O377  1  0.60698671  0.01069453  0.49831658  1
  O  O378  1  0.62268654  0.50873422  0.01459810  1
  O  O379  1  0.55487545  0.45258667  0.49333731  1
  O  O380  1  0.36253899  0.35574190  0.12210828  1
  O  O381  1  0.36942974  0.38216141  0.62343474  1
  O  O382  1  0.36931169  0.87913815  0.12387153  1
  O  O383  1  0.36108808  0.87403628  0.63135191  1
  O  O384  1  0.88559236  0.34898253  0.13232379  1
  O  O385  1  0.85243608  0.36279672  0.64115306  1
  O  O386  1  0.81383737  0.85744339  0.02159499  1
  O  O387  1  0.84160408  0.91113558  0.64907553  1
  O  O388  1  0.14616762  0.11022313  0.38047275  1
  O  O389  1  0.12934909  0.12964406  0.87643134  1
  O  O390  1  0.13514992  0.60875668  0.36450457  1
  O  O391  1  0.14868930  0.62390242  0.83719540  1
  O  O392  1  0.63954281  0.12988349  0.39908519  1
  O  O393  1  0.62194612  0.12057506  0.89758654  1
  O  O394  1  0.63826158  0.63046751  0.34097386  1
  O  O395  1  0.62941176  0.64170472  0.86907838  1
