# generated using pymatgen
data_V35Zn35O128
_symmetry_space_group_name_H-M   'P 1'
_cell_length_a   16.85302854
_cell_length_b   16.86332609
_cell_length_c   16.86246922
_cell_angle_alpha   90.04590498
_cell_angle_beta   90.14212119
_cell_angle_gamma   89.99920905
_symmetry_Int_Tables_number   1
_chemical_formula_structural   V35Zn35O128
_chemical_formula_sum   'V70 Zn70 O256'
_cell_volume   4792.26570087
_cell_formula_units_Z   2
loop_
 _symmetry_equiv_pos_site_id
 _symmetry_equiv_pos_as_xyz
  1  'x, y, z'
loop_
 _atom_site_type_symbol
 _atom_site_label
 _atom_site_symmetry_multiplicity
 _atom_site_fract_x
 _atom_site_fract_y
 _atom_site_fract_z
 _atom_site_occupancy
  V  V0  1  -0.00506387  0.12196459  0.63247838  1
  V  V1  1  0.63584580  0.88614651  0.22689270  1
  V  V2  1  0.52481581  0.84959340  0.86794189  1
  V  V3  1  0.25939639  0.74904884  0.00262010  1
  V  V4  1  0.86284663  0.61994268  0.25304354  1
  V  V5  1  0.88325500  0.24343447  0.12121975  1
  V  V6  1  0.36240582  0.24769286  0.62024514  1
  V  V7  1  0.13159835  0.12289755  0.50976162  1
  V  V8  1  0.87269475  0.37949175  -0.00577566  1
  V  V9  1  -0.00288627  0.88892389  0.87793622  1
  V  V10  1  0.49946157  0.12471774  0.62932626  1
  V  V11  1  0.76831697  0.86838323  0.62157527  1
  V  V12  1  0.51677609  0.13485460  0.11581572  1
  V  V13  1  0.10446932  0.37398628  0.76492192  1
  V  V14  1  0.00965247  0.26241746  0.26151696  1
  V  V15  1  0.62561359  0.64515738  -0.00199934  1
  V  V16  1  0.38265346  0.38997360  0.50770741  1
  V  V17  1  -0.01122757  0.63872025  0.12284568  1
  V  V18  1  0.24761405  0.12574323  0.35800852  1
  V  V19  1  0.75007271  0.60771900  0.38012733  1
  V  V20  1  0.86858522  0.25102812  0.63592291  1
  V  V21  1  0.60746077  0.48916694  0.62415499  1
  V  V22  1  0.24834610  0.62052032  0.86494133  1
  V  V23  1  -0.00569956  0.75948357  0.26100914  1
  V  V24  1  0.12607871  0.87690141  0.74729196  1
  V  V25  1  0.50051911  0.62877723  0.13875932  1
  V  V26  1  0.38197835  -0.01735109  0.88589622  1
  V  V27  1  0.12985420  0.62698927  0.50139146  1
  V  V28  1  0.49069825  -0.00100479  0.50445502  1
  V  V29  1  0.62854494  0.39390160  0.25771172  1
  V  V30  1  0.12526246  0.88932372  0.25168457  1
  V  V31  1  -0.00021084  0.49667510  0.00455743  1
  V  V32  1  0.73107084  0.24862643  -0.00159508  1
  V  V33  1  0.23843340  0.39475130  0.63685987  1
  V  V34  1  0.85728514  0.36538075  0.49156298  1
  V  V35  1  0.39235327  0.63353459  0.74304651  1
  V  V36  1  0.47964615  0.24752068  0.25976255  1
  V  V37  1  0.74518335  0.48727797  0.74173647  1
  V  V38  1  0.61631638  0.62506628  0.50975198  1
  V  V39  1  0.63260494  0.13074989  0.49089561  1
  V  V40  1  0.50685517  0.50286126  0.00371359  1
  V  V41  1  0.74217566  0.63783639  0.86697203  1
  V  V42  1  0.77135933  -0.00038242  0.75297670  1
  V  V43  1  0.36783011  0.00222030  0.36525608  1
  V  V44  1  0.38256484  0.50368126  0.36636853  1
  V  V45  1  0.12488228  0.62163465  0.00898906  1
  V  V46  1  -0.01059105  -0.00673088  0.48497764  1
  V  V47  1  0.74514977  0.12964241  0.86855340  1
  V  V48  1  0.25206688  0.88658066  0.12661767  1
  V  V49  1  0.24784419  0.86129302  0.62568548  1
  V  V50  1  0.24311056  0.00584546  0.75128334  1
  V  V51  1  0.76630310  0.75570159  0.48512806  1
  V  V52  1  0.74374804  0.39689748  0.12582727  1
  V  V53  1  0.87414767  0.50649204  0.86907202  1
  V  V54  1  0.87660576  0.11912757  0.26656187  1
  V  V55  1  0.36899758  0.12701251  0.76600730  1
  V  V56  1  0.51359841  0.37316407  0.87535109  1
  V  V57  1  0.62680337  -0.00860441  0.63490181  1
  V  V58  1  -0.00755793  0.60701277  0.62589919  1
  V  V59  1  0.12438462  0.74791142  0.87488319  1
  V  V60  1  0.36630230  0.49239473  0.86941225  1
  V  V61  1  -0.01020329  0.74443045  0.74056624  1
  V  V62  1  0.36713581  0.86072106  0.51265422  1
  V  V63  1  0.49579574  0.85618668  0.37796370  1
  V  V64  1  0.88048055  0.85760996  0.00865819  1
  V  V65  1  0.37750125  0.74742276  0.14476188  1
  V  V66  1  0.00587106  0.48355181  0.47558898  1
  V  V67  1  0.51090973  0.25067053  0.75865772  1
  V  V68  1  0.11209362  0.11511276  0.01423769  1
  V  V69  1  0.25213801  0.25325588  0.01367384  1
  Zn  Zn70  1  0.12473430  0.24354480  0.87905994  1
  Zn  Zn71  1  0.13465711  0.26242447  0.38445980  1
  Zn  Zn72  1  0.36824880  0.37294908  0.00585965  1
  Zn  Zn73  1  0.25436440  0.62120198  0.37373828  1
  Zn  Zn74  1  0.18105460  0.35539808  0.18617414  1
  Zn  Zn75  1  0.13154717  0.75306511  0.37769508  1
  Zn  Zn76  1  0.18435176  0.18011953  0.17925194  1
  Zn  Zn77  1  0.17602623  0.19152668  0.69109094  1
  Zn  Zn78  1  0.20103802  0.70355284  0.21404236  1
  Zn  Zn79  1  0.17985617  0.68241398  0.68311377  1
  Zn  Zn80  1  0.70425938  0.17209101  0.17095222  1
  Zn  Zn81  1  0.69022816  0.18356071  0.68337274  1
  Zn  Zn82  1  0.67212596  0.69379049  0.19932480  1
  Zn  Zn83  1  0.70712408  0.67464948  0.67372009  1
  Zn  Zn84  1  0.31668489  0.31436080  0.32862670  1
  Zn  Zn85  1  0.30083722  0.30623057  0.81737091  1
  Zn  Zn86  1  0.30886265  0.81562925  0.31834686  1
  Zn  Zn87  1  0.31622957  0.81020042  0.81247234  1
  Zn  Zn88  1  0.81311410  0.31698977  0.30102252  1
  Zn  Zn89  1  0.81168411  0.31051466  0.81247910  1
  Zn  Zn90  1  0.80940841  0.81216565  0.18435380  1
  Zn  Zn91  1  0.81352725  0.81893403  0.80913447  1
  Zn  Zn92  1  0.20051879  0.44174019  0.44955151  1
  Zn  Zn93  1  0.18122211  0.42879188  0.93844133  1
  Zn  Zn94  1  0.17970710  0.94397265  0.43809203  1
  Zn  Zn95  1  0.19422514  0.94048364  0.93765548  1
  Zn  Zn96  1  0.67929166  0.43453352  0.44524439  1
  Zn  Zn97  1  0.69201712  0.44604841  0.93810481  1
  Zn  Zn98  1  0.66153294  0.95616179  0.41150298  1
  Zn  Zn99  1  0.69891787  0.91920914  0.92383469  1
  Zn  Zn100  1  0.31301887  0.07071345  0.06159317  1
  Zn  Zn101  1  0.30737433  0.05743738  0.56968026  1
  Zn  Zn102  1  0.32043255  0.56435391  0.05897984  1
  Zn  Zn103  1  0.30802098  0.56436381  0.56993709  1
  Zn  Zn104  1  0.83370351  0.07576510  0.01940255  1
  Zn  Zn105  1  0.81734734  0.06558905  0.55721963  1
  Zn  Zn106  1  0.80501978  0.68115546  0.05605536  1
  Zn  Zn107  1  0.82429173  0.55205153  0.55622544  1
  Zn  Zn108  1  0.45280680  0.43607929  0.19592008  1
  Zn  Zn109  1  0.43160839  0.43349710  0.69334880  1
  Zn  Zn110  1  0.45136268  0.92788011  0.18146830  1
  Zn  Zn111  1  0.43550047  0.93337352  0.69621675  1
  Zn  Zn112  1  0.93577210  0.43931465  0.18256149  1
  Zn  Zn113  1  0.93176268  0.42805063  0.68605127  1
  Zn  Zn114  1  0.94351534  0.94402736  0.18065254  1
  Zn  Zn115  1  0.94888905  0.94181531  0.68058577  1
  Zn  Zn116  1  0.05399833  0.07474296  0.30936234  1
  Zn  Zn117  1  0.03865810  0.09516564  0.83835598  1
  Zn  Zn118  1  0.06170645  0.56919908  0.31149548  1
  Zn  Zn119  1  0.06372944  0.55796630  0.81035154  1
  Zn  Zn120  1  0.55853939  0.06139115  0.30565211  1
  Zn  Zn121  1  0.56433135  0.05749326  0.82181869  1
  Zn  Zn122  1  0.55962651  0.56382885  0.32827921  1
  Zn  Zn123  1  0.56669821  0.56010679  0.81078889  1
  Zn  Zn124  1  0.43567810  0.18608241  0.43737611  1
  Zn  Zn125  1  0.43422902  0.19132128  0.94748998  1
  Zn  Zn126  1  0.42889569  0.67816211  0.44734625  1
  Zn  Zn127  1  0.43790346  0.68599734  0.92837733  1
  Zn  Zn128  1  0.94405843  0.19077318  0.44233918  1
  Zn  Zn129  1  0.93260471  0.18865849  0.93266698  1
  Zn  Zn130  1  0.93869601  0.68195686  0.44123337  1
  Zn  Zn131  1  0.93894001  0.68464568  0.92668955  1
  Zn  Zn132  1  0.06916484  0.31346879  0.06046043  1
  Zn  Zn133  1  0.06386009  0.30416148  0.56950955  1
  Zn  Zn134  1  0.07098404  0.81737451  0.06271248  1
  Zn  Zn135  1  0.05875972  0.81316773  0.55805213  1
  Zn  Zn136  1  0.55770627  0.31787005  0.07282090  1
  Zn  Zn137  1  0.56389786  0.30924140  0.56497733  1
  Zn  Zn138  1  0.54927731  0.82460911  0.05743155  1
  Zn  Zn139  1  0.59076086  0.82502790  0.52862264  1
  O  O140  1  0.11359271  0.11908373  0.11670956  1
  O  O141  1  0.11629822  0.12846016  0.61659572  1
  O  O142  1  0.11340958  0.62773445  0.11047644  1
  O  O143  1  0.10888479  0.62981107  0.61088798  1
  O  O144  1  0.61488938  0.11337150  0.13580269  1
  O  O145  1  0.61344932  0.11494888  0.62085093  1
  O  O146  1  0.60738192  0.63236214  0.11132457  1
  O  O147  1  0.63482501  0.60843534  0.61612951  1
  O  O148  1  0.36836767  0.38780084  0.40083138  1
  O  O149  1  0.37783446  0.38618637  0.87643938  1
  O  O150  1  0.37230637  0.88230272  0.39325558  1
  O  O151  1  0.37800179  0.87997542  0.87782092  1
  O  O152  1  0.86552190  0.36111989  0.38934804  1
  O  O153  1  0.86427862  0.38752789  0.88699120  1
  O  O154  1  0.83043031  0.91998329  0.36014854  1
  O  O155  1  0.89369069  0.87023262  0.87975192  1
  O  O156  1  0.26115921  0.00584426  0.37906672  1
  O  O157  1  0.26436167  -0.01341317  0.85626798  1
  O  O158  1  0.27148553  0.50818399  0.39034272  1
  O  O159  1  0.26100610  0.50480261  0.88435014  1
  O  O160  1  0.78587376  -0.02323776  0.37363900  1
  O  O161  1  0.75039140  0.00077205  0.85599895  1
  O  O162  1  0.75381839  0.50972549  0.38205626  1
  O  O163  1  0.75540423  0.50789878  0.86508089  1
  O  O164  1  0.29769192  0.46776427  0.12771234  1
  O  O165  1  0.24067339  0.49453041  0.63434694  1
  O  O166  1  0.26197171  0.98389295  0.12288733  1
  O  O167  1  0.25626773  0.98703546  0.64644876  1
  O  O168  1  0.74811794  0.49201873  0.11395601  1
  O  O169  1  0.76124753  0.50364698  0.64177148  1
  O  O170  1  0.72504758  1.00376718  0.07171015  1
  O  O171  1  0.74115994  0.99740736  0.63263978  1
  O  O172  1  -0.01361641  0.36138327  0.24598305  1
  O  O173  1  0.00548203  0.36824824  0.75008602  1
  O  O174  1  0.00972164  0.86645468  0.24115695  1
  O  O175  1  0.00733056  0.86750146  0.75752462  1
  O  O176  1  0.52315723  0.35481319  0.23994756  1
  O  O177  1  0.49668496  0.36125162  0.76341222  1
  O  O178  1  0.49487232  0.87817448  0.27976662  1
  O  O179  1  0.49671333  0.87960192  0.77029837  1
  O  O180  1  0.50414002  0.14231117  0.24680007  1
  O  O181  1  0.48956476  0.13251553  0.75050813  1
  O  O182  1  0.51180836  0.62433121  0.23676579  1
  O  O183  1  0.49232836  0.62233030  0.75362170  1
  O  O184  1  0.98889619  0.15122465  0.24914789  1
  O  O185  1  1.00476296  0.10363455  0.73012493  1
  O  O186  1  0.99257775  0.63325006  0.23769937  1
  O  O187  1  1.00968762  0.63510062  0.73816991  1
  O  O188  1  0.36112753  0.25310229  0.01107567  1
  O  O189  1  0.37808741  0.24857556  0.51875442  1
  O  O190  1  0.36129106  0.74035631  -0.00086595  1
  O  O191  1  0.36731741  0.76208893  0.50319139  1
  O  O192  1  0.87203395  0.26735356  0.00053416  1
  O  O193  1  0.88021877  0.26090001  0.50854906  1
  O  O194  1  0.87763169  0.75185765  -0.00321458  1
  O  O195  1  0.86686817  0.74991980  0.49811380  1
  O  O196  1  0.11896344  0.23118899  0.49518337  1
  O  O197  1  0.12877132  0.23906334  1.00065780  1
  O  O198  1  0.11111432  0.73464713  0.49293583  1
  O  O199  1  0.13277187  0.74058330  0.99150783  1
  O  O200  1  0.61810669  0.23010616  0.50801431  1
  O  O201  1  0.63390632  0.26618807  0.99976351  1
  O  O202  1  0.65118603  0.72781724  0.51695857  1
  O  O203  1  0.61979345  0.74320700  1.00117466  1
  O  O204  1  0.50491666  0.24127794  0.13877507  1
  O  O205  1  0.49091342  0.24273986  0.64315034  1
  O  O206  1  0.48588955  0.74075081  0.11882446  1
  O  O207  1  0.53680791  0.75617984  0.65959370  1
  O  O208  1  0.98389209  0.26041754  0.12143713  1
  O  O209  1  0.99325293  0.23201164  0.62539392  1
  O  O210  1  1.00342617  0.73969629  0.12346155  1
  O  O211  1  1.00194900  0.75206925  0.63911431  1
  O  O212  1  0.01217008  0.25634862  0.36537070  1
  O  O213  1  0.01109533  0.21004522  0.85601440  1
  O  O214  1  -0.00205807  0.74686153  0.36229484  1
  O  O215  1  0.01233108  0.74754166  0.86201761  1
  O  O216  1  0.49112577  0.24972892  0.36106666  1
  O  O217  1  0.49383071  0.26089650  0.86956114  1
  O  O218  1  0.48028530  0.75816020  0.38155900  1
  O  O219  1  0.50863061  0.74825943  0.86905080  1
  O  O220  1  0.23622890  0.11682444  0.50359722  1
  O  O221  1  0.23985988  0.14490829  1.02110095  1
  O  O222  1  0.23263459  0.62552960  0.50772082  1
  O  O223  1  0.24225899  0.62711780  0.99398065  1
  O  O224  1  0.73108230  0.11228179  0.50096464  1
  O  O225  1  0.73667504  0.14551040  1.00110894  1
  O  O226  1  0.76250026  0.62918624  0.48896762  1
  O  O227  1  0.73165926  0.62492254  0.98763314  1
  O  O228  1  0.24872395  0.36646901  0.00371255  1
  O  O229  1  0.26226066  0.37703005  0.52707656  1
  O  O230  1  0.24000558  0.86009017  0.01611985  1
  O  O231  1  0.25453353  0.88248557  0.51639657  1
  O  O232  1  0.75556166  0.37290134  0.00468656  1
  O  O233  1  0.75875098  0.37844013  0.50522153  1
  O  O234  1  0.78549723  0.88356150  -0.01180237  1
  O  O235  1  0.74482679  0.86224736  0.51285658  1
  O  O236  1  0.15278708  0.53255289  0.23626206  1
  O  O237  1  0.12506632  0.47651497  0.76401187  1
  O  O238  1  0.11349760  0.98750197  0.24975422  1
  O  O239  1  0.13905458  0.98812624  0.75874056  1
  O  O240  1  0.61209766  0.49229657  0.25102661  1
  O  O241  1  0.63562988  0.50112996  0.73659576  1
  O  O242  1  0.62872692  0.96936390  0.29814255  1
  O  O243  1  0.62600759  1.00479095  0.73583830  1
  O  O244  1  0.37999419  -0.01102756  0.26866833  1
  O  O245  1  0.37015394  0.01434866  0.75847339  1
  O  O246  1  0.38119667  0.48815808  0.26670490  1
  O  O247  1  0.37949892  0.50786707  0.76622217  1
  O  O248  1  0.90432303  0.02123598  0.24977951  1
  O  O249  1  0.86973611  0.00194870  0.74586001  1
  O  O250  1  0.87620232  0.52199538  0.24069330  1
  O  O251  1  0.86830526  0.49397336  0.76487163  1
  O  O252  1  0.16236115  0.37516100  0.35396974  1
  O  O253  1  0.11308548  0.36570506  0.87270924  1
  O  O254  1  0.13972677  0.87064289  0.35665807  1
  O  O255  1  0.11922520  0.86579946  0.86937514  1
  O  O256  1  0.63528606  0.37869339  0.35744555  1
  O  O257  1  0.61181219  0.37858183  0.87928987  1
  O  O258  1  0.59569116  0.86082640  0.41513489  1
  O  O259  1  0.62766700  0.86340100  0.86270700  1
  O  O260  1  0.40499944  0.09403795  0.13446940  1
  O  O261  1  0.38245513  0.13050640  0.63527110  1
  O  O262  1  0.38695673  0.63425451  0.12508522  1
  O  O263  1  0.37100790  0.61945744  0.64504708  1
  O  O264  1  0.87476050  0.14363666  0.10635776  1
  O  O265  1  0.88512283  0.13494366  0.61990360  1
  O  O266  1  0.88376739  0.63214647  0.13084525  1
  O  O267  1  0.89302706  0.62372896  0.62040041  1
  O  O268  1  0.23450499  0.26819698  0.12329878  1
  O  O269  1  0.26335557  0.24183522  0.62992867  1
  O  O270  1  0.26398657  0.74357996  0.12282717  1
  O  O271  1  0.24756980  0.76196498  0.62975505  1
  O  O272  1  0.75906074  0.25844979  0.10881246  1
  O  O273  1  0.76688413  0.24025134  0.62544870  1
  O  O274  1  0.74446715  0.73995927  0.12795611  1
  O  O275  1  0.75683908  0.76637184  0.63348838  1
  O  O276  1  0.25526986  0.22885579  0.37711875  1
  O  O277  1  0.24654637  0.25368495  0.90060480  1
  O  O278  1  0.23900408  0.72550915  0.32864990  1
  O  O279  1  0.24176031  0.74224934  0.88233251  1
  O  O280  1  0.71109153  0.24298532  0.32644180  1
  O  O281  1  0.75120356  0.24025134  0.88319607  1
  O  O282  1  0.75096097  0.74780793  0.38816236  1
  O  O283  1  0.75229536  0.73711639  0.86312586  1
  O  O284  1  0.01101751  0.12586033  -0.00616500  1
  O  O285  1  0.00936524  0.11666937  0.50433167  1
  O  O286  1  0.00171593  0.62107050  0.00685104  1
  O  O287  1  0.00137679  0.60634256  0.50698400  1
  O  O288  1  0.51082723  0.14271167  0.01475155  1
  O  O289  1  0.49612813  0.11682788  0.51457229  1
  O  O290  1  0.50926346  0.61563906  -0.00562053  1
  O  O291  1  0.51814509  0.63872562  0.50696972  1
  O  O292  1  0.48103685  0.36777918  0.51381297  1
  O  O293  1  0.49419069  0.38432615  0.99419527  1
  O  O294  1  0.47930983  0.87843376  0.50696707  1
  O  O295  1  0.50739283  0.87803912  0.96855157  1
  O  O296  1  1.02062140  0.38427199  0.49490458  1
  O  O297  1  0.98615264  0.38901095  1.00160600  1
  O  O298  1  1.00909226  0.89292908  0.49953322  1
  O  O299  1  0.99958172  0.86325969  0.98388735  1
  O  O300  1  0.48434723  0.50435086  0.38750366  1
  O  O301  1  0.49504435  0.48677649  0.87952282  1
  O  O302  1  0.48291100  0.99430586  0.39171170  1
  O  O303  1  0.48200529  1.00565406  0.87584451  1
  O  O304  1  1.00276159  0.49475703  0.37547983  1
  O  O305  1  0.98041180  0.51630504  0.88486534  1
  O  O306  1  1.00284984  1.00616091  0.38422339  1
  O  O307  1  1.00492950  0.98666786  0.87060576  1
  O  O308  1  -0.03321558  -0.00303236  0.07498765  1
  O  O309  1  -0.00329220  0.01340011  0.60739662  1
  O  O310  1  -0.00883331  0.51487711  0.10850126  1
  O  O311  1  0.00000295  0.50711164  0.63325139  1
  O  O312  1  0.46342285  0.03177974  0.12406288  1
  O  O313  1  0.50481513  0.00469494  0.62579052  1
  O  O314  1  0.49181105  0.51395291  0.11104582  1
  O  O315  1  0.50890156  0.49578090  0.63542512  1
  O  O316  1  0.22314655  0.37920463  0.29269340  1
  O  O317  1  0.26130262  0.37581990  0.73686126  1
  O  O318  1  0.23980611  0.87201609  0.23712342  1
  O  O319  1  0.24511174  0.87673999  0.74295064  1
  O  O320  1  0.74400491  0.38464451  0.23617585  1
  O  O321  1  0.74762065  0.38837207  0.75648414  1
  O  O322  1  0.73297924  0.89736076  0.19911120  1
  O  O323  1  0.75648293  0.89036348  0.73711052  1
  O  O324  1  0.24578676  0.12155888  0.25842494  1
  O  O325  1  0.25766081  0.11487282  0.74662212  1
  O  O326  1  0.21509502  0.57867495  0.23415589  1
  O  O327  1  0.24364005  0.62582236  0.76361264  1
  O  O328  1  0.77837920  0.11855872  0.23570153  1
  O  O329  1  0.75222551  0.11688550  0.76049592  1
  O  O330  1  0.75382739  0.62995940  0.26533307  1
  O  O331  1  0.74282250  0.61415997  0.76305129  1
  O  O332  1  0.36408724  0.11043042  0.38133285  1
  O  O333  1  0.37470739  0.12707952  0.86638026  1
  O  O334  1  0.37333817  0.61301525  0.37697737  1
  O  O335  1  0.36601697  0.61444320  0.86651805  1
  O  O336  1  0.87334836  0.13805467  0.36593355  1
  O  O337  1  0.84706372  0.11037072  0.90719024  1
  O  O338  1  0.86681296  0.62753406  0.36096539  1
  O  O339  1  0.85605451  0.61402719  0.88392717  1
  O  O340  1  0.11023173  0.40115209  0.11558942  1
  O  O341  1  0.13578144  0.36558662  0.64136224  1
  O  O342  1  0.13940995  0.87113746  0.13607575  1
  O  O343  1  0.13532389  0.87081119  0.63654035  1
  O  O344  1  0.63822076  0.37503392  0.13368014  1
  O  O345  1  0.62598525  0.38991236  0.61705794  1
  O  O346  1  0.57034129  0.89980115  0.14292391  1
  O  O347  1  0.62975920  0.88949459  0.61952384  1
  O  O348  1  0.11330945  0.25663918  0.24272381  1
  O  O349  1  0.14210535  0.26694759  0.76350285  1
  O  O350  1  0.10310495  0.75340854  0.24788923  1
  O  O351  1  0.12185966  0.75840634  0.75837500  1
  O  O352  1  0.66045113  0.24868503  0.26824290  1
  O  O353  1  0.60915593  0.23986015  0.75020863  1
  O  O354  1  0.63039481  0.78790404  0.25374095  1
  O  O355  1  0.58942447  0.74847816  0.71016744  1
  O  O356  1  0.38093581  0.26458125  0.24722721  1
  O  O357  1  0.37697403  0.23689917  0.74705817  1
  O  O358  1  0.37777907  0.74776657  0.24275311  1
  O  O359  1  0.37406684  0.73281156  0.75634490  1
  O  O360  1  0.87769868  0.24505837  0.23289480  1
  O  O361  1  0.87672178  0.25670096  0.73799512  1
  O  O362  1  0.88854980  0.74415942  0.24436612  1
  O  O363  1  0.89175072  0.75025757  0.75561639  1
  O  O364  1  0.38186944  0.49113497  0.51867169  1
  O  O365  1  0.38993389  0.50534416  0.98294856  1
  O  O366  1  0.38005548  0.99218378  0.50527288  1
  O  O367  1  0.35989906  1.00503144  0.98108038  1
  O  O368  1  0.89616394  0.47673803  0.50311600  1
  O  O369  1  0.88107525  0.49113956  0.99015051  1
  O  O370  1  0.88668540  1.00308243  0.49513044  1
  O  O371  1  0.90665377  0.98286730  1.02313745  1
  O  O372  1  0.13551059  0.01530809  -0.00450942  1
  O  O373  1  0.11505195  0.01527709  0.49769963  1
  O  O374  1  0.10562104  0.50919857  -0.01531394  1
  O  O375  1  0.11379480  0.51121748  0.49511727  1
  O  O376  1  0.66629372  -0.01113951  0.02802811  1
  O  O377  1  0.60891940  0.00615963  0.51043914  1
  O  O378  1  0.60966121  0.50335591  -0.00328423  1
  O  O379  1  0.62595678  0.51025033  0.51318431  1
  O  O380  1  0.35619305  0.41217225  0.12260608  1
  O  O381  1  0.36812646  0.36132221  0.62705232  1
  O  O382  1  0.36545130  0.85881768  0.13047460  1
  O  O383  1  0.36362120  0.87414256  0.62198090  1
  O  O384  1  0.86175439  0.37348684  0.11286138  1
  O  O385  1  0.88161354  0.35872431  0.61286477  1
  O  O386  1  0.88862052  0.86274050  0.11374438  1
  O  O387  1  0.86627065  0.88311972  0.62030050  1
  O  O388  1  0.14048296  0.12307724  0.37909655  1
  O  O389  1  0.13490837  0.12628537  0.89076429  1
  O  O390  1  0.12645815  0.62602689  0.38776605  1
  O  O391  1  0.12952052  0.63107978  0.88144834  1
  O  O392  1  0.61270486  0.11458393  0.39289060  1
  O  O393  1  0.64510424  0.11273822  0.88039045  1
  O  O394  1  0.63990439  0.61910682  0.39316241  1
  O  O395  1  0.63222832  0.62278766  0.88450302  1
