# generated using pymatgen
data_V35Zn35O128
_symmetry_space_group_name_H-M   'P 1'
_cell_length_a   16.92548197
_cell_length_b   16.90742843
_cell_length_c   16.86155647
_cell_angle_alpha   89.95526128
_cell_angle_beta   90.02926029
_cell_angle_gamma   90.02499437
_symmetry_Int_Tables_number   1
_chemical_formula_structural   V35Zn35O128
_chemical_formula_sum   'V70 Zn70 O256'
_cell_volume   4825.20793298
_cell_formula_units_Z   2
loop_
 _symmetry_equiv_pos_site_id
 _symmetry_equiv_pos_as_xyz
  1  'x, y, z'
loop_
 _atom_site_type_symbol
 _atom_site_label
 _atom_site_symmetry_multiplicity
 _atom_site_fract_x
 _atom_site_fract_y
 _atom_site_fract_z
 _atom_site_occupancy
  V  V0  1  0.49233896  0.62953671  0.60829406  1
  V  V1  1  0.65034015  0.64662057  0.50476842  1
  V  V2  1  0.89704662  -0.01539488  0.87075651  1
  V  V3  1  0.87236862  0.48159019  0.36499008  1
  V  V4  1  0.33677544  0.35206225  0.07538738  1
  V  V5  1  0.11422671  0.50728635  0.63404924  1
  V  V6  1  0.62096871  0.25674389  0.36870536  1
  V  V7  1  0.73270959  0.63195615  0.87626053  1
  V  V8  1  0.00204006  0.24590334  0.24389775  1
  V  V9  1  0.00106815  0.00438452  0.50458866  1
  V  V10  1  0.12443902  0.74710354  0.87312492  1
  V  V11  1  0.26375290  0.24888329  0.49365662  1
  V  V12  1  -0.00660990  0.62689586  0.61536548  1
  V  V13  1  0.49704098  -0.00550068  0.48628757  1
  V  V14  1  0.62893608  0.11563546  0.49416153  1
  V  V15  1  0.23474133  0.01245515  0.24305545  1
  V  V16  1  0.36427800  0.00403444  0.37289811  1
  V  V17  1  0.75043041  0.36472551  0.62747265  1
  V  V18  1  0.12439389  0.48095242  0.12326871  1
  V  V19  1  0.35026340  0.77117071  0.60591533  1
  V  V20  1  0.86832064  0.25100570  0.10712770  1
  V  V21  1  0.75692209  0.24556597  0.49202286  1
  V  V22  1  -0.00716192  0.47624995  0.49237831  1
  V  V23  1  0.73328270  0.75770950  0.00197002  1
  V  V24  1  0.70381555  0.40479621  0.11841630  1
  V  V25  1  0.01757897  -0.00110182  0.01088099  1
  V  V26  1  0.87268344  0.01240218  0.38126041  1
  V  V27  1  0.50189737  0.39753837  0.87320589  1
  V  V28  1  0.01697546  0.36723726  0.86075135  1
  V  V29  1  0.75448878  0.63174611  0.36708998  1
  V  V30  1  0.73949819  -0.00242989  0.75895674  1
  V  V31  1  0.38868373  0.13566680  0.24279444  1
  V  V32  1  0.11875841  0.24471515  0.38006575  1
  V  V33  1  0.88659264  0.86141635  0.01057731  1
  V  V34  1  0.86766409  0.75315383  0.62560847  1
  V  V35  1  0.25792304  0.15740742  0.86958307  1
  V  V36  1  0.74374407  0.88059926  0.62453369  1
  V  V37  1  0.12404416  0.12637714  0.50498017  1
  V  V38  1  0.12229906  0.62082245  0.01066331  1
  V  V39  1  0.88297587  0.24276165  0.63196558  1
  V  V40  1  0.87943976  0.86825441  0.49644455  1
  V  V41  1  0.74524196  0.49272295  0.74867529  1
  V  V42  1  0.11663698  0.38152676  0.26893720  1
  V  V43  1  0.26216656  0.50369580  0.74531391  1
  V  V44  1  0.13473062  -0.00456449  0.62490052  1
  V  V45  1  0.13022936  0.15318162  -0.00178138  1
  V  V46  1  0.00060948  0.75475142  0.75375254  1
  V  V47  1  0.87350308  0.62494586  0.75359761  1
  V  V48  1  0.50479832  0.11390332  0.62922681  1
  V  V49  1  0.87144870  0.48890211  0.87636107  1
  V  V50  1  0.42827117  0.44397053  0.41810390  1
  V  V51  1  0.38805355  0.25391973  0.63195011  1
  V  V52  1  0.08272472  0.77557030  0.37390736  1
  V  V53  1  0.90046072  0.12210196  0.75077415  1
  V  V54  1  0.24288817  0.88094352  0.12524970  1
  V  V55  1  0.75610804  -0.01125571  0.24087990  1
  V  V56  1  0.62431939  0.24756540  0.88770209  1
  V  V57  1  0.24442718  0.51011029  0.27503347  1
  V  V58  1  0.26758962  -0.00461962  0.76122991  1
  V  V59  1  0.60648753  0.87155094  0.26073153  1
  V  V60  1  0.51782005  0.26142433  0.74612521  1
  V  V61  1  0.38062126  0.74063068  0.13156232  1
  V  V62  1  0.20523685  0.33739930  0.64735790  1
  V  V63  1  -0.01267480  0.49352467  0.00497462  1
  V  V64  1  0.63053903  0.49401001  0.60980999  1
  V  V65  1  0.25456885  0.61104931  0.87529156  1
  V  V66  1  0.88578822  0.62866384  0.23291388  1
  V  V67  1  0.87571022  0.12920784  0.24399471  1
  V  V68  1  0.13276701  0.87129622  0.74572124  1
  V  V69  1  0.60528733  0.00049135  0.12070870  1
  Zn  Zn70  1  0.64167040  0.12937409  0.01006526  1
  Zn  Zn71  1  0.14514483  0.63182727  0.47307761  1
  Zn  Zn72  1  0.49476662  0.75148666  0.73770890  1
  Zn  Zn73  1  0.25492895  0.76281601  -0.00206651  1
  Zn  Zn74  1  0.76098465  0.13337836  0.88105913  1
  Zn  Zn75  1  0.61418860  -0.12962338  0.74504775  1
  Zn  Zn76  1  0.20515080  0.21091234  0.18362183  1
  Zn  Zn77  1  0.20047411  0.16600721  0.68308247  1
  Zn  Zn78  1  0.23291051  0.71724986  0.23144588  1
  Zn  Zn79  1  0.18930165  0.68144204  0.68045643  1
  Zn  Zn80  1  0.69399212  0.17767988  0.18734859  1
  Zn  Zn81  1  0.68828342  0.17628400  0.68533683  1
  Zn  Zn82  1  0.70237266  0.69940782  0.19871645  1
  Zn  Zn83  1  0.68017384  0.69172084  0.69447150  1
  Zn  Zn84  1  0.32794081  0.33421010  0.25509008  1
  Zn  Zn85  1  0.32473561  0.32237891  0.79778596  1
  Zn  Zn86  1  0.34753450  0.84224040  0.27861442  1
  Zn  Zn87  1  0.30897168  0.78949393  0.79059616  1
  Zn  Zn88  1  0.79019846  0.31488725  0.29177590  1
  Zn  Zn89  1  0.81004937  0.30495573  0.81152272  1
  Zn  Zn90  1  0.82952098  0.80673125  0.31375340  1
  Zn  Zn91  1  0.80948619  0.81459715  0.81538386  1
  Zn  Zn92  1  0.18230254  0.43111861  0.45519900  1
  Zn  Zn93  1  0.19821654  0.41882421  0.93823982  1
  Zn  Zn94  1  0.17395217  0.94759363  0.41554941  1
  Zn  Zn95  1  0.19657435  0.93519955  0.93455601  1
  Zn  Zn96  1  0.70227969  0.43164158  0.43354732  1
  Zn  Zn97  1  0.69865234  0.41561977  0.92966689  1
  Zn  Zn98  1  0.69487215  0.93495247  0.43486471  1
  Zn  Zn99  1  0.72476660  0.96811388  0.96913937  1
  Zn  Zn100  1  0.28026281  0.09864639  0.08164829  1
  Zn  Zn101  1  0.31836501  0.06678436  0.56362456  1
  Zn  Zn102  1  0.30933143  0.55463238  0.07661041  1
  Zn  Zn103  1  0.29886730  0.54140981  0.55282584  1
  Zn  Zn104  1  0.82952692  0.06660480  0.06090059  1
  Zn  Zn105  1  0.81066084  0.06212245  0.57029537  1
  Zn  Zn106  1  0.79253287  0.56097500  0.06127231  1
  Zn  Zn107  1  0.81625420  0.55699451  0.55809477  1
  Zn  Zn108  1  0.44759197  0.46911189  0.23658722  1
  Zn  Zn109  1  0.44287522  0.44224100  0.58308606  1
  Zn  Zn110  1  0.43007984  0.94477505  0.18497395  1
  Zn  Zn111  1  0.43490174  0.92795346  0.67238068  1
  Zn  Zn112  1  0.93074703  0.42954542  0.18845261  1
  Zn  Zn113  1  0.93262382  0.43347033  0.68629824  1
  Zn  Zn114  1  0.93679603  0.94205457  0.18339058  1
  Zn  Zn115  1  0.94499554  0.93629215  0.68296620  1
  Zn  Zn116  1  0.05654377  0.06402531  0.32074547  1
  Zn  Zn117  1  0.07939533  0.06385794  0.81820366  1
  Zn  Zn118  1  0.09223459  0.62073880  0.27509487  1
  Zn  Zn119  1  0.05680153  0.56339722  0.81930148  1
  Zn  Zn120  1  0.56882349  0.06792745  0.30893468  1
  Zn  Zn121  1  0.55970027  0.06289755  0.82242701  1
  Zn  Zn122  1  0.53687545  0.57080758  0.38872847  1
  Zn  Zn123  1  0.56000022  0.56876951  0.78961973  1
  Zn  Zn124  1  0.44065612  0.18512281  0.42721207  1
  Zn  Zn125  1  0.41222828  0.24856199  0.93032728  1
  Zn  Zn126  1  0.36020752  0.64467565  0.45218522  1
  Zn  Zn127  1  0.42238437  0.68677760  0.95041851  1
  Zn  Zn128  1  0.94134950  0.19002889  0.44058490  1
  Zn  Zn129  1  0.95278555  0.18033968  0.93022204  1
  Zn  Zn130  1  0.96190796  0.65934962  0.40301327  1
  Zn  Zn131  1  0.93875020  0.67802725  0.93804664  1
  Zn  Zn132  1  0.04256063  0.31491944  0.06012570  1
  Zn  Zn133  1  0.05867149  0.30665558  0.57173777  1
  Zn  Zn134  1  0.07341539  0.81920859  0.05868029  1
  Zn  Zn135  1  0.06428246  0.81170204  0.56060137  1
  Zn  Zn136  1  0.52906394  0.33057402  0.05278169  1
  Zn  Zn137  1  0.56442680  0.31598371  0.54232264  1
  Zn  Zn138  1  0.56285357  0.81871997  0.07629277  1
  Zn  Zn139  1  0.55918672  0.81094172  0.55267446  1
  O  O140  1  0.15689156  0.14170303  0.09973641  1
  O  O141  1  0.12611297  0.11147530  0.61420690  1
  O  O142  1  0.11688597  0.61515743  0.10952147  1
  O  O143  1  0.10872718  0.61947297  0.61955592  1
  O  O144  1  0.63248296  0.10652686  0.12384601  1
  O  O145  1  0.61339442  0.12747937  0.61035392  1
  O  O146  1  0.60176961  0.63561086  0.15540805  1
  O  O147  1  0.64875750  0.61377394  0.61296643  1
  O  O148  1  0.37371019  0.38406264  0.36005367  1
  O  O149  1  0.40196972  0.35781238  0.87179102  1
  O  O150  1  0.38150555  0.90328675  0.36636084  1
  O  O151  1  0.39961336  0.82142063  0.86574947  1
  O  O152  1  0.86001097  0.38241872  0.35980370  1
  O  O153  1  0.86582748  0.38767077  0.87198950  1
  O  O154  1  0.86994186  0.88438182  0.39376377  1
  O  O155  1  0.88770842  0.88215915  0.87158844  1
  O  O156  1  0.25697471  0.00541273  0.36504850  1
  O  O157  1  0.26295804  -0.00656242  0.86354762  1
  O  O158  1  0.23032050  0.49833039  0.37510426  1
  O  O159  1  0.24137740  0.50097464  0.85812902  1
  O  O160  1  0.76901369  0.00119710  0.36937505  1
  O  O161  1  0.77330502  -0.01234139  0.86043603  1
  O  O162  1  0.77007821  0.50892350  0.38574069  1
  O  O163  1  0.75140293  0.50635571  0.86998908  1
  O  O164  1  0.22224182  0.50094103  0.13898028  1
  O  O165  1  0.22756224  0.50957458  0.63689465  1
  O  O166  1  0.25306266  0.99654788  0.13341895  1
  O  O167  1  0.24159703  1.00946574  0.63504451  1
  O  O168  1  0.70776727  0.50746237  0.11181710  1
  O  O169  1  0.75315793  0.48515353  0.62909605  1
  O  O170  1  0.76963035  0.99808411  0.14073500  1
  O  O171  1  0.75665015  0.98931346  0.64507535  1
  O  O172  1  0.00946460  0.36009202  0.24787605  1
  O  O173  1  -0.00303308  0.38092438  0.76148592  1
  O  O174  1  0.00209999  0.84291392  0.21526212  1
  O  O175  1  0.01251005  0.86147473  0.74572560  1
  O  O176  1  0.52075630  0.32867110  0.24445903  1
  O  O177  1  0.51493452  0.35945135  0.74722821  1
  O  O178  1  0.50627604  0.88249050  0.25507561  1
  O  O179  1  0.50215075  0.86821405  0.73616594  1
  O  O180  1  0.49052083  0.12300347  0.24839431  1
  O  O181  1  0.50965372  0.11976178  0.73258621  1
  O  O182  1  0.50741661  0.67586403  0.29943333  1
  O  O183  1  0.50937850  0.63338208  0.71450066  1
  O  O184  1  0.98793842  0.13312849  0.25988250  1
  O  O185  1  0.99891251  0.12270136  0.75299712  1
  O  O186  1  0.98625832  0.62885402  0.23520774  1
  O  O187  1  0.98834476  0.63071456  0.74111857  1
  O  O188  1  0.41887787  0.29132735  0.03726255  1
  O  O189  1  0.36656261  0.24882207  0.49810263  1
  O  O190  1  0.36664526  0.75290597  0.01913059  1
  O  O191  1  0.37302804  0.74067837  0.50833606  1
  O  O192  1  0.88456610  0.22535435  0.01085985  1
  O  O193  1  0.86370381  0.22862985  0.51909665  1
  O  O194  1  0.88615837  0.75936162  -0.00429013  1
  O  O195  1  0.87737790  0.76605510  0.51213960  1
  O  O196  1  0.11835224  0.24000023  0.49802694  1
  O  O197  1  0.11145343  0.25024323  0.99327656  1
  O  O198  1  0.11149728  0.75185490  0.47748886  1
  O  O199  1  0.12364528  0.73449039  0.99402872  1
  O  O200  1  0.63980302  0.24158161  0.49102327  1
  O  O201  1  0.60426450  0.24655337  0.98967708  1
  O  O202  1  0.64269214  0.74566803  0.50708476  1
  O  O203  1  0.63485738  0.77463352  0.99540162  1
  O  O204  1  0.50994863  0.27559544  0.19676939  1
  O  O205  1  0.50419726  0.24531858  0.62736415  1
  O  O206  1  0.48138343  0.75784839  0.12636935  1
  O  O207  1  0.49007700  0.73690728  0.60577788  1
  O  O208  1  0.99401556  0.24362993  0.13820707  1
  O  O209  1  0.98105724  0.24579270  0.62696861  1
  O  O210  1  1.00547674  0.78710579  0.16428813  1
  O  O211  1  0.98950369  0.74472862  0.63398727  1
  O  O212  1  0.01110181  0.24641809  0.36706721  1
  O  O213  1  -0.00609848  0.26957991  0.87530635  1
  O  O214  1  -0.01896613  0.76805716  0.36507363  1
  O  O215  1  0.01042618  0.73553675  0.86146415  1
  O  O216  1  0.52084667  0.25149528  0.38137708  1
  O  O217  1  0.51204870  0.24864298  0.85824898  1
  O  O218  1  0.47758997  0.72693676  0.34298905  1
  O  O219  1  0.45493649  0.76485347  0.86455816  1
  O  O220  1  0.24174037  0.14333057  0.50980388  1
  O  O221  1  0.24433018  0.14166965  0.98060839  1
  O  O222  1  0.25398428  0.61912054  0.48683555  1
  O  O223  1  0.23237058  0.60706811  0.98915461  1
  O  O224  1  0.73748248  0.13137439  0.51252922  1
  O  O225  1  0.74873494  0.08720591  0.98582272  1
  O  O226  1  0.75524938  0.62844799  0.49333852  1
  O  O227  1  0.74905156  0.63846361  0.98257543  1
  O  O228  1  0.26609611  0.35270012  -0.00207721  1
  O  O229  1  0.22835893  0.34824856  0.53351562  1
  O  O230  1  0.25291297  0.88072346  0.01660306  1
  O  O231  1  0.25144620  0.85675253  0.46790420  1
  O  O232  1  0.74177079  0.37743480  0.02436274  1
  O  O233  1  0.75411938  0.35292607  0.51243657  1
  O  O234  1  0.77247263  0.86217921  -0.01419710  1
  O  O235  1  0.76590005  0.89032302  0.51722547  1
  O  O236  1  0.10313347  0.48570705  0.23872373  1
  O  O237  1  0.11544241  0.50839250  0.73607822  1
  O  O238  1  0.13504805  1.01331471  0.25662675  1
  O  O239  1  0.13250340  0.98801166  0.74487606  1
  O  O240  1  0.57511017  0.57543221  0.19584888  1
  O  O241  1  0.64344393  0.50782624  0.73169980  1
  O  O242  1  0.64370368  0.99875005  0.24319118  1
  O  O243  1  0.63767587  0.98651683  0.77140164  1
  O  O244  1  0.36725573  0.01518540  0.25764132  1
  O  O245  1  0.36383283  -0.00777112  0.74013316  1
  O  O246  1  0.34120851  0.52040836  0.25816113  1
  O  O247  1  0.35668490  0.50131767  0.73649465  1
  O  O248  1  0.88089932  0.00471259  0.26327619  1
  O  O249  1  0.88450752  0.00588077  0.75687238  1
  O  O250  1  0.88383380  0.50339510  0.26118378  1
  O  O251  1  0.86448701  0.50719594  0.75458288  1
  O  O252  1  0.11785149  0.36782316  0.37266505  1
  O  O253  1  0.11618300  0.38004382  0.87031909  1
  O  O254  1  0.10206422  0.87549027  0.37306450  1
  O  O255  1  0.13413047  0.85454746  0.86652176  1
  O  O256  1  0.64455177  0.35573165  0.37523744  1
  O  O257  1  0.61634982  0.35916239  0.87182095  1
  O  O258  1  0.63012067  0.88578594  0.35964681  1
  O  O259  1  0.53259795  0.92292345  0.91940930  1
  O  O260  1  0.37124516  0.13260041  0.14032959  1
  O  O261  1  0.39741378  0.13969436  0.61178351  1
  O  O262  1  0.36635444  0.63862226  0.12237808  1
  O  O263  1  0.39735675  0.60068083  0.59654158  1
  O  O264  1  0.88571542  0.12768389  0.13992484  1
  O  O265  1  0.87398035  0.12671379  0.64349585  1
  O  O266  1  0.86288455  0.60451547  0.13694957  1
  O  O267  1  0.87251806  0.63268138  0.63673170  1
  O  O268  1  0.27792032  0.29188296  0.14255384  1
  O  O269  1  0.27582968  0.24479520  0.62715560  1
  O  O270  1  0.25240102  0.76564212  0.12488090  1
  O  O271  1  0.24961802  0.75034104  0.61656209  1
  O  O272  1  0.76903014  0.23474651  0.12122749  1
  O  O273  1  0.75416033  0.25090575  0.62445115  1
  O  O274  1  0.74512820  0.74057109  0.09993991  1
  O  O275  1  0.76180000  0.76467046  0.63771227  1
  O  O276  1  0.23494352  0.26087784  0.39637106  1
  O  O277  1  0.24191749  0.25318319  0.84425403  1
  O  O278  1  0.26569259  0.80389176  0.41863694  1
  O  O279  1  0.24216171  0.73095113  0.87452202  1
  O  O280  1  0.76209329  0.24742319  0.39143746  1
  O  O281  1  0.73151902  0.24857219  0.87458660  1
  O  O282  1  0.76191662  0.73154514  0.37401319  1
  O  O283  1  0.75022853  0.73758437  0.87678678  1
  O  O284  1  0.02430238  0.11082902  -0.00745540  1
  O  O285  1  0.01022904  0.11554046  0.50053374  1
  O  O286  1  0.01398812  0.60468426  -0.01222380  1
  O  O287  1  -0.02259277  0.62550105  0.51634152  1
  O  O288  1  0.47381654  0.11206420  -0.00233442  1
  O  O289  1  0.51414861  0.11915382  0.50350694  1
  O  O290  1  0.49567313  0.59216989  -0.02675464  1
  O  O291  1  0.53909961  0.62163630  0.50872879  1
  O  O292  1  0.49666828  0.39177193  0.48564882  1
  O  O293  1  0.51454461  0.41346482  0.97139795  1
  O  O294  1  0.50864232  0.89654489  0.50122887  1
  O  O295  1  0.49289008  0.88876746  0.97604905  1
  O  O296  1  0.99735208  0.37768915  0.50491306  1
  O  O297  1  0.99863913  0.39057159  0.98311978  1
  O  O298  1  0.98378093  0.88711643  0.51157091  1
  O  O299  1  0.99578019  0.88317150  1.00095401  1
  O  O300  1  0.50632387  0.46937731  0.33848615  1
  O  O301  1  0.49744879  0.49040930  0.83778140  1
  O  O302  1  0.49873103  1.00733401  0.38405388  1
  O  O303  1  0.49165510  0.98181214  0.88056650  1
  O  O304  1  0.98522029  0.48917704  0.38948221  1
  O  O305  1  0.98821504  0.49134328  0.87894972  1
  O  O306  1  0.98743763  0.99998719  0.39084626  1
  O  O307  1  0.99885117  0.99967856  0.87882950  1
  O  O308  1  0.00120618  0.00186964  0.11026259  1
  O  O309  1  0.01656779  -0.00259610  0.61573862  1
  O  O310  1  0.00027115  0.49022575  0.10902249  1
  O  O311  1  -0.00187108  0.50644258  0.61902893  1
  O  O312  1  0.50614886  0.00451321  0.12559626  1
  O  O313  1  0.49335882  0.01203406  0.60979559  1
  O  O314  1  0.50844134  0.54459686  0.16428934  1
  O  O315  1  0.52703758  0.50870128  0.62244002  1
  O  O316  1  0.22259191  0.39498580  0.25733219  1
  O  O317  1  0.25002531  0.38482134  0.73107005  1
  O  O318  1  0.24894169  0.90002383  0.24313243  1
  O  O319  1  0.24216199  0.88120262  0.75304465  1
  O  O320  1  0.74807051  0.37546095  0.20779561  1
  O  O321  1  0.75232875  0.38196930  0.74201350  1
  O  O322  1  0.76571551  0.88922029  0.25639808  1
  O  O323  1  0.74974429  0.88208256  0.74195249  1
  O  O324  1  0.25518999  0.11751662  0.24119812  1
  O  O325  1  0.24856969  0.10770630  0.76627982  1
  O  O326  1  0.20616032  0.60625744  0.25536264  1
  O  O327  1  0.24346831  0.61339940  0.76164077  1
  O  O328  1  0.77267299  0.10956579  0.25295232  1
  O  O329  1  0.75027913  0.10433472  0.75595675  1
  O  O330  1  0.74725822  0.61644835  0.26445095  1
  O  O331  1  0.75769913  0.62003486  0.75939257  1
  O  O332  1  0.37962142  0.11227783  0.36583086  1
  O  O333  1  0.35949589  0.15886200  0.88187255  1
  O  O334  1  0.42123833  0.55996935  0.41117191  1
  O  O335  1  0.35303013  0.61753178  0.88692606  1
  O  O336  1  0.87864614  0.11576332  0.37205789  1
  O  O337  1  0.87969538  0.11266720  0.86182622  1
  O  O338  1  0.86855956  0.61294225  0.35817592  1
  O  O339  1  0.86982433  0.61450964  0.86517956  1
  O  O340  1  0.11809537  0.37912283  0.12789861  1
  O  O341  1  0.11746534  0.39717347  0.62458904  1
  O  O342  1  0.14175581  0.87380557  0.13045116  1
  O  O343  1  0.12565738  0.88054677  0.63392398  1
  O  O344  1  0.60488522  0.37747573  0.11980468  1
  O  O345  1  0.63576179  0.38467234  0.61554081  1
  O  O346  1  0.62286384  0.89394555  0.14300174  1
  O  O347  1  0.64366357  0.87198104  0.61825142  1
  O  O348  1  0.12308915  0.26083940  0.25851222  1
  O  O349  1  0.14197968  0.26729229  0.68238418  1
  O  O350  1  0.13509267  0.74242188  0.28829924  1
  O  O351  1  0.12039201  0.75161352  0.75200870  1
  O  O352  1  0.64825291  0.23373858  0.27284460  1
  O  O353  1  0.61965850  0.23843254  0.75536787  1
  O  O354  1  0.63088946  0.77432514  0.24495636  1
  O  O355  1  0.61403839  0.75678419  0.75539722  1
  O  O356  1  0.37011438  0.23099617  0.27364804  1
  O  O357  1  0.39749000  0.24586929  0.73695342  1
  O  O358  1  0.34837096  0.73661152  0.24255902  1
  O  O359  1  0.37661504  0.74506733  0.71080523  1
  O  O360  1  0.87891072  0.23829330  0.24770258  1
  O  O361  1  0.86986210  0.22981088  0.74587040  1
  O  O362  1  0.86041386  0.72844873  0.23842395  1
  O  O363  1  0.88156088  0.74457669  0.74728632  1
  O  O364  1  0.35873766  0.45962144  0.50315103  1
  O  O365  1  0.35625018  0.45519725  1.05504059  1
  O  O366  1  0.38572017  1.01005730  0.48672884  1
  O  O367  1  0.42652735  1.05688968  1.00009822  1
  O  O368  1  0.88658440  0.49345877  0.49531007  1
  O  O369  1  0.88259207  0.50944278  0.99178857  1
  O  O370  1  0.88035037  1.00221694  0.49649012  1
  O  O371  1  0.89028658  0.98992354  0.98522497  1
  O  O372  1  0.11681480  -0.01117249  -0.00295161  1
  O  O373  1  0.12260193  0.00459081  0.50403657  1
  O  O374  1  0.11754623  0.49859440  0.01004280  1
  O  O375  1  0.10462761  0.50315464  0.51034234  1
  O  O376  1  0.62440055  -0.01055955  0.01887531  1
  O  O377  1  0.62076652  0.01082885  0.49222509  1
  O  O378  1  0.55795791  0.59845177  0.01331108  1
  O  O379  1  0.64424626  0.50005172  0.50918609  1
  O  O380  1  0.39476868  0.38769639  0.17327674  1
  O  O381  1  0.38632169  0.35402979  0.62528338  1
  O  O382  1  0.36199915  0.86310375  0.14493025  1
  O  O383  1  0.36191744  0.87188772  0.60408851  1
  O  O384  1  0.88631302  0.35115867  0.11728731  1
  O  O385  1  0.86511534  0.35243656  0.63529356  1
  O  O386  1  0.87703889  0.87498360  0.10867042  1
  O  O387  1  0.86958211  0.87010786  0.62244713  1
  O  O388  1  0.12558444  0.13369664  0.38991813  1
  O  O389  1  0.14275463  0.12631707  0.88644355  1
  O  O390  1  0.07308107  0.63395114  0.38671165  1
  O  O391  1  0.13080149  0.62953854  0.88003662  1
  O  O392  1  0.62815962  0.13221718  0.38981416  1
  O  O393  1  0.62392833  0.13387559  0.88661147  1
  O  O394  1  0.64309362  0.61847446  0.39503166  1
  O  O395  1  0.63491446  0.62006858  0.86569918  1
