# generated using pymatgen
data_V35Zn35O128
_symmetry_space_group_name_H-M   'P 1'
_cell_length_a   16.83696830
_cell_length_b   16.88310809
_cell_length_c   16.85409918
_cell_angle_alpha   89.81020365
_cell_angle_beta   90.20569768
_cell_angle_gamma   89.96042916
_symmetry_Int_Tables_number   1
_chemical_formula_structural   V35Zn35O128
_chemical_formula_sum   'V70 Zn70 O256'
_cell_volume   4790.89388558
_cell_formula_units_Z   2
loop_
 _symmetry_equiv_pos_site_id
 _symmetry_equiv_pos_as_xyz
  1  'x, y, z'
loop_
 _atom_site_type_symbol
 _atom_site_label
 _atom_site_symmetry_multiplicity
 _atom_site_fract_x
 _atom_site_fract_y
 _atom_site_fract_z
 _atom_site_occupancy
  V  V0  1  0.24871773  0.64244193  0.88288676  1
  V  V1  1  0.73907137  0.36926783  0.62622663  1
  V  V2  1  0.60834441  0.12805085  0.01333175  1
  V  V3  1  0.88136575  0.50351783  0.36505936  1
  V  V4  1  0.00967017  0.37333286  0.36731280  1
  V  V5  1  0.75711409  0.24276043  -0.00230882  1
  V  V6  1  0.25836034  -0.01921913  0.24316657  1
  V  V7  1  0.72537318  0.00251695  0.24709387  1
  V  V8  1  0.24798203  -0.00309935  0.73638220  1
  V  V9  1  0.50379205  0.25504747  0.74329603  1
  V  V10  1  0.37046953  -0.00094157  0.88111222  1
  V  V11  1  0.76625443  0.11929022  0.36895363  1
  V  V12  1  0.37423157  0.38035809  -0.00534457  1
  V  V13  1  0.74504719  0.63786485  0.86244771  1
  V  V14  1  0.49603316  0.87722185  0.87987276  1
  V  V15  1  0.12252896  0.49910477  0.12032945  1
  V  V16  1  0.23810653  0.65026678  0.39187011  1
  V  V17  1  0.63758568  0.87148056  0.75297452  1
  V  V18  1  0.73470932  0.88001297  0.13000510  1
  V  V19  1  0.51229143  0.37098026  0.86919054  1
  V  V20  1  0.13537165  0.00253430  0.11311073  1
  V  V21  1  0.37790772  0.38122492  0.49910978  1
  V  V22  1  0.74991915  0.01792791  0.76537488  1
  V  V23  1  0.88367190  0.38285548  0.50594906  1
  V  V24  1  0.36127265  0.75446283  0.62251731  1
  V  V25  1  0.86814003  0.64036235  0.24782973  1
  V  V26  1  0.35519001  0.86690826  0.49831297  1
  V  V27  1  0.75060526  0.76771882  0.50880694  1
  V  V28  1  0.11816416  0.11892869  0.51064518  1
  V  V29  1  0.63112732  -0.00117004  0.62278130  1
  V  V30  1  0.36700542  0.50165757  0.87162452  1
  V  V31  1  0.11937408  0.63479248  -0.00656265  1
  V  V32  1  -0.01206262  0.62872035  0.12291790  1
  V  V33  1  0.51677802  0.50645119  -0.00033295  1
  V  V34  1  0.25125064  0.37854402  0.12080650  1
  V  V35  1  -0.01314362  0.86605235  0.38127848  1
  V  V36  1  0.74359744  0.74325023  0.01519801  1
  V  V37  1  0.50318362  0.75580459  0.25643487  1
  V  V38  1  0.73099412  0.37177670  0.13609945  1
  V  V39  1  0.25044348  0.39892844  0.63380163  1
  V  V40  1  0.38480294  0.24631905  0.12417097  1
  V  V41  1  0.62103492  0.50014308  0.62585194  1
  V  V42  1  0.50405359  0.62563779  0.61387633  1
  V  V43  1  -0.00585585  0.73482161  0.76677615  1
  V  V44  1  0.61752063  0.12368248  0.48804759  1
  V  V45  1  0.11823818  0.38836693  0.74786369  1
  V  V46  1  -0.01297396  0.48251501  -0.01071721  1
  V  V47  1  0.00154390  0.89366615  0.88841159  1
  V  V48  1  0.51188815  0.86692820  0.38842826  1
  V  V49  1  0.10999005  0.12570988  -0.00380002  1
  V  V50  1  0.76196580  0.49734668  0.75398811  1
  V  V51  1  0.26225040  0.51288795  0.24849580  1
  V  V52  1  0.88218919  0.73562778  0.62823576  1
  V  V53  1  0.49193900  0.11921098  0.62907213  1
  V  V54  1  0.87763488  0.88529960  0.00868705  1
  V  V55  1  0.25747133  0.23406170  -0.01198188  1
  V  V56  1  0.12163460  0.25349591  0.86509932  1
  V  V57  1  0.52193748  0.25546118  0.28286291  1
  V  V58  1  0.74845289  0.24977090  0.48892713  1
  V  V59  1  0.74678427  0.63306430  0.38957821  1
  V  V60  1  0.37246548  0.75934626  0.10795145  1
  V  V61  1  0.89141698  0.13044792  0.75968084  1
  V  V62  1  0.11965703  0.87616094  0.74629927  1
  V  V63  1  0.36713074  0.62393761  0.74892653  1
  V  V64  1  0.50514867  0.62016333  0.13517845  1
  V  V65  1  0.50613950  0.74977158  0.75272976  1
  V  V66  1  0.38042914  -0.00144390  0.38364700  1
  V  V67  1  0.25428332  0.24396761  0.52472959  1
  V  V68  1  0.24936812  0.13474609  0.36915243  1
  V  V69  1  0.88783409  0.24210479  0.62157289  1
  Zn  Zn70  1  0.36161557  0.13076517  0.75312755  1
  Zn  Zn71  1  -0.04329655  0.18060343  0.19134070  1
  Zn  Zn72  1  0.02756607  0.76117959  0.25540786  1
  Zn  Zn73  1  0.50024801  0.49848284  0.48264494  1
  Zn  Zn74  1  0.12440354  0.36600807  0.24828851  1
  Zn  Zn75  1  0.38315496  0.12150220  0.24245052  1
  Zn  Zn76  1  0.20242914  0.18236669  0.17856879  1
  Zn  Zn77  1  0.17683613  0.17757247  0.69066251  1
  Zn  Zn78  1  0.18701231  0.69638135  0.18029599  1
  Zn  Zn79  1  0.17669639  0.69449703  0.69219867  1
  Zn  Zn80  1  0.68538680  0.19643420  0.18927574  1
  Zn  Zn81  1  0.68000925  0.18833955  0.68803643  1
  Zn  Zn82  1  0.68337963  0.68624349  0.19003856  1
  Zn  Zn83  1  0.69391468  0.68755328  0.68038343  1
  Zn  Zn84  1  0.32378655  0.32097234  0.30607256  1
  Zn  Zn85  1  0.31645397  0.31061764  0.80573568  1
  Zn  Zn86  1  0.31845879  0.79642159  0.30535962  1
  Zn  Zn87  1  0.31103440  0.81651757  0.80926912  1
  Zn  Zn88  1  0.81676051  0.31387187  0.31072714  1
  Zn  Zn89  1  0.79572243  0.29870576  0.80646683  1
  Zn  Zn90  1  0.81589476  0.82107946  0.31780134  1
  Zn  Zn91  1  0.82060060  0.81199163  0.82446598  1
  Zn  Zn92  1  0.21904146  0.41226739  0.41733913  1
  Zn  Zn93  1  0.18412343  0.44139714  0.93345854  1
  Zn  Zn94  1  0.18500467  0.93949226  0.43834712  1
  Zn  Zn95  1  0.18683252  0.93750957  0.92893538  1
  Zn  Zn96  1  0.69879336  0.45884517  0.44906340  1
  Zn  Zn97  1  0.69990910  0.42326323  0.93981189  1
  Zn  Zn98  1  0.69317688  0.94083614  0.43763731  1
  Zn  Zn99  1  0.68386177  0.93946522  0.94199314  1
  Zn  Zn100  1  0.37413158  0.03277448  0.08315474  1
  Zn  Zn101  1  0.30496781  0.05401191  0.56058384  1
  Zn  Zn102  1  0.31768065  0.57063516  0.06448376  1
  Zn  Zn103  1  0.30864237  0.56863228  0.55116778  1
  Zn  Zn104  1  0.80927807  0.06534902  0.05990985  1
  Zn  Zn105  1  0.80341887  0.06805887  0.56862095  1
  Zn  Zn106  1  0.80374831  0.55202244  0.05856206  1
  Zn  Zn107  1  0.81766284  0.56200414  0.56939826  1
  Zn  Zn108  1  0.44878504  0.43309436  0.19028130  1
  Zn  Zn109  1  0.43285207  0.43845835  0.68451692  1
  Zn  Zn110  1  0.43963717  0.92358418  0.19828563  1
  Zn  Zn111  1  0.43869352  0.93610788  0.68835926  1
  Zn  Zn112  1  0.92901435  0.43783845  0.18080092  1
  Zn  Zn113  1  0.93511916  0.42469618  0.81272791  1
  Zn  Zn114  1  0.94107501  0.93853492  0.18514031  1
  Zn  Zn115  1  0.91046543  0.92194055  0.71706946  1
  Zn  Zn116  1  0.08036049  0.05752549  0.29667930  1
  Zn  Zn117  1  0.06622907  0.06404140  0.81485447  1
  Zn  Zn118  1  0.06661828  0.55933180  0.31166762  1
  Zn  Zn119  1  0.06594385  0.55871506  0.81584273  1
  Zn  Zn120  1  0.54608694  0.07559739  0.18798760  1
  Zn  Zn121  1  0.56060039  0.06332277  0.81700221  1
  Zn  Zn122  1  0.55338602  0.58576794  0.32749465  1
  Zn  Zn123  1  0.56809836  0.56011424  0.81182261  1
  Zn  Zn124  1  0.43321804  0.18997702  0.44451774  1
  Zn  Zn125  1  0.44135054  0.18363358  0.93172056  1
  Zn  Zn126  1  0.41943282  0.68331445  0.43051334  1
  Zn  Zn127  1  0.44397365  0.68783036  0.93717004  1
  Zn  Zn128  1  0.97288363  0.16387787  0.38446660  1
  Zn  Zn129  1  0.91662702  0.25749543  0.91973968  1
  Zn  Zn130  1  0.94489923  0.69500184  0.44131981  1
  Zn  Zn131  1  0.91944240  0.68513853  0.94060629  1
  Zn  Zn132  1  0.06780322  0.30889859  0.05758486  1
  Zn  Zn133  1  0.07201117  0.30960995  0.55994052  1
  Zn  Zn134  1  0.06558373  0.81198525  0.07653819  1
  Zn  Zn135  1  0.00324876  0.85246776  0.58882724  1
  Zn  Zn136  1  0.57180182  0.31417228  0.05930097  1
  Zn  Zn137  1  0.55991177  0.30397744  0.55639612  1
  Zn  Zn138  1  0.56213140  0.80682563  0.06162672  1
  Zn  Zn139  1  0.56373411  0.81174558  0.56520967  1
  O  O140  1  0.14210589  0.11229605  0.10745391  1
  O  O141  1  0.11359857  0.13093166  0.61148530  1
  O  O142  1  0.11073154  0.61645660  0.10918353  1
  O  O143  1  0.11954576  0.63171614  0.60636660  1
  O  O144  1  0.62240283  0.12618042  0.12183668  1
  O  O145  1  0.61824955  0.11479372  0.61990715  1
  O  O146  1  0.60717177  0.62599811  0.12600313  1
  O  O147  1  0.60968484  0.62125932  0.62742228  1
  O  O148  1  0.34594426  0.37951662  0.39911083  1
  O  O149  1  0.37814159  0.38486559  0.87846954  1
  O  O150  1  0.37428031  0.87351688  0.38920584  1
  O  O151  1  0.38880533  0.87758084  0.86695139  1
  O  O152  1  0.87725220  0.38989852  0.38304355  1
  O  O153  1  0.87512731  0.35025764  0.86772512  1
  O  O154  1  0.88612103  0.88290688  0.38533612  1
  O  O155  1  0.88908359  0.87962718  0.88686403  1
  O  O156  1  0.26079870  0.00311060  0.36553775  1
  O  O157  1  0.26552607  -0.01547898  0.86162730  1
  O  O158  1  0.24033072  0.50034637  0.34915839  1
  O  O159  1  0.26334443  0.51073778  0.87910690  1
  O  O160  1  0.74568961  0.00858393  0.36064652  1
  O  O161  1  0.74853860  -0.00202448  0.86251301  1
  O  O162  1  0.77077210  0.51900720  0.38370438  1
  O  O163  1  0.74593221  0.48247477  0.85250128  1
  O  O164  1  0.24456376  0.49555175  0.12209427  1
  O  O165  1  0.24675663  0.49766304  0.62327826  1
  O  O166  1  0.27062992  1.00243370  0.14085435  1
  O  O167  1  0.24974439  0.98817816  0.63619792  1
  O  O168  1  0.78033343  0.46433801  0.12302880  1
  O  O169  1  0.74362083  0.48843593  0.62710522  1
  O  O170  1  0.74646756  0.99178790  0.13765971  1
  O  O171  1  0.73697339  1.00482897  0.63766568  1
  O  O172  1  0.00644811  0.39214524  0.26386535  1
  O  O173  1  0.01854406  0.37847358  0.74452898  1
  O  O174  1  -0.01788115  0.87016069  0.26335690  1
  O  O175  1  0.00271270  0.87575483  0.77336621  1
  O  O176  1  0.49283545  0.34979419  0.24998266  1
  O  O177  1  0.49395049  0.36717605  0.75612350  1
  O  O178  1  0.50327402  0.86273355  0.27025032  1
  O  O179  1  0.50979100  0.86463477  0.74997989  1
  O  O180  1  0.49191107  0.15425974  0.25461128  1
  O  O181  1  0.49962044  0.13122506  0.73960723  1
  O  O182  1  0.49556895  0.62728905  0.23999120  1
  O  O183  1  0.49144323  0.63311870  0.74588263  1
  O  O184  1  0.99735858  0.12663279  0.28146056  1
  O  O185  1  0.98991771  0.11533638  0.74486477  1
  O  O186  1  0.99559115  0.62850364  0.23239231  1
  O  O187  1  1.00287208  0.63544658  0.76091259  1
  O  O188  1  0.36882806  0.25996614  -0.00210991  1
  O  O189  1  0.35976844  0.26043995  0.50176089  1
  O  O190  1  0.38642149  0.75409955  0.00544746  1
  O  O191  1  0.37179073  0.75485040  0.51335630  1
  O  O192  1  0.85983618  0.23278937  0.01279829  1
  O  O193  1  0.85954895  0.25800114  0.50875775  1
  O  O194  1  0.84963298  0.76750360  -0.00929813  1
  O  O195  1  0.87576204  0.74353236  0.51907677  1
  O  O196  1  0.14782863  0.24301035  0.50063444  1
  O  O197  1  0.14131349  0.24109471  0.99318375  1
  O  O198  1  0.07964343  0.67605689  0.55285830  1
  O  O199  1  0.11420345  0.73223481  0.99991864  1
  O  O200  1  0.63713390  0.23515239  0.50221656  1
  O  O201  1  0.62865670  0.23535189  1.00125503  1
  O  O202  1  0.64978367  0.75416258  0.51571256  1
  O  O203  1  0.64606595  0.76431209  0.99422216  1
  O  O204  1  0.48314991  0.26094287  0.11397874  1
  O  O205  1  0.50220094  0.23799405  0.63472163  1
  O  O206  1  0.49941982  0.74151580  0.13257839  1
  O  O207  1  0.49519638  0.73805563  0.63139091  1
  O  O208  1  1.04907300  0.24303596  0.15146276  1
  O  O209  1  0.98567219  0.25598702  0.61706099  1
  O  O210  1  0.98003465  0.72439555  0.10101556  1
  O  O211  1  0.98966087  0.74578078  0.64467321  1
  O  O212  1  -0.01589135  0.27690746  0.36937466  1
  O  O213  1  0.02482286  0.26220913  0.88503412  1
  O  O214  1  0.00244878  0.75812436  0.36644505  1
  O  O215  1  -0.01192134  0.74948741  0.86972846  1
  O  O216  1  0.50087392  0.25645494  0.38314257  1
  O  O217  1  0.49635289  0.26612925  0.86848476  1
  O  O218  1  0.49168740  0.75225808  0.36835004  1
  O  O219  1  0.49783394  0.75841257  0.85964053  1
  O  O220  1  0.25187017  0.13466017  0.49421788  1
  O  O221  1  0.25974668  0.13749233  0.99350060  1
  O  O222  1  0.23588636  0.63216550  0.49387514  1
  O  O223  1  0.23643106  0.62228803  0.99137826  1
  O  O224  1  0.74213583  0.12708944  0.48658183  1
  O  O225  1  0.73604054  0.13622223  1.01485215  1
  O  O226  1  0.75778798  0.63033068  0.49351024  1
  O  O227  1  0.74736170  0.64037985  1.01338154  1
  O  O228  1  0.26038052  0.37785396  0.00202317  1
  O  O229  1  0.24923423  0.36395457  0.51990905  1
  O  O230  1  0.22207147  0.88166534  0.02869150  1
  O  O231  1  0.25593666  0.86847262  0.49829046  1
  O  O232  1  0.74559146  0.35586998  0.01524852  1
  O  O233  1  0.75407613  0.36879106  0.50007203  1
  O  O234  1  0.75373677  0.87834802  0.01672043  1
  O  O235  1  0.75820913  0.86741704  0.49657487  1
  O  O236  1  0.13015874  0.49741111  0.22847636  1
  O  O237  1  0.13012532  0.48837913  0.75348036  1
  O  O238  1  0.15184409  1.00376148  0.22695361  1
  O  O239  1  0.13658843  0.98862402  0.76265116  1
  O  O240  1  0.63496392  0.46566608  0.27712067  1
  O  O241  1  0.63209019  0.49967786  0.73221655  1
  O  O242  1  0.62767883  1.00228474  0.24700213  1
  O  O243  1  0.63499654  0.99594120  0.74404377  1
  O  O244  1  0.37112163  -0.00145483  0.26885278  1
  O  O245  1  0.36013203  -0.00670033  0.75025409  1
  O  O246  1  0.36080071  0.49301809  0.23677239  1
  O  O247  1  0.38142199  0.51493897  0.75815394  1
  O  O248  1  0.87907505  0.03530389  0.21016882  1
  O  O249  1  0.85991274  0.01853218  0.74610684  1
  O  O250  1  0.87732041  0.50680137  0.26280611  1
  O  O251  1  0.86130126  0.49046117  0.74579716  1
  O  O252  1  0.11448810  0.37819633  0.37730112  1
  O  O253  1  0.14050999  0.36571065  0.85878029  1
  O  O254  1  0.10543227  0.90689282  0.35803775  1
  O  O255  1  0.10755893  0.87227736  0.87610417  1
  O  O256  1  0.61300761  0.43507035  0.34096693  1
  O  O257  1  0.61005942  0.37958560  0.87221980  1
  O  O258  1  0.61069734  0.87565658  0.38966965  1
  O  O259  1  0.61493294  0.88294986  0.85657223  1
  O  O260  1  0.36875019  0.14450309  0.11949378  1
  O  O261  1  0.39022845  0.11192338  0.62095991  1
  O  O262  1  0.39793132  0.63610591  0.11010028  1
  O  O263  1  0.38089248  0.63432246  0.63059393  1
  O  O264  1  0.88450405  0.09349735  0.15075581  1
  O  O265  1  0.87337597  0.13838689  0.62300669  1
  O  O266  1  0.87916270  0.61064746  0.13963105  1
  O  O267  1  0.87448049  0.63397549  0.63534463  1
  O  O268  1  0.25772171  0.26131353  0.10551705  1
  O  O269  1  0.25653105  0.23797573  0.62431446  1
  O  O270  1  0.27395101  0.73989720  0.12134233  1
  O  O271  1  0.26315152  0.74771462  0.63340070  1
  O  O272  1  0.74516333  0.26120447  0.11974119  1
  O  O273  1  0.74697057  0.26003048  0.61607309  1
  O  O274  1  0.74584359  0.76332596  0.12377245  1
  O  O275  1  0.76684233  0.75237647  0.61980642  1
  O  O276  1  0.26076845  0.23577444  0.37071697  1
  O  O277  1  0.24768430  0.25398489  0.88415667  1
  O  O278  1  0.24003115  0.75159769  0.37311425  1
  O  O279  1  0.25642947  0.74099638  0.88087804  1
  O  O280  1  0.76038825  0.23405854  0.37788231  1
  O  O281  1  0.74438154  0.25083205  0.89517003  1
  O  O282  1  0.76651479  0.74212866  0.39298547  1
  O  O283  1  0.74316751  0.74064368  0.87139413  1
  O  O284  1  0.01508525  0.13262987  0.01037903  1
  O  O285  1  0.02157959  0.13326161  0.48084834  1
  O  O286  1  0.00435605  0.61164685  -0.00074887  1
  O  O287  1  0.03535748  0.63297868  0.50396663  1
  O  O288  1  0.50589591  0.13236209  0.00886679  1
  O  O289  1  0.51107580  0.13183817  0.51391975  1
  O  O290  1  0.50767747  0.60896700  -0.00645999  1
  O  O291  1  0.48944065  0.62624856  0.51214267  1
  O  O292  1  0.48096190  0.37058750  0.50682551  1
  O  O293  1  0.49255173  0.38249495  0.98657381  1
  O  O294  1  0.48885588  0.86066407  0.49109120  1
  O  O295  1  0.51200400  0.87069506  0.97778292  1
  O  O296  1  0.98745231  0.37076234  0.49449644  1
  O  O297  1  0.99937929  0.38162732  1.00478892  1
  O  O298  1  1.01754815  0.86178027  0.47996387  1
  O  O299  1  0.99015985  0.86785137  0.99957702  1
  O  O300  1  0.51089338  0.49318543  0.37000951  1
  O  O301  1  0.49259569  0.49226204  0.87963012  1
  O  O302  1  0.48212442  0.97741037  0.37884800  1
  O  O303  1  0.48705193  0.98322745  0.85918448  1
  O  O304  1  0.98845860  0.49741169  0.37961787  1
  O  O305  1  1.00019435  0.49305452  0.88331360  1
  O  O306  1  1.04574426  0.96718342  0.36703002  1
  O  O307  1  1.00407862  0.99302304  0.88562976  1
  O  O308  1  0.03918967  -0.01924405  0.12591526  1
  O  O309  1  -0.04436632  -0.00043101  0.54799172  1
  O  O310  1  0.00317927  0.50341528  0.11304147  1
  O  O311  1  -0.00619094  0.52329417  0.63476120  1
  O  O312  1  0.47155367  0.01059408  0.13754688  1
  O  O313  1  0.51352826  0.01188577  0.63458990  1
  O  O314  1  0.49584734  0.50786945  0.11074368  1
  O  O315  1  0.50181917  0.51471238  0.62760650  1
  O  O316  1  0.24496384  0.38082985  0.23422445  1
  O  O317  1  0.25068837  0.37669684  0.73676044  1
  O  O318  1  0.25855886  0.88239121  0.25139478  1
  O  O319  1  0.22867062  0.87361894  0.75113873  1
  O  O320  1  0.74702299  0.36321896  0.23908669  1
  O  O321  1  0.74884790  0.37740188  0.73029511  1
  O  O322  1  0.75597034  0.89079225  0.24325937  1
  O  O323  1  0.74042136  0.88171935  0.75587673  1
  O  O324  1  0.26253624  0.12153844  0.26062415  1
  O  O325  1  0.24661467  0.10367482  0.74545669  1
  O  O326  1  0.24723919  0.61246389  0.23230239  1
  O  O327  1  0.25796554  0.63580093  0.76281132  1
  O  O328  1  0.74489280  0.11570950  0.26100798  1
  O  O329  1  0.74978224  0.12094709  0.75388812  1
  O  O330  1  0.76327654  0.63359583  0.26114059  1
  O  O331  1  0.74791607  0.61152327  0.75432185  1
  O  O332  1  0.37035483  0.10726931  0.38798829  1
  O  O333  1  0.38574889  0.10403047  0.86798821  1
  O  O334  1  0.34123008  0.62667283  0.37373326  1
  O  O335  1  0.36610750  0.62277574  0.87028889  1
  O  O336  1  0.86337835  0.11452861  0.38016976  1
  O  O337  1  0.88591486  0.15024637  0.85593534  1
  O  O338  1  0.88088599  0.62009366  0.36499138  1
  O  O339  1  0.84167557  0.61352111  0.89182204  1
  O  O340  1  0.13827170  0.38508001  0.11371326  1
  O  O341  1  0.13980460  0.36848693  0.63717402  1
  O  O342  1  0.16397142  0.89324283  0.08292483  1
  O  O343  1  0.09876506  0.88513355  0.64893253  1
  O  O344  1  0.62934158  0.38405447  0.12836030  1
  O  O345  1  0.63430226  0.37745186  0.61568011  1
  O  O346  1  0.63554060  0.87682332  0.12610981  1
  O  O347  1  0.61756374  0.89200847  0.63571219  1
  O  O348  1  0.11059503  0.25057660  0.21319429  1
  O  O349  1  0.12992016  0.25204787  0.76207756  1
  O  O350  1  0.10690646  0.77399235  0.17961119  1
  O  O351  1  0.10613950  0.76251442  0.75266967  1
  O  O352  1  0.62181246  0.24945211  0.26955759  1
  O  O353  1  0.60549707  0.24625607  0.75306707  1
  O  O354  1  0.60460887  0.74169418  0.25173112  1
  O  O355  1  0.62218782  0.76413626  0.73735972  1
  O  O356  1  0.36697682  0.25398492  0.22756248  1
  O  O357  1  0.39149781  0.24190810  0.75514430  1
  O  O358  1  0.39438265  0.74947982  0.23524813  1
  O  O359  1  0.38343692  0.74577514  0.73870337  1
  O  O360  1  0.89175251  0.27868425  0.21886222  1
  O  O361  1  0.86732657  0.23954336  0.72968907  1
  O  O362  1  0.87607559  0.73931805  0.25019419  1
  O  O363  1  0.88471090  0.75442377  0.74656250  1
  O  O364  1  0.37863056  0.48788153  0.50602152  1
  O  O365  1  0.38336667  0.49456186  0.99046840  1
  O  O366  1  0.36719501  0.98053118  0.49359961  1
  O  O367  1  0.36906941  0.99127572  0.97989364  1
  O  O368  1  0.87462827  0.48658347  0.50068526  1
  O  O369  1  0.88940210  0.49900179  0.99970211  1
  O  O370  1  0.89314136  1.00529191  0.50786748  1
  O  O371  1  0.86887500  0.98571543  1.00233997  1
  O  O372  1  0.13665904  0.01890175  -0.00122870  1
  O  O373  1  0.13915471  0.01941296  0.50413838  1
  O  O374  1  0.11486899  0.50489916  0.00323064  1
  O  O375  1  0.04116877  0.49257965  0.58969590  1
  O  O376  1  0.62407633  0.02011658  -0.00694527  1
  O  O377  1  0.63280644  0.01036167  0.51348704  1
  O  O378  1  0.61383882  0.48882550  -0.00550630  1
  O  O379  1  0.61684548  0.49738595  0.51623124  1
  O  O380  1  0.36873528  0.37166450  0.11055301  1
  O  O381  1  0.35821312  0.37922348  0.61785879  1
  O  O382  1  0.38464929  0.86041118  0.12211745  1
  O  O383  1  0.38064160  0.86186359  0.61412623  1
  O  O384  1  0.88673375  0.33058681  0.15503708  1
  O  O385  1  0.86141238  0.36547965  0.61026868  1
  O  O386  1  0.87064298  0.87503630  0.11390229  1
  O  O387  1  0.89345117  0.86377374  0.62519157  1
  O  O388  1  0.14864524  0.12008522  0.37805185  1
  O  O389  1  0.12288160  0.13878957  0.88515100  1
  O  O390  1  0.14096495  0.62784492  0.35724293  1
  O  O391  1  0.13857602  0.62290655  0.88241990  1
  O  O392  1  0.62350621  0.11713750  0.39100345  1
  O  O393  1  0.62186383  0.11041854  0.89868125  1
  O  O394  1  0.64812264  0.62514593  0.37421621  1
  O  O395  1  0.64688268  0.60851135  0.87969178  1
