# generated using pymatgen
data_V35Zn35O128
_symmetry_space_group_name_H-M   'P 1'
_cell_length_a   16.84741014
_cell_length_b   16.86484711
_cell_length_c   16.83024532
_cell_angle_alpha   90.04992923
_cell_angle_beta   89.90542576
_cell_angle_gamma   89.83842521
_symmetry_Int_Tables_number   1
_chemical_formula_structural   V35Zn35O128
_chemical_formula_sum   'V70 Zn70 O256'
_cell_volume   4781.93334268
_cell_formula_units_Z   2
loop_
 _symmetry_equiv_pos_site_id
 _symmetry_equiv_pos_as_xyz
  1  'x, y, z'
loop_
 _atom_site_type_symbol
 _atom_site_label
 _atom_site_symmetry_multiplicity
 _atom_site_fract_x
 _atom_site_fract_y
 _atom_site_fract_z
 _atom_site_occupancy
  V  V0  1  0.12945227  0.50034087  0.12684018  1
  V  V1  1  0.37291430  0.75114454  0.62683439  1
  V  V2  1  0.49254307  0.73502010  0.22833602  1
  V  V3  1  -0.00470143  0.49686406  0.00128718  1
  V  V4  1  0.87588356  0.62606532  0.25149386  1
  V  V5  1  0.74927732  0.88263883  0.13480136  1
  V  V6  1  0.14062075  0.14531719  -0.00021842  1
  V  V7  1  0.24133209  0.63768641  0.88107864  1
  V  V8  1  0.49977837  0.37547498  0.88002937  1
  V  V9  1  0.74684705  0.63626754  0.38256334  1
  V  V10  1  0.75237190  0.73934809  -0.00842379  1
  V  V11  1  0.87249596  0.88675181  -0.00543295  1
  V  V12  1  0.36521917  0.36231095  0.00657368  1
  V  V13  1  -0.00415766  0.74854748  0.25183841  1
  V  V14  1  0.00198149  0.88127746  0.87957532  1
  V  V15  1  0.62380462  0.50499329  0.62021787  1
  V  V16  1  0.75761215  0.37049495  0.62257355  1
  V  V17  1  0.24655677  0.23881532  0.49157847  1
  V  V18  1  0.49571445  0.62591090  0.63225929  1
  V  V19  1  0.37134893  0.13968194  0.25296158  1
  V  V20  1  0.38257685  0.23393751  0.62458998  1
  V  V21  1  0.64251240  0.12140182  0.00408487  1
  V  V22  1  0.51238697  0.37027183  0.37178538  1
  V  V23  1  0.12380446  0.88083993  0.23987087  1
  V  V24  1  0.51917504  0.25567957  0.24148720  1
  V  V25  1  0.49698363  0.23747911  0.75108452  1
  V  V26  1  0.01676537  0.75138329  0.74788891  1
  V  V27  1  0.35768084  -0.01634163  0.37191373  1
  V  V28  1  0.62997911  0.48591736  0.13175754  1
  V  V29  1  0.74916239  0.48332396  0.25159899  1
  V  V30  1  0.25312020  0.37759781  0.62832606  1
  V  V31  1  0.87699743  0.88659198  0.49788145  1
  V  V32  1  0.49889192  0.11791102  0.12103979  1
  V  V33  1  0.24610154  0.89051747  0.62040590  1
  V  V34  1  0.23847245  0.50355508  0.75068996  1
  V  V35  1  0.49923432  0.50629566  0.49903680  1
  V  V36  1  0.00583160  0.00765288  0.48610799  1
  V  V37  1  0.63948641  0.24573868  0.88157658  1
  V  V38  1  0.50040788  0.50310250  0.01084157  1
  V  V39  1  0.87473766  0.50329051  0.87093616  1
  V  V40  1  0.87251318  0.48700825  0.39021955  1
  V  V41  1  0.37531411  0.50440526  0.36001100  1
  V  V42  1  0.24534215  0.36331609  0.13001170  1
  V  V43  1  -0.00089388  0.62125864  0.62552023  1
  V  V44  1  0.86194745  0.10886046  0.76513305  1
  V  V45  1  0.12579329  0.35038085  0.75561091  1
  V  V46  1  0.61766498  0.88135098  0.24905041  1
  V  V47  1  0.24966788  0.75291537  0.50094981  1
  V  V48  1  -0.00066475  0.36572555  0.86707482  1
  V  V49  1  0.12195655  0.89957620  0.74418945  1
  V  V50  1  0.75378674  0.75713651  0.51191893  1
  V  V51  1  0.61327074  0.74962205  0.37717092  1
  V  V52  1  0.25142952  0.62245525  0.36191242  1
  V  V53  1  0.73533413  0.23976373  0.48859941  1
  V  V54  1  0.12058401  0.61514285  0.50842696  1
  V  V55  1  0.00576030  0.10264077  0.11785443  1
  V  V56  1  0.88035370  0.26118153  0.10915182  1
  V  V57  1  0.37022344  0.50208022  0.87731512  1
  V  V58  1  0.59688876  0.75032862  0.87459322  1
  V  V59  1  0.49363967  -0.00523419  -0.01569853  1
  V  V60  1  0.87828048  0.74094176  0.12481048  1
  V  V61  1  0.01855737  0.11299226  0.63133660  1
  V  V62  1  0.87834546  0.23529322  0.63107426  1
  V  V63  1  0.86279033  0.63921851  0.74610186  1
  V  V64  1  0.26415923  0.86936706  0.10981722  1
  V  V65  1  0.62583794  0.62320542  0.00941504  1
  V  V66  1  0.11731683  0.75172325  0.37422499  1
  V  V67  1  0.75123324  0.50267938  0.75646481  1
  V  V68  1  0.62254673  0.37877863  0.75257990  1
  V  V69  1  0.11774664  0.63436658  -0.00174004  1
  Zn  Zn70  1  0.22782462  0.01093703  0.24274846  1
  Zn  Zn71  1  0.37668047  0.37481994  0.49952870  1
  Zn  Zn72  1  0.74280441  0.88366435  0.64664502  1
  Zn  Zn73  1  0.37749713  0.63717411  0.76100476  1
  Zn  Zn74  1  0.02762990  0.43133046  0.45236009  1
  Zn  Zn75  1  0.13334463  0.37539006  0.27601486  1
  Zn  Zn76  1  0.18030008  0.18276772  0.18612111  1
  Zn  Zn77  1  0.20111930  0.18194252  0.69158051  1
  Zn  Zn78  1  0.18545158  0.69071872  0.17934409  1
  Zn  Zn79  1  0.19085387  0.68499062  0.68660643  1
  Zn  Zn80  1  0.69568393  0.18714938  0.18365891  1
  Zn  Zn81  1  0.69363255  0.18778083  0.70159343  1
  Zn  Zn82  1  0.68947489  0.68934745  0.18990947  1
  Zn  Zn83  1  0.67682604  0.69170483  0.69244155  1
  Zn  Zn84  1  0.31682814  0.31858630  0.31000301  1
  Zn  Zn85  1  0.32628073  0.32624592  0.80131045  1
  Zn  Zn86  1  0.31028518  0.80689174  0.30122291  1
  Zn  Zn87  1  0.29154121  0.80565646  0.79655344  1
  Zn  Zn88  1  0.81741886  0.24358565  0.30109026  1
  Zn  Zn89  1  0.82030082  0.31249223  0.80873300  1
  Zn  Zn90  1  0.81562219  0.93888656  0.31380279  1
  Zn  Zn91  1  0.80818441  0.81707837  0.81787949  1
  Zn  Zn92  1  0.20005558  0.43551934  0.44342563  1
  Zn  Zn93  1  0.18225940  0.43737115  0.93796710  1
  Zn  Zn94  1  0.18344265  0.93876667  0.42905036  1
  Zn  Zn95  1  0.19704957  0.93768373  0.92424399  1
  Zn  Zn96  1  0.69380784  0.43427634  0.43762137  1
  Zn  Zn97  1  0.69571504  0.43167890  0.94543163  1
  Zn  Zn98  1  0.67130607  0.93418248  0.44235992  1
  Zn  Zn99  1  0.68079771  0.93151826  0.93235460  1
  Zn  Zn100  1  0.30942721  0.05445885  0.06430378  1
  Zn  Zn101  1  0.32432392  0.05984867  0.55153697  1
  Zn  Zn102  1  0.30403235  0.55587158  0.05829152  1
  Zn  Zn103  1  0.31293089  0.56382673  0.56067007  1
  Zn  Zn104  1  0.82137599  0.06427347  0.07513952  1
  Zn  Zn105  1  0.80566412  0.06442387  0.55502247  1
  Zn  Zn106  1  0.81089824  0.55691066  0.06457818  1
  Zn  Zn107  1  0.81078724  0.56648853  0.56789580  1
  Zn  Zn108  1  0.43647306  0.43389642  0.18646876  1
  Zn  Zn109  1  0.43457374  0.43920900  0.68857759  1
  Zn  Zn110  1  0.43485501  0.93130063  0.18308450  1
  Zn  Zn111  1  0.44575774  0.91572726  0.68563088  1
  Zn  Zn112  1  0.92681165  0.44013510  0.18147075  1
  Zn  Zn113  1  0.96627021  0.41419296  0.64590686  1
  Zn  Zn114  1  0.94508120  0.93459618  0.18365642  1
  Zn  Zn115  1  0.93027640  0.93861511  0.67709791  1
  Zn  Zn116  1  -0.06304036  0.08409440  0.29655040  1
  Zn  Zn117  1  0.03960260  0.07398674  0.82234521  1
  Zn  Zn118  1  0.06165829  0.55439320  0.31933711  1
  Zn  Zn119  1  0.05658394  0.56434713  0.81155635  1
  Zn  Zn120  1  0.52219039  0.04358080  0.30190591  1
  Zn  Zn121  1  0.57398465  0.05831273  0.81374941  1
  Zn  Zn122  1  0.56470498  0.56433092  0.31053498  1
  Zn  Zn123  1  0.56418825  0.56885468  0.81899198  1
  Zn  Zn124  1  0.43814801  0.18670966  0.43276042  1
  Zn  Zn125  1  0.43541492  0.18157401  0.93682555  1
  Zn  Zn126  1  0.43331636  0.68631888  0.44071551  1
  Zn  Zn127  1  0.43091142  0.68358821  0.95344485  1
  Zn  Zn128  1  0.92384864  0.18561094  0.45485654  1
  Zn  Zn129  1  0.93605397  0.18266398  0.94912313  1
  Zn  Zn130  1  0.93195669  0.68824901  0.44021501  1
  Zn  Zn131  1  0.93906018  0.68899863  0.92888126  1
  Zn  Zn132  1  0.06151711  0.30908342  0.05440189  1
  Zn  Zn133  1  0.06898577  0.29586333  0.56658315  1
  Zn  Zn134  1  0.05981957  0.81559316  0.06526078  1
  Zn  Zn135  1  0.05918881  0.81502510  0.56253163  1
  Zn  Zn136  1  0.56854660  0.31185624  0.06175153  1
  Zn  Zn137  1  0.56139654  0.31572720  0.56208855  1
  Zn  Zn138  1  0.56394361  0.81492693  0.06243468  1
  Zn  Zn139  1  0.56533902  0.80453062  0.56501462  1
  O  O140  1  0.12078151  0.12573404  0.10893791  1
  O  O141  1  0.11777271  0.12714664  0.63629676  1
  O  O142  1  0.12952986  0.61218537  0.10917794  1
  O  O143  1  0.11898873  0.63207397  0.61431342  1
  O  O144  1  0.61903098  0.13673522  0.11212797  1
  O  O145  1  0.61829485  0.10433901  0.65609091  1
  O  O146  1  0.63314821  0.61388783  0.11613856  1
  O  O147  1  0.61381828  0.61244416  0.63210824  1
  O  O148  1  0.38372592  0.39303130  0.37464037  1
  O  O149  1  0.37909391  0.38090751  0.88728573  1
  O  O150  1  0.36645019  0.88358892  0.36922049  1
  O  O151  1  0.34832156  0.93973598  0.82855457  1
  O  O152  1  0.87041633  0.39013593  0.37702176  1
  O  O153  1  0.89045871  0.38919713  0.85787489  1
  O  O154  1  0.86452111  0.87762599  0.39688232  1
  O  O155  1  0.88214918  0.86893890  0.88796081  1
  O  O156  1  0.25436067  -0.00027806  0.36046591  1
  O  O157  1  0.28775510  -0.01565312  0.85636164  1
  O  O158  1  0.26457923  0.51120473  0.37854815  1
  O  O159  1  0.25397916  0.50628300  0.87129053  1
  O  O160  1  0.73971413  0.00847837  0.37830219  1
  O  O161  1  0.71827904  -0.04048044  0.81703048  1
  O  O162  1  0.75145654  0.50906149  0.36726224  1
  O  O163  1  0.75762896  0.49139616  0.86748197  1
  O  O164  1  0.23525533  0.49236003  0.12201244  1
  O  O165  1  0.26042753  0.48956837  0.63758502  1
  O  O166  1  0.25953396  0.98179260  0.13726779  1
  O  O167  1  0.25739589  0.98887775  0.61470808  1
  O  O168  1  0.74318896  0.49941111  0.13926133  1
  O  O169  1  0.74265699  0.49099249  0.63447385  1
  O  O170  1  0.75493623  0.98110895  0.11937616  1
  O  O171  1  0.71646249  0.99146229  0.59234431  1
  O  O172  1  0.00449006  0.36894880  0.24769818  1
  O  O173  1  0.01851361  0.37310693  0.75025843  1
  O  O174  1  0.00835644  0.85737686  0.24660731  1
  O  O175  1  0.00786199  0.86831150  0.74826090  1
  O  O176  1  0.49712047  0.36524861  0.25841354  1
  O  O177  1  0.50677468  0.37612447  0.76159264  1
  O  O178  1  0.51518939  0.85878657  0.23660559  1
  O  O179  1  0.56012102  0.89475474  0.71292703  1
  O  O180  1  0.50057950  0.14100393  0.24009777  1
  O  O181  1  0.50024982  0.14014547  0.76113894  1
  O  O182  1  0.50489036  0.63582077  0.24841284  1
  O  O183  1  0.49180027  0.61222490  0.73861115  1
  O  O184  1  1.01634206  0.12055779  0.21881852  1
  O  O185  1  0.98700127  0.12039996  0.73284835  1
  O  O186  1  0.98464375  0.62966749  0.25779812  1
  O  O187  1  0.99183319  0.64019484  0.74729344  1
  O  O188  1  0.37852733  0.26432801  -0.00238332  1
  O  O189  1  0.38342777  0.25133230  0.51475747  1
  O  O190  1  0.36597236  0.70736373  0.04970622  1
  O  O191  1  0.35905235  0.74539782  0.50824207  1
  O  O192  1  0.86309300  0.24980302  0.00951185  1
  O  O193  1  0.85399661  0.24771353  0.52541669  1
  O  O194  1  0.86605712  0.74394280  0.00467388  1
  O  O195  1  0.86013662  0.75787976  0.50369985  1
  O  O196  1  0.14630333  0.24678529  0.50450378  1
  O  O197  1  0.13322741  0.24637631  0.98770042  1
  O  O198  1  0.12966625  0.74506280  0.49195411  1
  O  O199  1  0.11098545  0.73304010  1.00267576  1
  O  O200  1  0.63461318  0.25184977  0.50694182  1
  O  O201  1  0.62058386  0.24098748  0.98720058  1
  O  O202  1  0.63319859  0.75885635  0.48497821  1
  O  O203  1  0.63696726  0.74175888  1.00132044  1
  O  O204  1  0.50447208  0.24968037  0.13632100  1
  O  O205  1  0.49472333  0.25502484  0.63973977  1
  O  O206  1  0.50628780  0.74189842  0.12772319  1
  O  O207  1  0.48654832  0.73861696  0.61508921  1
  O  O208  1  0.98541169  0.25760851  0.12148398  1
  O  O209  1  0.98403880  0.22949640  0.62112612  1
  O  O210  1  0.98646904  0.74898141  0.13175275  1
  O  O211  1  1.00080441  0.74484185  0.64023252  1
  O  O212  1  0.05302069  0.25502210  0.37565961  1
  O  O213  1  -0.00864692  0.26870623  0.87825984  1
  O  O214  1  0.00722662  0.74179588  0.36837168  1
  O  O215  1  -0.00759838  0.76209705  0.85474368  1
  O  O216  1  0.50024890  0.26497922  0.36774690  1
  O  O217  1  0.50000732  0.26009166  0.86722909  1
  O  O218  1  0.51179084  0.74352447  0.37912281  1
  O  O219  1  0.49472626  0.74705034  0.88809186  1
  O  O220  1  0.26226774  0.13959721  0.49910016  1
  O  O221  1  0.24184452  0.12888104  1.01100380  1
  O  O222  1  0.23672002  0.63287922  0.49884026  1
  O  O223  1  0.23382783  0.61882742  0.98763449  1
  O  O224  1  0.74598254  0.13882027  0.49390918  1
  O  O225  1  0.74102087  0.12310778  1.01140860  1
  O  O226  1  0.75225927  0.63818614  0.49331537  1
  O  O227  1  0.74544876  0.63323844  1.00344976  1
  O  O228  1  0.26063625  0.37793173  0.00317965  1
  O  O229  1  0.25683910  0.36797802  0.51494155  1
  O  O230  1  0.24323739  0.88300777  0.00948700  1
  O  O231  1  0.23580445  0.86578024  0.51161734  1
  O  O232  1  0.73048544  0.35843176  0.01971875  1
  O  O233  1  0.74587997  0.37164954  0.52023839  1
  O  O234  1  0.75924488  0.86359434  0.00299559  1
  O  O235  1  0.75004990  0.86312795  0.49877145  1
  O  O236  1  0.10844730  0.49905203  0.22715336  1
  O  O237  1  0.13658623  0.50290760  0.75240868  1
  O  O238  1  0.11572329  0.97848837  0.26050114  1
  O  O239  1  0.11655903  0.99669641  0.74987366  1
  O  O240  1  0.63557124  0.50252583  0.24089725  1
  O  O241  1  0.63051319  0.49600714  0.74903968  1
  O  O242  1  0.60890270  0.98092904  0.25924075  1
  O  O243  1  0.61548951  1.04189284  0.70155641  1
  O  O244  1  0.41149391  0.00683068  0.27219182  1
  O  O245  1  0.38841101  -0.02117845  0.76821824  1
  O  O246  1  0.38185801  0.50495248  0.26049651  1
  O  O247  1  0.36549586  0.49525485  0.76720664  1
  O  O248  1  0.87850112  0.00042699  0.24566709  1
  O  O249  1  0.87180712  0.00875867  0.74670277  1
  O  O250  1  0.86294692  0.50585560  0.25592804  1
  O  O251  1  0.86161392  0.51086236  0.75409233  1
  O  O252  1  0.11283913  0.42222705  0.37580455  1
  O  O253  1  0.11548292  0.37976962  0.86192501  1
  O  O254  1  0.13180950  0.85512538  0.36380625  1
  O  O255  1  0.11339768  0.87873823  0.85883614  1
  O  O256  1  0.61038117  0.38643504  0.37334310  1
  O  O257  1  0.61636850  0.36883908  0.87220013  1
  O  O258  1  0.62815735  0.86110352  0.36179836  1
  O  O259  1  0.61708745  0.84789921  0.89021935  1
  O  O260  1  0.39307425  0.12209408  0.13665693  1
  O  O261  1  0.38175936  0.13433658  0.62439305  1
  O  O262  1  0.36276502  0.64974201  0.10167688  1
  O  O263  1  0.37754478  0.63260089  0.63001294  1
  O  O264  1  0.90024308  0.13296802  0.11003309  1
  O  O265  1  0.86237807  0.12940316  0.63568732  1
  O  O266  1  0.86565158  0.63024226  0.13713473  1
  O  O267  1  0.88023585  0.62590047  0.63947266  1
  O  O268  1  0.24084547  0.26495274  0.12469404  1
  O  O269  1  0.26882577  0.25226043  0.62360501  1
  O  O270  1  0.24139388  0.76848662  0.12363084  1
  O  O271  1  0.25365254  0.75438864  0.61833629  1
  O  O272  1  0.80044904  0.22907836  0.18704435  1
  O  O273  1  0.74548918  0.26223300  0.62990883  1
  O  O274  1  0.75991661  0.75734783  0.11737941  1
  O  O275  1  0.72959226  0.75908747  0.61526062  1
  O  O276  1  0.26452511  0.26348650  0.39433826  1
  O  O277  1  0.29554425  0.16662258  0.83449691  1
  O  O278  1  0.24417195  0.73652326  0.38078702  1
  O  O279  1  0.25563715  0.73795494  0.87852382  1
  O  O280  1  0.74809547  0.26419747  0.39107380  1
  O  O281  1  0.73687878  0.26155815  0.87179595  1
  O  O282  1  0.74252620  0.74000030  0.38480466  1
  O  O283  1  0.74896970  0.74789258  0.89083536  1
  O  O284  1  0.02180592  0.13271971  0.00591974  1
  O  O285  1  -0.00612792  0.11628720  0.51640336  1
  O  O286  1  0.00962536  0.61182214  -0.01381476  1
  O  O287  1  0.01131148  0.63406842  0.50920152  1
  O  O288  1  0.50592361  0.12189770  0.00919823  1
  O  O289  1  0.52857701  0.10778325  0.46581111  1
  O  O290  1  0.50522632  0.60797164  0.00526407  1
  O  O291  1  0.49569049  0.61386440  0.51215440  1
  O  O292  1  0.49837436  0.38420987  0.48769180  1
  O  O293  1  0.49123332  0.38085622  0.99684759  1
  O  O294  1  0.51419386  0.91010743  0.52463396  1
  O  O295  1  0.50947361  0.89881403  1.01174744  1
  O  O296  1  0.99615016  0.37616173  0.54111228  1
  O  O297  1  1.00728225  0.38970612  0.97955058  1
  O  O298  1  0.98575156  0.88663843  0.50673900  1
  O  O299  1  0.98904315  0.86707276  0.98775976  1
  O  O300  1  0.49288134  0.49930852  0.37901845  1
  O  O301  1  0.49302291  0.49188909  0.88493947  1
  O  O302  1  0.54926924  1.04933869  0.41801067  1
  O  O303  1  0.50776404  1.00026160  0.88257994  1
  O  O304  1  0.97717022  0.50991550  0.38285051  1
  O  O305  1  0.99204811  0.49469259  0.87703782  1
  O  O306  1  0.98737010  1.02054181  0.38915001  1
  O  O307  1  0.99086507  0.97874731  0.86827703  1
  O  O308  1  0.00049140  0.00174636  0.10821222  1
  O  O309  1  0.00213118  0.00943051  0.61669335  1
  O  O310  1  0.00311975  0.49105369  0.10650618  1
  O  O311  1  0.00044410  0.52220379  0.63933824  1
  O  O312  1  0.50780983  0.01675151  0.12416330  1
  O  O313  1  0.49482948  -0.03752753  0.57790955  1
  O  O314  1  0.51437950  0.49048544  0.12135342  1
  O  O315  1  0.50371365  0.50305566  0.61884917  1
  O  O316  1  0.24705398  0.37585537  0.23591836  1
  O  O317  1  0.24033545  0.38110640  0.75287475  1
  O  O318  1  0.23233769  0.86874713  0.24209920  1
  O  O319  1  0.23108664  0.87851233  0.73679360  1
  O  O320  1  0.75118072  0.38804294  0.25898964  1
  O  O321  1  0.73845291  0.38252031  0.74599111  1
  O  O322  1  0.74298166  0.87606480  0.24064291  1
  O  O323  1  0.73580831  0.89377361  0.77034309  1
  O  O324  1  0.26908536  0.12356471  0.23808798  1
  O  O325  1  0.26473096  0.12359364  0.77353835  1
  O  O326  1  0.24184610  0.62715300  0.26346497  1
  O  O327  1  0.25228555  0.62085374  0.76377949  1
  O  O328  1  0.74012085  0.10648228  0.28293164  1
  O  O329  1  0.75996044  0.12272192  0.76503125  1
  O  O330  1  0.75816626  0.62570871  0.26398776  1
  O  O331  1  0.75611391  0.61881322  0.74330014  1
  O  O332  1  0.38201308  0.12218818  0.35631652  1
  O  O333  1  0.35379378  0.12523766  0.87233947  1
  O  O334  1  0.36237697  0.61787812  0.37817861  1
  O  O335  1  0.36170234  0.61682802  0.88240596  1
  O  O336  1  0.89799354  0.17778689  0.34836995  1
  O  O337  1  0.89469232  0.12280072  0.86155508  1
  O  O338  1  0.86068237  0.62230571  0.37141170  1
  O  O339  1  0.87994455  0.61619678  0.85654184  1
  O  O340  1  0.13443477  0.38475168  0.11500576  1
  O  O341  1  0.14285928  0.35901100  0.64453451  1
  O  O342  1  0.12330649  0.87658515  0.13550189  1
  O  O343  1  0.13122336  0.87752332  0.63381762  1
  O  O344  1  0.63115969  0.38592405  0.12459281  1
  O  O345  1  0.62759039  0.38479180  0.63777782  1
  O  O346  1  0.64127118  0.86710516  0.13611007  1
  O  O347  1  0.61100837  0.86426256  0.65797710  1
  O  O348  1  0.14228834  0.25442109  0.27082747  1
  O  O349  1  0.13640368  0.25213984  0.76409957  1
  O  O350  1  0.11218955  0.74487295  0.25533490  1
  O  O351  1  0.11786405  0.75158239  0.75162891  1
  O  O352  1  0.61794499  0.24839340  0.24948252  1
  O  O353  1  0.61400609  0.25818894  0.76167333  1
  O  O354  1  0.61745576  0.75266736  0.26054455  1
  O  O355  1  0.61487052  0.73524914  0.77519426  1
  O  O356  1  0.38412024  0.24224841  0.25118858  1
  O  O357  1  0.38789691  0.25284869  0.74207738  1
  O  O358  1  0.39431047  0.75114793  0.25094916  1
  O  O359  1  0.37202817  0.75290983  0.73699358  1
  O  O360  1  0.96698160  0.31205443  0.28215423  1
  O  O361  1  0.86834936  0.23660863  0.73841494  1
  O  O362  1  0.88146580  0.74229104  0.24208908  1
  O  O363  1  0.86477363  0.74108061  0.75156948  1
  O  O364  1  0.38535538  0.49884383  0.49340600  1
  O  O365  1  0.38113312  0.49267588  0.99477415  1
  O  O366  1  0.38157128  1.00749766  0.46777223  1
  O  O367  1  0.39416535  1.01131537  0.99687498  1
  O  O368  1  0.85879684  0.49957134  0.49091621  1
  O  O369  1  0.88639180  0.50937377  0.98904702  1
  O  O370  1  0.87834055  0.99324566  0.50241085  1
  O  O371  1  0.86711326  0.98432724  0.99737449  1
  O  O372  1  0.13261786  0.03518420  -0.05321206  1
  O  O373  1  0.10615877  -0.00675229  0.48989966  1
  O  O374  1  0.11297013  0.50642515  0.00428294  1
  O  O375  1  0.12685644  0.51566312  0.50487995  1
  O  O376  1  0.62314242  0.01782429  -0.01039046  1
  O  O377  1  0.65235857  -0.00664779  0.54424542  1
  O  O378  1  0.62110741  0.50248366  0.01102636  1
  O  O379  1  0.61677941  0.49310006  0.51215952  1
  O  O380  1  0.36107938  0.38068238  0.11524447  1
  O  O381  1  0.36683658  0.36605200  0.62985893  1
  O  O382  1  0.36677359  0.86888321  0.11978969  1
  O  O383  1  0.35623985  0.86567879  0.62911175  1
  O  O384  1  0.86878280  0.36228186  0.12615421  1
  O  O385  1  0.85995782  0.36318077  0.64248676  1
  O  O386  1  0.86865338  0.86383161  0.11179411  1
  O  O387  1  0.85432816  0.88262158  0.61285872  1
  O  O388  1  0.09765072  0.21038312  0.33581766  1
  O  O389  1  0.13219403  0.10059484  0.88954663  1
  O  O390  1  0.13384801  0.62695567  0.38536605  1
  O  O391  1  0.13301960  0.62386718  0.88142015  1
  O  O392  1  0.69906800  0.07562049  0.34068406  1
  O  O393  1  0.62882052  0.13886128  0.88275658  1
  O  O394  1  0.63674164  0.63471062  0.37249138  1
  O  O395  1  0.61756920  0.63302216  0.89735439  1
