# generated using pymatgen
data_V35Zn35O128
_symmetry_space_group_name_H-M   'P 1'
_cell_length_a   16.88186123
_cell_length_b   16.87359848
_cell_length_c   16.91554748
_cell_angle_alpha   90.17066406
_cell_angle_beta   90.21464746
_cell_angle_gamma   89.78695187
_symmetry_Int_Tables_number   1
_chemical_formula_structural   V35Zn35O128
_chemical_formula_sum   'V70 Zn70 O256'
_cell_volume   4818.43645784
_cell_formula_units_Z   2
loop_
 _symmetry_equiv_pos_site_id
 _symmetry_equiv_pos_as_xyz
  1  'x, y, z'
loop_
 _atom_site_type_symbol
 _atom_site_label
 _atom_site_symmetry_multiplicity
 _atom_site_fract_x
 _atom_site_fract_y
 _atom_site_fract_z
 _atom_site_occupancy
  V  V0  1  -0.01211459  0.63255255  0.61753618  1
  V  V1  1  0.38037600  0.36950274  -0.02728874  1
  V  V2  1  0.60896324  0.48509216  0.60897050  1
  V  V3  1  0.51140686  0.12266212  0.63130434  1
  V  V4  1  0.25500281  0.51155534  0.76849798  1
  V  V5  1  0.73842774  0.74009439  0.01300098  1
  V  V6  1  0.11837274  0.38067548  0.22409175  1
  V  V7  1  0.87585171  0.75590966  0.13083430  1
  V  V8  1  0.25318250  0.62043792  0.36569034  1
  V  V9  1  0.73862654  0.24592757  0.49221743  1
  V  V10  1  0.64306860  0.88223584  0.75005079  1
  V  V11  1  0.50832721  0.25170492  0.77194047  1
  V  V12  1  0.36702132  0.26083911  0.63151779  1
  V  V13  1  -0.01368959  0.49439664  0.49098695  1
  V  V14  1  -0.00192976  0.74633604  0.75371289  1
  V  V15  1  0.49025721  -0.00156897  0.50312791  1
  V  V16  1  0.77536282  0.23846892  0.00869584  1
  V  V17  1  0.75561147  0.49801675  0.27138462  1
  V  V18  1  0.11950034  0.75182580  0.35827266  1
  V  V19  1  0.87055553  0.37046727  0.48878302  1
  V  V20  1  0.13689196  0.49399888  0.61852738  1
  V  V21  1  0.87730072  0.00461006  0.86524798  1
  V  V22  1  0.62573653  0.75569696  0.88854464  1
  V  V23  1  0.50390612  0.75852366  0.25892018  1
  V  V24  1  -0.01102857  0.39513988  0.88143978  1
  V  V25  1  0.87338452  0.62356940  0.25537675  1
  V  V26  1  0.37818915  0.12012497  0.75900133  1
  V  V27  1  0.25837875  -0.00171283  0.76184482  1
  V  V28  1  0.75621603  0.01604368  0.26721190  1
  V  V29  1  0.50184529  0.13743152  0.11372584  1
  V  V30  1  0.23546001  0.51838599  0.22520988  1
  V  V31  1  0.37607769  0.76889050  0.12599278  1
  V  V32  1  0.49409248  0.61832341  0.61925615  1
  V  V33  1  0.49924348  0.75916961  0.76119831  1
  V  V34  1  0.48773506  0.88416949  0.37888355  1
  V  V35  1  0.89758118  0.13082764  0.24739470  1
  V  V36  1  0.22915632  0.72657825  -0.04292178  1
  V  V37  1  0.26901157  0.36432790  0.12229688  1
  V  V38  1  0.76043615  0.86880632  0.60228846  1
  V  V39  1  0.47423410  -0.00865408  -0.00624014  1
  V  V40  1  0.13182067  0.86240168  0.76303364  1
  V  V41  1  0.41240916  0.58386889  0.26573832  1
  V  V42  1  0.63083653  0.35693977  0.25801400  1
  V  V43  1  0.61897925  0.38058022  0.76526463  1
  V  V44  1  0.51172671  0.62222323  0.12177757  1
  V  V45  1  0.63918568  0.63582828  0.50157796  1
  V  V46  1  0.62309819  0.12540256  0.48529239  1
  V  V47  1  0.12243537  0.12840052  0.49715193  1
  V  V48  1  0.11857450  0.36728540  0.74295144  1
  V  V49  1  0.38130211  0.40586292  0.45456592  1
  V  V50  1  0.86038032  0.87965939  0.00146746  1
  V  V51  1  0.37980928  0.75149920  0.62281593  1
  V  V52  1  0.01149213  -0.00713307  0.01553636  1
  V  V53  1  0.10247580  -0.00642268  0.63482745  1
  V  V54  1  0.25572227  0.75369437  0.49592848  1
  V  V55  1  0.00561449  0.89034650  0.36510998  1
  V  V56  1  0.12902887  0.62216669  0.49496063  1
  V  V57  1  0.47001096  0.23452933  0.27977523  1
  V  V58  1  0.25602787  0.87942765  0.61978819  1
  V  V59  1  0.88369776  0.24057403  0.63554868  1
  V  V60  1  0.74836370  0.37248986  0.63408433  1
  V  V61  1  0.50023261  0.50150618  -0.01871758  1
  V  V62  1  0.73556608  0.12504070  0.86994727  1
  V  V63  1  0.11510256  0.24106130  0.87665416  1
  V  V64  1  0.63679506  0.87933934  0.25966385  1
  V  V65  1  0.63584672  0.49837448  0.12363406  1
  V  V66  1  0.00019617  0.61729179  0.10977102  1
  V  V67  1  0.12728820  0.12366876  0.02299441  1
  V  V68  1  0.13204800  0.26772610  0.38001167  1
  V  V69  1  0.63334237  0.00133268  0.11625761  1
  Zn  Zn70  1  0.25158855  0.13619026  0.88138543  1
  Zn  Zn71  1  0.80971380  0.58060797  0.79375010  1
  Zn  Zn72  1  0.91138149  0.91334647  0.50165157  1
  Zn  Zn73  1  -0.00006941  0.25466505  0.24608717  1
  Zn  Zn74  1  0.10730893  0.88935375  0.19795308  1
  Zn  Zn75  1  0.00213791  0.86424828  0.88067812  1
  Zn  Zn76  1  0.20544808  0.19478241  0.20704502  1
  Zn  Zn77  1  0.18474903  0.18436769  0.68257996  1
  Zn  Zn78  1  0.16993865  0.72161135  0.14972241  1
  Zn  Zn79  1  0.18951868  0.68480224  0.68309878  1
  Zn  Zn80  1  0.69444413  0.17984579  0.17937282  1
  Zn  Zn81  1  0.69208342  0.19164411  0.69334047  1
  Zn  Zn82  1  0.69055850  0.69037631  0.19622330  1
  Zn  Zn83  1  0.69823040  0.70260401  0.69484490  1
  Zn  Zn84  1  0.29589727  0.31428666  0.31250414  1
  Zn  Zn85  1  0.29771138  0.30748975  0.79118978  1
  Zn  Zn86  1  0.31337216  0.81536563  0.31069336  1
  Zn  Zn87  1  0.31233643  0.79681079  0.81213938  1
  Zn  Zn88  1  0.80864376  0.30221102  0.30471127  1
  Zn  Zn89  1  0.81566752  0.30288832  0.82266799  1
  Zn  Zn90  1  0.82525607  0.82231227  0.31713970  1
  Zn  Zn91  1  0.81857006  0.78555625  0.82132048  1
  Zn  Zn92  1  0.19585143  0.43617539  0.43677773  1
  Zn  Zn93  1  0.20288088  0.41568306  0.92339234  1
  Zn  Zn94  1  0.14123959  0.92230310  0.46498345  1
  Zn  Zn95  1  0.19662288  0.93219947  0.94875222  1
  Zn  Zn96  1  0.68441727  0.43540100  0.43756478  1
  Zn  Zn97  1  0.69746988  0.44912721  0.94420497  1
  Zn  Zn98  1  0.68077797  0.94610552  0.43922299  1
  Zn  Zn99  1  0.68571923  0.94050583  0.92552447  1
  Zn  Zn100  1  0.32604659  0.09568444  0.05134268  1
  Zn  Zn101  1  0.29641782  0.07831123  0.57131907  1
  Zn  Zn102  1  0.32817096  0.56821542  0.06055238  1
  Zn  Zn103  1  0.32035465  0.55860581  0.55398291  1
  Zn  Zn104  1  0.81255481  0.06366065  0.06847315  1
  Zn  Zn105  1  0.80743682  0.05313515  0.58433829  1
  Zn  Zn106  1  0.81517810  0.56804292  0.06027591  1
  Zn  Zn107  1  0.80466352  0.56038586  0.60458516  1
  Zn  Zn108  1  0.42879226  0.40839882  0.24509436  1
  Zn  Zn109  1  0.43756421  0.43793070  0.70462076  1
  Zn  Zn110  1  0.44279395  0.94687553  0.18228100  1
  Zn  Zn111  1  0.44068974  0.93660536  0.68642940  1
  Zn  Zn112  1  0.93681855  0.44644581  0.17898215  1
  Zn  Zn113  1  0.93106963  0.44359245  0.68943247  1
  Zn  Zn114  1  0.93061173  0.94117822  0.18728825  1
  Zn  Zn115  1  0.92007950  0.90313017  0.69118366  1
  Zn  Zn116  1  0.07604141  0.07055610  0.31192985  1
  Zn  Zn117  1  0.05751572  0.05010827  0.81958886  1
  Zn  Zn118  1  0.05578767  0.56342762  0.30500464  1
  Zn  Zn119  1  0.03970233  0.54489834  0.78691609  1
  Zn  Zn120  1  0.55868659  0.06366291  0.30827709  1
  Zn  Zn121  1  0.56057650  0.05215548  0.82269713  1
  Zn  Zn122  1  0.58070917  0.56318891  0.31513326  1
  Zn  Zn123  1  0.60024067  0.58546260  0.78934975  1
  Zn  Zn124  1  0.39822733  0.16995064  0.45169741  1
  Zn  Zn125  1  0.44336813  0.18264412  0.94239635  1
  Zn  Zn126  1  0.44479902  0.68861966  0.43600698  1
  Zn  Zn127  1  0.43364699  0.68970134  0.94020852  1
  Zn  Zn128  1  0.93523259  0.08929834  0.44662396  1
  Zn  Zn129  1  0.94668492  0.18273063  0.93750359  1
  Zn  Zn130  1  0.94212578  0.68682682  0.43234617  1
  Zn  Zn131  1  0.92242879  0.66618694  0.92707651  1
  Zn  Zn132  1  0.06876541  0.32298649  0.05208119  1
  Zn  Zn133  1  0.05801137  0.30721263  0.55500576  1
  Zn  Zn134  1  0.05515641  0.79126695  0.04440820  1
  Zn  Zn135  1  0.06773988  0.80887741  0.56123758  1
  Zn  Zn136  1  0.56792369  0.33001944  0.05801701  1
  Zn  Zn137  1  0.54356517  0.30816112  0.55522627  1
  Zn  Zn138  1  0.55709747  0.82296312  0.07378909  1
  Zn  Zn139  1  0.57342902  0.81705451  0.56366224  1
  O  O140  1  0.13773604  0.13148183  0.12036120  1
  O  O141  1  0.08780774  0.10295232  0.67079645  1
  O  O142  1  0.09930539  0.63346422  0.12662526  1
  O  O143  1  0.12725083  0.61452379  0.60620709  1
  O  O144  1  0.61784302  0.10847205  0.13166092  1
  O  O145  1  0.61198120  0.13095808  0.62893309  1
  O  O146  1  0.61983233  0.61819021  0.13395133  1
  O  O147  1  0.61084419  0.60057239  0.61221328  1
  O  O148  1  0.37669076  0.38515106  0.34984540  1
  O  O149  1  0.36108172  0.37103673  0.87530665  1
  O  O150  1  0.38773745  0.88002026  0.37581449  1
  O  O151  1  0.33031654  0.85139558  0.91487699  1
  O  O152  1  0.86593721  0.36799117  0.39094470  1
  O  O153  1  0.89042975  0.37731907  0.86370811  1
  O  O154  1  0.90345014  0.87237708  0.38273644  1
  O  O155  1  0.87486478  0.87486211  0.89355375  1
  O  O156  1  0.21534685  -0.04155258  0.29296861  1
  O  O157  1  0.24494517  -0.00358779  0.86216791  1
  O  O158  1  0.24208174  0.51884632  0.36732889  1
  O  O159  1  0.23677535  0.50937093  0.86819022  1
  O  O160  1  0.74496448  0.00582395  0.36625788  1
  O  O161  1  0.76872909  0.01207160  0.88427800  1
  O  O162  1  0.75419511  0.50040706  0.37001758  1
  O  O163  1  0.78446176  0.51523141  0.90417149  1
  O  O164  1  0.24647320  0.51182130  0.12521964  1
  O  O165  1  0.23719189  0.49712683  0.61031288  1
  O  O166  1  0.31114471  1.05192339  0.20936683  1
  O  O167  1  0.24706731  0.99060515  0.63910357  1
  O  O168  1  0.73718620  0.50190442  0.11320798  1
  O  O169  1  0.72023606  0.47726922  0.61964355  1
  O  O170  1  0.73715917  1.00332996  0.13834570  1
  O  O171  1  0.75862940  0.96816527  0.63781686  1
  O  O172  1  0.01725254  0.39171888  0.24139200  1
  O  O173  1  0.01370704  0.39593872  0.75628825  1
  O  O174  1  0.00714559  0.88363301  0.25833461  1
  O  O175  1  0.02227292  0.86483698  0.75341984  1
  O  O176  1  0.51682678  0.32976755  0.25066698  1
  O  O177  1  0.50642658  0.36113038  0.76315679  1
  O  O178  1  0.50496541  0.88021379  0.26503271  1
  O  O179  1  0.51133309  0.86129251  0.73701689  1
  O  O180  1  0.50866698  0.14332155  0.23818538  1
  O  O181  1  0.49965404  0.12679711  0.74737763  1
  O  O182  1  0.51201465  0.64389521  0.25303433  1
  O  O183  1  0.51510964  0.65014085  0.72524586  1
  O  O184  1  1.00505825  0.12598070  0.24184681  1
  O  O185  1  1.02521159  0.10927029  0.72372140  1
  O  O186  1  0.97974871  0.61396665  0.23263158  1
  O  O187  1  1.00158116  0.63552822  0.73033867  1
  O  O188  1  0.38688621  0.27072859  -0.00713127  1
  O  O189  1  0.35446167  0.24001297  0.53453099  1
  O  O190  1  0.39418290  0.74638872  0.02799270  1
  O  O191  1  0.36223188  0.74471631  0.50275322  1
  O  O192  1  0.87480127  0.25122883  -0.00678966  1
  O  O193  1  0.85794957  0.26535312  0.51473851  1
  O  O194  1  0.85482012  0.76095975  0.01141903  1
  O  O195  1  0.83728381  0.73944701  0.46925182  1
  O  O196  1  0.13245019  0.25196280  0.48553434  1
  O  O197  1  0.11552224  0.23215452  0.99125469  1
  O  O198  1  0.13842145  0.73788965  0.49297170  1
  O  O199  1  0.13072705  0.73677849  0.97481399  1
  O  O200  1  0.62932731  0.24444583  0.50351663  1
  O  O201  1  0.66574482  0.29509683  0.99691059  1
  O  O202  1  0.63309431  0.73581874  0.51020029  1
  O  O203  1  0.62926178  0.76661161  1.00129036  1
  O  O204  1  0.52731205  0.23466452  0.10209545  1
  O  O205  1  0.48948872  0.23307370  0.63265426  1
  O  O206  1  0.50075474  0.74216811  0.13860001  1
  O  O207  1  0.48759793  0.75053842  0.61736637  1
  O  O208  1  0.97137853  0.29086578  0.12195167  1
  O  O209  1  0.98274444  0.25683332  0.62068216  1
  O  O210  1  0.97791315  0.74582919  0.12580979  1
  O  O211  1  1.01538653  0.73555509  0.62729180  1
  O  O212  1  0.03924610  0.23986265  0.35679818  1
  O  O213  1  0.01160438  0.25719086  0.87105508  1
  O  O214  1  0.01642977  0.75187107  0.37445109  1
  O  O215  1  0.00283944  0.74314425  0.85566487  1
  O  O216  1  0.46760335  0.21888591  0.37903532  1
  O  O217  1  0.51332229  0.23842066  0.86935840  1
  O  O218  1  0.49978712  0.76906745  0.37191000  1
  O  O219  1  0.49862839  0.76127612  0.86419239  1
  O  O220  1  0.19518883  0.14368591  0.57467054  1
  O  O221  1  0.23146446  0.11412419  0.99458046  1
  O  O222  1  0.24657370  0.63044910  0.48712683  1
  O  O223  1  0.26611787  0.64434480  1.00415878  1
  O  O224  1  0.73184371  0.13743741  0.50945041  1
  O  O225  1  0.76220771  0.13099459  0.98989812  1
  O  O226  1  0.73469186  0.60764649  0.52415068  1
  O  O227  1  0.73825325  0.64220766  1.00653006  1
  O  O228  1  0.27284435  0.38550872  0.01217442  1
  O  O229  1  0.28474513  0.37934572  0.48152089  1
  O  O230  1  0.26619590  0.83713062  -0.03163232  1
  O  O231  1  0.23626564  0.86561011  0.50916950  1
  O  O232  1  0.73167288  0.34952756  0.00166715  1
  O  O233  1  0.75090784  0.36845648  0.50768650  1
  O  O234  1  0.76016355  0.88309353  0.00292244  1
  O  O235  1  0.73634291  0.87334430  0.50390121  1
  O  O236  1  0.13168109  0.49655155  0.24732539  1
  O  O237  1  0.13028802  0.50436811  0.72706586  1
  O  O238  1  0.14826852  0.98936068  0.25137663  1
  O  O239  1  0.13535329  0.98171782  0.74737444  1
  O  O240  1  0.64678136  0.50248420  0.24180402  1
  O  O241  1  0.60467147  0.48043283  0.73503800  1
  O  O242  1  0.63625411  0.99672446  0.25007904  1
  O  O243  1  0.62433924  0.98149705  0.76039252  1
  O  O244  1  0.36961063  0.01567023  0.25098674  1
  O  O245  1  0.36588834  0.00065657  0.75153846  1
  O  O246  1  0.34456746  0.50549588  0.24667891  1
  O  O247  1  0.35200539  0.48800160  0.75402229  1
  O  O248  1  0.85766831  -0.00617483  0.25324177  1
  O  O249  1  0.88488154  -0.02043885  0.76928777  1
  O  O250  1  0.86101763  0.50728192  0.24106224  1
  O  O251  1  0.85626805  0.52537989  0.70555839  1
  O  O252  1  0.13704948  0.37031048  0.35943568  1
  O  O253  1  0.11334143  0.36636261  0.86498096  1
  O  O254  1  0.12227640  0.86039884  0.36980284  1
  O  O255  1  0.13206683  0.87176337  0.86427035  1
  O  O256  1  0.62194074  0.38573726  0.35452474  1
  O  O257  1  0.63863580  0.39291988  0.86120810  1
  O  O258  1  0.61354804  0.88530181  0.36271868  1
  O  O259  1  0.61985671  0.86770397  0.86655670  1
  O  O260  1  0.39860544  0.14081628  0.12204080  1
  O  O261  1  0.38030595  0.12862610  0.64670744  1
  O  O262  1  0.40224266  0.61686052  0.15593531  1
  O  O263  1  0.38578246  0.63329353  0.61869008  1
  O  O264  1  0.88142414  0.10533736  0.14739382  1
  O  O265  1  0.86317970  0.14274926  0.62531017  1
  O  O266  1  0.87531781  0.63869762  0.12808457  1
  O  O267  1  0.89172109  0.64146016  0.59956986  1
  O  O268  1  0.25772892  0.26523163  0.12816047  1
  O  O269  1  0.27260080  0.25878680  0.67808041  1
  O  O270  1  0.28096332  0.73965553  0.14153320  1
  O  O271  1  0.25911166  0.75593085  0.61691559  1
  O  O272  1  0.76430705  0.23382196  0.10921572  1
  O  O273  1  0.74623615  0.26268582  0.61732246  1
  O  O274  1  0.75215087  0.75309257  0.11903416  1
  O  O275  1  0.75713342  0.76727000  0.63173189  1
  O  O276  1  0.21932884  0.23206880  0.32950199  1
  O  O277  1  0.22387727  0.25258549  0.86524381  1
  O  O278  1  0.24418554  0.74339291  0.37713789  1
  O  O279  1  0.24235345  0.71793500  0.85748407  1
  O  O280  1  0.75125952  0.25202080  0.39463177  1
  O  O281  1  0.75545634  0.23168583  0.88560439  1
  O  O282  1  0.78655272  0.74916603  0.41345984  1
  O  O283  1  0.73199498  0.76011479  0.89878425  1
  O  O284  1  0.01508890  0.10557590  0.00356097  1
  O  O285  1  0.02276790  0.13521975  0.50698687  1
  O  O286  1  -0.01129661  0.64563787  0.01030266  1
  O  O287  1  0.00944260  0.62012633  0.50185259  1
  O  O288  1  0.50138787  0.10859015  0.00753320  1
  O  O289  1  0.50490243  0.11896738  0.51453432  1
  O  O290  1  0.49855484  0.61660933  0.01698723  1
  O  O291  1  0.50868142  0.63281264  0.51449977  1
  O  O292  1  0.46465981  0.35915763  0.49207976  1
  O  O293  1  0.49235087  0.38884976  0.99089630  1
  O  O294  1  0.51430301  0.88948732  0.49125758  1
  O  O295  1  0.49628225  0.89345849  1.00985060  1
  O  O296  1  0.98437819  0.38452257  0.50275977  1
  O  O297  1  1.00635006  0.38217826  0.97991038  1
  O  O298  1  1.02303850  0.87778045  0.48313267  1
  O  O299  1  0.99484534  0.87934404  0.99796738  1
  O  O300  1  0.47858440  0.50936628  0.29720827  1
  O  O301  1  0.51377909  0.51607583  0.88665497  1
  O  O302  1  0.49821580  0.99706206  0.38770984  1
  O  O303  1  0.48863065  1.00309733  0.89360817  1
  O  O304  1  1.00082934  0.50807017  0.39304238  1
  O  O305  1  0.99760569  0.49974282  0.87633333  1
  O  O306  1  1.01694123  0.99157083  0.37643969  1
  O  O307  1  0.99244594  0.98745522  0.88943083  1
  O  O308  1  0.01081859  -0.01622620  0.11565235  1
  O  O309  1  0.00711885  -0.02691738  0.63430198  1
  O  O310  1  -0.01746461  0.51681801  0.10322805  1
  O  O311  1  0.00856968  0.51640298  0.61127744  1
  O  O312  1  0.50908783  0.01343027  0.11758435  1
  O  O313  1  0.49897680  0.01290509  0.62011565  1
  O  O314  1  0.51688165  0.51666416  0.13028649  1
  O  O315  1  0.49544639  0.51055042  0.63092022  1
  O  O316  1  0.23763553  0.39224856  0.23138098  1
  O  O317  1  0.22158644  0.39481803  0.75543835  1
  O  O318  1  0.23939711  0.89189234  0.25337959  1
  O  O319  1  0.24702935  0.87757194  0.74402141  1
  O  O320  1  0.74686748  0.38920470  0.25277794  1
  O  O321  1  0.73208293  0.36670450  0.73792267  1
  O  O322  1  0.74011931  0.87911678  0.26372792  1
  O  O323  1  0.74271241  0.86223502  0.76512037  1
  O  O324  1  0.27270968  0.10521040  0.25380933  1
  O  O325  1  0.25506811  0.10693157  0.75232809  1
  O  O326  1  0.23935372  0.61978972  0.25074954  1
  O  O327  1  0.24819275  0.60808760  0.73729727  1
  O  O328  1  0.76047219  0.11813531  0.25399464  1
  O  O329  1  0.74545127  0.12684268  0.76837712  1
  O  O330  1  0.76006676  0.61225113  0.24769922  1
  O  O331  1  0.70704123  0.60939530  0.75079005  1
  O  O332  1  0.31860228  0.09399437  0.46137157  1
  O  O333  1  0.36920337  0.13238422  0.86458496  1
  O  O334  1  0.37296147  0.63146835  0.35278721  1
  O  O335  1  0.38931232  0.63270539  0.85722904  1
  O  O336  1  0.89003375  0.11545369  0.34905633  1
  O  O337  1  0.88874829  0.10634732  0.87073377  1
  O  O338  1  0.88193376  0.62940712  0.35401480  1
  O  O339  1  0.85236529  0.67243654  0.84506431  1
  O  O340  1  0.13897601  0.38588248  0.11976970  1
  O  O341  1  0.11428927  0.38601383  0.62947385  1
  O  O342  1  0.13786174  0.82880561  0.11257812  1
  O  O343  1  0.13622347  0.88143311  0.63334398  1
  O  O344  1  0.61732797  0.39317994  0.14633311  1
  O  O345  1  0.61499522  0.37558529  0.62652982  1
  O  O346  1  0.61511613  0.89336998  0.14815416  1
  O  O347  1  0.63928364  0.86764130  0.64256188  1
  O  O348  1  0.11594768  0.27384918  0.22350718  1
  O  O349  1  0.11837808  0.26386094  0.74675418  1
  O  O350  1  0.12849341  0.74419143  0.26092431  1
  O  O351  1  0.12355432  0.75850804  0.74222018  1
  O  O352  1  0.65758447  0.26087013  0.25486326  1
  O  O353  1  0.61339099  0.26258709  0.74718291  1
  O  O354  1  0.61918870  0.76952382  0.24714388  1
  O  O355  1  0.61689170  0.76174820  0.76640425  1
  O  O356  1  0.37532097  0.24758924  0.25156954  1
  O  O357  1  0.39773747  0.24127243  0.75480642  1
  O  O358  1  0.39564835  0.76000650  0.24638050  1
  O  O359  1  0.38991526  0.75645218  0.73779433  1
  O  O360  1  0.88427189  0.23883222  0.24985172  1
  O  O361  1  0.86810467  0.25927978  0.73321675  1
  O  O362  1  0.85956972  0.74139280  0.23843150  1
  O  O363  1  0.90349830  0.78052716  0.73608921  1
  O  O364  1  0.38645581  0.50606146  0.47779094  1
  O  O365  1  0.39354406  0.49454151  0.99885135  1
  O  O366  1  0.39312629  0.99240984  0.50990162  1
  O  O367  1  0.37318744  1.00074084  1.00991101  1
  O  O368  1  0.88162660  0.48896987  0.50631819  1
  O  O369  1  0.84723834  0.52162546  0.95756371  1
  O  O370  1  0.87255033  1.01735034  0.50030270  1
  O  O371  1  0.88761402  0.98857300  1.00291228  1
  O  O372  1  0.12017716  0.00278105  0.00100400  1
  O  O373  1  0.12639207  0.01491462  0.53054058  1
  O  O374  1  0.13286878  0.50687046  0.00208691  1
  O  O375  1  0.11739846  0.50037873  0.50306359  1
  O  O376  1  0.63052417  -0.00913437  0.01595298  1
  O  O377  1  0.61736720  0.02122570  0.50226384  1
  O  O378  1  0.61306088  0.49049122  0.01531924  1
  O  O379  1  0.60532809  0.48330822  0.50845523  1
  O  O380  1  0.36640967  0.38291527  0.14304886  1
  O  O381  1  0.38841586  0.35922840  0.63648078  1
  O  O382  1  0.37569702  0.86975928  0.13249540  1
  O  O383  1  0.36465061  0.86747274  0.62567823  1
  O  O384  1  0.91229529  0.34233777  0.12101167  1
  O  O385  1  0.85472186  0.37510202  0.62331145  1
  O  O386  1  0.87636055  0.86459587  0.11627647  1
  O  O387  1  0.87170849  0.86537954  0.59607927  1
  O  O388  1  0.14374881  0.11058735  0.39944646  1
  O  O389  1  0.12126842  0.13490469  0.86952529  1
  O  O390  1  0.12996539  0.63266637  0.37850811  1
  O  O391  1  0.11197644  0.56444658  0.96249566  1
  O  O392  1  0.61588047  0.13038946  0.38742406  1
  O  O393  1  0.63692933  0.11500175  0.88283175  1
  O  O394  1  0.62433933  0.61290882  0.40242662  1
  O  O395  1  0.60940773  0.65590181  0.88175538  1
