# generated using pymatgen
data_V35Zn35O128
_symmetry_space_group_name_H-M   'P 1'
_cell_length_a   17.03835009
_cell_length_b   16.91873113
_cell_length_c   16.85887643
_cell_angle_alpha   90.15716944
_cell_angle_beta   90.16991475
_cell_angle_gamma   90.02957504
_symmetry_Int_Tables_number   1
_chemical_formula_structural   V35Zn35O128
_chemical_formula_sum   'V70 Zn70 O256'
_cell_volume   4859.82185999
_cell_formula_units_Z   2
loop_
 _symmetry_equiv_pos_site_id
 _symmetry_equiv_pos_as_xyz
  1  'x, y, z'
loop_
 _atom_site_type_symbol
 _atom_site_label
 _atom_site_symmetry_multiplicity
 _atom_site_fract_x
 _atom_site_fract_y
 _atom_site_fract_z
 _atom_site_occupancy
  V  V0  1  0.63227603  0.37590775  0.75027520  1
  V  V1  1  0.24161247  0.50015239  0.22073889  1
  V  V2  1  0.37582492  0.63361541  0.25003464  1
  V  V3  1  0.09401803  0.31806272  0.25497146  1
  V  V4  1  0.00405162  0.61620989  0.62936665  1
  V  V5  1  0.17060376  0.80464559  0.32181885  1
  V  V6  1  0.87338594  0.87953715  -0.00208374  1
  V  V7  1  0.87014459  0.74467031  0.63240698  1
  V  V8  1  0.33956078  0.75821808  0.12369760  1
  V  V9  1  0.26648762  0.86483218  0.61451487  1
  V  V10  1  0.62157268  0.62112283  0.49017879  1
  V  V11  1  0.74316315  0.87317657  0.12650677  1
  V  V12  1  0.13550941  0.74950543  0.88789992  1
  V  V13  1  0.61891971  0.77580878  0.37814498  1
  V  V14  1  0.50886472  0.11781853  0.60893610  1
  V  V15  1  0.26835688  -0.00126918  0.75394745  1
  V  V16  1  0.50263267  -0.00370674  -0.01370310  1
  V  V17  1  0.62789653  0.50435996  0.62403331  1
  V  V18  1  0.50144683  -0.01376784  0.48806187  1
  V  V19  1  0.75022783  0.11406335  0.38158383  1
  V  V20  1  0.50078439  0.62450407  0.63872194  1
  V  V21  1  0.00609920  -0.00419428  0.50876388  1
  V  V22  1  0.88246196  0.75487655  0.12290049  1
  V  V23  1  0.36578713  0.87481986  -0.02190400  1
  V  V24  1  -0.00356913  0.88346653  0.37120283  1
  V  V25  1  0.12537521  0.13551815  0.50349209  1
  V  V26  1  0.40205402  0.40867227  0.50300753  1
  V  V27  1  0.00457079  0.74936811  0.74991262  1
  V  V28  1  0.93005584  0.32916170  0.43564064  1
  V  V29  1  0.51631195  0.10374356  0.12842781  1
  V  V30  1  0.24214017  0.61162512  0.37464016  1
  V  V31  1  0.34976176  0.36224988  0.02537586  1
  V  V32  1  0.87555681  0.25247501  0.65066974  1
  V  V33  1  0.74345990  -0.00540958  0.24370913  1
  V  V34  1  0.75789649  0.63402417  0.89621417  1
  V  V35  1  0.50693671  0.24688391  0.74332402  1
  V  V36  1  0.37721291  0.12513039  0.75659111  1
  V  V37  1  0.76197947  0.51292282  0.75225460  1
  V  V38  1  0.73900702  0.22844097  0.00534509  1
  V  V39  1  0.76519528  0.39094595  0.11854902  1
  V  V40  1  0.86967562  0.88132746  0.50457144  1
  V  V41  1  0.48648071  0.38044992  0.86493044  1
  V  V42  1  0.00732934  0.49882811  0.48871438  1
  V  V43  1  0.35775365  -0.00444967  0.37221820  1
  V  V44  1  0.86767422  0.61879409  0.25345954  1
  V  V45  1  0.00978770  0.35935685  0.87801914  1
  V  V46  1  0.75874162  0.73846759  0.48855227  1
  V  V47  1  0.75747668  0.37614529  0.62297533  1
  V  V48  1  0.13309339  0.40331713  0.74593550  1
  V  V49  1  0.12458302  0.63813756  0.48966703  1
  V  V50  1  0.12453273  0.88912143  0.74095379  1
  V  V51  1  -0.00152206  0.88269758  0.87608100  1
  V  V52  1  0.64829760  0.87321137  0.73563811  1
  V  V53  1  0.62058210  0.74682917  0.88478845  1
  V  V54  1  0.14293724  -0.00202935  0.14159037  1
  V  V55  1  0.00149719  0.00814422  0.01054623  1
  V  V56  1  0.00701352  0.60828633  0.11529737  1
  V  V57  1  0.00122294  0.74748524  0.25699951  1
  V  V58  1  0.49599785  0.75604485  0.74974635  1
  V  V59  1  0.87330410  0.13255543  0.24370890  1
  V  V60  1  -0.00506646  0.12172091  0.63869645  1
  V  V61  1  0.61849992  0.25381694  0.37137876  1
  V  V62  1  0.35940910  0.61145776  0.75938873  1
  V  V63  1  0.37055156  0.24981585  0.60682315  1
  V  V64  1  0.49716689  0.24952372  0.23742895  1
  V  V65  1  0.14609678  0.13080969  -0.00853432  1
  V  V66  1  0.86164916  0.50533256  0.37824815  1
  V  V67  1  0.85850487  0.10126896  0.76541484  1
  V  V68  1  0.74727649  0.25330981  0.49305830  1
  V  V69  1  0.88540898  0.49732427  0.88832230  1
  Zn  Zn70  1  0.35385182  0.13277504  0.24061924  1
  Zn  Zn71  1  0.61951524  0.38276963  0.24358553  1
  Zn  Zn72  1  0.49834459  0.49172051  -0.00602944  1
  Zn  Zn73  1  0.58503037  0.61721100  0.04341667  1
  Zn  Zn74  1  0.00562092  0.14424514  0.14485822  1
  Zn  Zn75  1  0.62470783  0.25511982  0.87916652  1
  Zn  Zn76  1  0.16870269  0.20620964  0.14711447  1
  Zn  Zn77  1  0.20613620  0.16396495  0.65311555  1
  Zn  Zn78  1  0.18453948  0.67963452  0.18147928  1
  Zn  Zn79  1  0.18413697  0.68514620  0.68339956  1
  Zn  Zn80  1  0.68804420  0.18713504  0.18606042  1
  Zn  Zn81  1  0.68921144  0.18427344  0.68486369  1
  Zn  Zn82  1  0.69672412  0.69851008  0.18149755  1
  Zn  Zn83  1  0.68458584  0.69176112  0.69210061  1
  Zn  Zn84  1  0.30471405  0.30385739  0.20602814  1
  Zn  Zn85  1  0.31272385  0.31849266  0.78437670  1
  Zn  Zn86  1  0.34626931  0.85669178  0.27117331  1
  Zn  Zn87  1  0.30956138  0.80157320  0.80197477  1
  Zn  Zn88  1  0.79875696  0.31608365  0.29518337  1
  Zn  Zn89  1  0.83610819  0.28664264  0.86552176  1
  Zn  Zn90  1  0.81708812  0.81480779  0.31289489  1
  Zn  Zn91  1  0.81405017  0.81019732  0.81619954  1
  Zn  Zn92  1  0.24695515  0.39245346  0.36866495  1
  Zn  Zn93  1  0.16315466  0.40919214  0.95376386  1
  Zn  Zn94  1  0.18376248  0.94265151  0.44400602  1
  Zn  Zn95  1  0.18508582  0.93865310  0.93577421  1
  Zn  Zn96  1  0.68347230  0.43463217  0.43637385  1
  Zn  Zn97  1  0.67998878  0.44972433  0.94926276  1
  Zn  Zn98  1  0.69341733  0.94700134  0.47579144  1
  Zn  Zn99  1  0.68266497  0.93224119  0.94091010  1
  Zn  Zn100  1  0.31745405  0.06855040  0.05625995  1
  Zn  Zn101  1  0.31647715  0.05007013  0.56447725  1
  Zn  Zn102  1  0.35504163  0.56291695  0.05644096  1
  Zn  Zn103  1  0.40174426  0.61908876  0.47551639  1
  Zn  Zn104  1  0.81283480  0.05772129  0.06450154  1
  Zn  Zn105  1  0.80086935  0.06866792  0.58139248  1
  Zn  Zn106  1  0.82007908  0.56408260  0.06820291  1
  Zn  Zn107  1  0.81714835  0.56416436  0.56220068  1
  Zn  Zn108  1  0.43229983  0.43543190  0.19620822  1
  Zn  Zn109  1  0.43662398  0.43978877  0.68521793  1
  Zn  Zn110  1  0.39913312  0.97250069  0.15251039  1
  Zn  Zn111  1  0.44025630  0.93407686  0.67818345  1
  Zn  Zn112  1  0.94004083  0.42889425  0.18912643  1
  Zn  Zn113  1  0.94511309  0.43569923  0.69664973  1
  Zn  Zn114  1  0.93057012  0.94995277  0.19304797  1
  Zn  Zn115  1  0.92906223  0.93309927  0.68851363  1
  Zn  Zn116  1  0.08321691  0.10667068  0.29950211  1
  Zn  Zn117  1  0.05835575  0.06764318  0.81877768  1
  Zn  Zn118  1  0.06321299  0.55169135  0.30286451  1
  Zn  Zn119  1  0.06867296  0.56539674  0.82124907  1
  Zn  Zn120  1  0.56451216  0.06293353  0.31775324  1
  Zn  Zn121  1  0.55202820  0.04477206  0.79818078  1
  Zn  Zn122  1  0.58359978  0.63400092  0.26433296  1
  Zn  Zn123  1  0.57406015  0.55957799  0.83321772  1
  Zn  Zn124  1  0.43054748  0.17360606  0.42318695  1
  Zn  Zn125  1  0.44315770  0.18771736  0.94487597  1
  Zn  Zn126  1  0.42179446  0.81037130  0.44759989  1
  Zn  Zn127  1  0.42942973  0.68597247  0.94203337  1
  Zn  Zn128  1  0.93347125  0.16478601  0.43556024  1
  Zn  Zn129  1  0.94169949  0.21590837  0.99714378  1
  Zn  Zn130  1  0.94122049  0.68704662  0.43636151  1
  Zn  Zn131  1  0.94130396  0.68950639  0.93572727  1
  Zn  Zn132  1  0.06790453  0.31837914  0.06684320  1
  Zn  Zn133  1  0.06071517  0.31110242  0.57343037  1
  Zn  Zn134  1  0.06745726  0.82017047  0.07042813  1
  Zn  Zn135  1  0.06105472  0.81031079  0.56488892  1
  Zn  Zn136  1  0.56031208  0.30683937  0.05613080  1
  Zn  Zn137  1  0.56160571  0.31509360  0.55739082  1
  Zn  Zn138  1  0.55953072  0.82230151  0.04821948  1
  Zn  Zn139  1  0.56625773  0.80907147  0.56405593  1
  O  O140  1  0.11558638  0.10804379  0.10620464  1
  O  O141  1  0.09658727  0.13304644  0.63024658  1
  O  O142  1  0.10490280  0.62567295  0.12573609  1
  O  O143  1  0.10968617  0.62813444  0.60960172  1
  O  O144  1  0.61459472  0.11991800  0.12574894  1
  O  O145  1  0.60667928  0.12890790  0.62758085  1
  O  O146  1  0.61363799  0.63248951  0.15137074  1
  O  O147  1  0.62971355  0.61702570  0.62130666  1
  O  O148  1  0.33545693  0.37315165  0.43511607  1
  O  O149  1  0.38799374  0.36272350  0.85827694  1
  O  O150  1  0.37173721  0.88493065  0.38194230  1
  O  O151  1  0.37339401  0.86463451  0.87862285  1
  O  O152  1  0.87208899  0.38617520  0.36795413  1
  O  O153  1  0.89659794  0.38798440  0.87477170  1
  O  O154  1  0.88822515  0.86661227  0.39347076  1
  O  O155  1  0.88116175  0.86935205  0.89130985  1
  O  O156  1  0.25869928  0.00324129  0.38687055  1
  O  O157  1  0.24700661  -0.00603253  0.85203123  1
  O  O158  1  0.24100816  0.51176611  0.37280825  1
  O  O159  1  0.26528738  0.57282565  0.96535389  1
  O  O160  1  0.74538191  0.01322829  0.38257959  1
  O  O161  1  0.71158459  0.03675531  0.87543509  1
  O  O162  1  0.76354213  0.49885083  0.37911327  1
  O  O163  1  0.75757959  0.51076164  0.86508396  1
  O  O164  1  0.25284328  0.50914066  0.12284434  1
  O  O165  1  0.24879384  0.50363535  0.61974322  1
  O  O166  1  0.24122820  1.00627419  0.12529552  1
  O  O167  1  0.25874814  0.98174338  0.64248310  1
  O  O168  1  0.75331932  0.49223750  0.12351645  1
  O  O169  1  0.75236257  0.49585775  0.63228339  1
  O  O170  1  0.74645900  0.98668890  0.13460321  1
  O  O171  1  0.73199486  0.98677474  0.57689136  1
  O  O172  1  0.00441761  0.36498714  0.25485902  1
  O  O173  1  0.01305088  0.38222320  0.76885273  1
  O  O174  1  -0.01160999  0.87409452  0.26719430  1
  O  O175  1  0.00689255  0.87236202  0.75480640  1
  O  O176  1  0.50423030  0.35590499  0.24646332  1
  O  O177  1  0.50983470  0.36471086  0.74698784  1
  O  O178  1  0.51020994  0.82101418  0.21459865  1
  O  O179  1  0.49962416  0.85701212  0.74337541  1
  O  O180  1  0.50853937  0.13047901  0.23979383  1
  O  O181  1  0.49269211  0.12709230  0.73965729  1
  O  O182  1  0.47140951  0.64277035  0.26727336  1
  O  O183  1  0.51414395  0.62895472  0.74544715  1
  O  O184  1  0.97521841  0.11072326  0.25598586  1
  O  O185  1  0.98255661  0.11446717  0.74210479  1
  O  O186  1  0.99373913  0.63323381  0.24337333  1
  O  O187  1  1.00742820  0.63279348  0.73480884  1
  O  O188  1  0.38600474  0.27199704  -0.00607810  1
  O  O189  1  0.37815515  0.23516280  0.50806518  1
  O  O190  1  0.38033475  0.76713263  0.01743220  1
  O  O191  1  0.38484485  0.72409267  0.50322012  1
  O  O192  1  0.84074305  0.25802631  -0.01787973  1
  O  O193  1  0.86943870  0.26483804  0.49190097  1
  O  O194  1  0.88631542  0.76662052  0.01258756  1
  O  O195  1  0.86933080  0.74733366  0.50768086  1
  O  O196  1  0.11478361  0.23564299  0.50881567  1
  O  O197  1  0.14313683  0.22957072  1.02281156  1
  O  O198  1  0.11077268  0.73700442  0.49361394  1
  O  O199  1  0.11925097  0.76551923  0.98682767  1
  O  O200  1  0.63877109  0.25723865  0.48965975  1
  O  O201  1  0.62822211  0.24046687  0.99471635  1
  O  O202  1  0.64183787  0.74229396  0.49375891  1
  O  O203  1  0.60705424  0.73399301  0.98835553  1
  O  O204  1  0.50285925  0.23733552  0.13343136  1
  O  O205  1  0.49641222  0.24265195  0.62802895  1
  O  O206  1  0.50687623  0.77576676  0.15581796  1
  O  O207  1  0.51624675  0.73490013  0.64083868  1
  O  O208  1  0.98878957  0.24419729  0.09601580  1
  O  O209  1  0.97871142  0.23819392  0.62494845  1
  O  O210  1  0.99340345  0.75691465  0.14011117  1
  O  O211  1  0.99360617  0.74007425  0.63148148  1
  O  O212  1  -0.01435586  0.26191956  0.38876571  1
  O  O213  1  -0.01015380  0.26287325  0.88977846  1
  O  O214  1  -0.00294461  0.75957765  0.36511268  1
  O  O215  1  -0.00229680  0.76274024  0.86464130  1
  O  O216  1  0.51823830  0.23683430  0.37306900  1
  O  O217  1  0.50971867  0.25049658  0.85582535  1
  O  O218  1  0.52061914  0.77275019  0.38655283  1
  O  O219  1  0.51523658  0.73739952  0.86236868  1
  O  O220  1  0.22156799  0.11642864  0.53902964  1
  O  O221  1  0.24430868  0.11244794  0.98472229  1
  O  O222  1  0.22880416  0.62531806  0.48461673  1
  O  O223  1  0.19426440  0.58048834  0.99466234  1
  O  O224  1  0.76256988  0.14164952  0.48944725  1
  O  O225  1  0.74492090  0.12819928  1.01091634  1
  O  O226  1  0.74272586  0.63421517  0.50396857  1
  O  O227  1  0.74909271  0.62461984  0.99543140  1
  O  O228  1  0.25136603  0.36461434  0.00454067  1
  O  O229  1  0.23746094  0.45201128  0.57049306  1
  O  O230  1  0.26670300  0.88369130  -0.00664033  1
  O  O231  1  0.24233460  0.87956469  0.51707851  1
  O  O232  1  0.72727494  0.37599638  0.01861072  1
  O  O233  1  0.74893683  0.37129184  0.51496543  1
  O  O234  1  0.76563662  0.88629590  0.01116079  1
  O  O235  1  0.76833246  0.85516227  0.50104783  1
  O  O236  1  0.14140503  0.49630473  0.24001319  1
  O  O237  1  0.12781084  0.50447800  0.74860395  1
  O  O238  1  0.12622583  1.01935109  0.24003037  1
  O  O239  1  0.12557526  0.99109367  0.75329632  1
  O  O240  1  0.57665330  0.50592268  0.28679092  1
  O  O241  1  0.64354399  0.49576946  0.74262129  1
  O  O242  1  0.64561714  1.00036627  0.26248172  1
  O  O243  1  0.61539143  0.96800257  0.75246549  1
  O  O244  1  0.36780767  -0.02297277  0.26571758  1
  O  O245  1  0.37623996  0.00909094  0.75141506  1
  O  O246  1  0.36936856  0.52695812  0.23066991  1
  O  O247  1  0.37069611  0.51129653  0.74142005  1
  O  O248  1  0.85285832  0.00770697  0.25478469  1
  O  O249  1  0.87098471  0.00012449  0.75526354  1
  O  O250  1  0.88271245  0.51185827  0.26234119  1
  O  O251  1  0.86341006  0.49508896  0.75796366  1
  O  O252  1  0.14814413  0.34556966  0.33736262  1
  O  O253  1  0.12064930  0.36887034  0.85407816  1
  O  O254  1  0.10839701  0.87088037  0.38427597  1
  O  O255  1  0.11485844  0.86909936  0.86329017  1
  O  O256  1  0.63198650  0.36024227  0.36716464  1
  O  O257  1  0.62377896  0.38123337  0.85474932  1
  O  O258  1  0.64855802  0.87015076  0.39261368  1
  O  O259  1  0.63950957  0.84984047  0.87451786  1
  O  O260  1  0.39104439  0.09430417  0.13978487  1
  O  O261  1  0.38618920  0.13482621  0.63010604  1
  O  O262  1  0.36460503  0.64939881  0.13442133  1
  O  O263  1  0.40218911  0.62170053  0.64036739  1
  O  O264  1  0.87308326  0.11895669  0.13960266  1
  O  O265  1  0.87900836  0.13631258  0.62861017  1
  O  O266  1  0.88503750  0.63449201  0.13666148  1
  O  O267  1  0.89052833  0.63710641  0.61891405  1
  O  O268  1  0.26658984  0.19988363  0.19833448  1
  O  O269  1  0.27310970  0.25344016  0.62925397  1
  O  O270  1  0.24143162  0.75270394  0.11386241  1
  O  O271  1  0.24004020  0.76837045  0.63271931  1
  O  O272  1  0.73896552  0.25709257  0.10985737  1
  O  O273  1  0.76472461  0.25468882  0.61616778  1
  O  O274  1  0.77100210  0.76515691  0.13039269  1
  O  O275  1  0.76840585  0.73999148  0.62245839  1
  O  O276  1  0.25541528  0.23052561  0.39701042  1
  O  O277  1  0.22146050  0.23306863  0.82581187  1
  O  O278  1  0.22693341  0.73528881  0.36566948  1
  O  O279  1  0.23378616  0.75471714  0.87146961  1
  O  O280  1  0.74394825  0.25100778  0.38022907  1
  O  O281  1  0.73422439  0.24534688  0.88726419  1
  O  O282  1  0.75769662  0.74567228  0.38764585  1
  O  O283  1  0.75202268  0.73815304  0.88125183  1
  O  O284  1  -0.01388257  0.10574980  -0.00642639  1
  O  O285  1  0.00064582  0.11138733  0.51029487  1
  O  O286  1  -0.01139806  0.62891509  0.01765369  1
  O  O287  1  0.00457423  0.61679991  0.50414216  1
  O  O288  1  0.48896362  0.10836487  0.01627273  1
  O  O289  1  0.49851730  0.12499391  0.50762918  1
  O  O290  1  0.46741263  0.60615280  0.01516482  1
  O  O291  1  0.52136229  0.62798602  0.52016670  1
  O  O292  1  0.49747967  0.37823974  0.48696389  1
  O  O293  1  0.51325843  0.37006815  0.96581730  1
  O  O294  1  0.49698927  0.88279640  0.50991279  1
  O  O295  1  0.48516330  0.88528368  0.99690141  1
  O  O296  1  0.99311277  0.38487794  0.50246289  1
  O  O297  1  1.04426440  0.38813798  0.97799242  1
  O  O298  1  0.99341502  0.88164310  0.50008267  1
  O  O299  1  0.99164503  0.88555838  0.99588412  1
  O  O300  1  0.52458960  0.49315542  0.33951751  1
  O  O301  1  0.49337619  0.48132441  0.85236314  1
  O  O302  1  0.49394939  0.99948899  0.38342515  1
  O  O303  1  0.49109737  1.01285570  0.88748989  1
  O  O304  1  0.99232526  0.50017347  0.38445621  1
  O  O305  1  0.98364576  0.51349261  0.87499957  1
  O  O306  1  0.99670615  0.98546265  0.39448214  1
  O  O307  1  1.00238392  0.98679406  0.88400096  1
  O  O308  1  0.00073119  0.00270734  0.11548477  1
  O  O309  1  -0.01358816  0.01094187  0.61810545  1
  O  O310  1  -0.00667418  0.50971238  0.12828479  1
  O  O311  1  -0.01390923  0.51300577  0.61533314  1
  O  O312  1  0.51202610  0.00021954  0.12684732  1
  O  O313  1  0.48982858  0.01279237  0.61197908  1
  O  O314  1  0.52412744  0.46092451  0.11816040  1
  O  O315  1  0.52075203  0.50942427  0.63607609  1
  O  O316  1  0.27789493  0.40436495  0.25430834  1
  O  O317  1  0.23279991  0.38283092  0.74796188  1
  O  O318  1  0.22917503  0.86507905  0.27190726  1
  O  O319  1  0.23855430  0.88123109  0.74389571  1
  O  O320  1  0.73077406  0.37196667  0.22246822  1
  O  O321  1  0.74390485  0.38268109  0.73479222  1
  O  O322  1  0.75747611  0.88229183  0.23941463  1
  O  O323  1  0.74759105  0.87352657  0.75218576  1
  O  O324  1  0.24123930  0.18307423  0.34375858  1
  O  O325  1  0.26831692  0.10892567  0.73660002  1
  O  O326  1  0.24539834  0.61296324  0.25535850  1
  O  O327  1  0.26262240  0.63085811  0.74338076  1
  O  O328  1  0.75374174  0.11400462  0.25749280  1
  O  O329  1  0.76213412  0.11590651  0.73125648  1
  O  O330  1  0.77084138  0.62843622  0.24477270  1
  O  O331  1  0.75585599  0.61314990  0.74537950  1
  O  O332  1  0.37606867  0.10478941  0.35196625  1
  O  O333  1  0.37982228  0.13944631  0.85480035  1
  O  O334  1  0.34764477  0.62887251  0.36415539  1
  O  O335  1  0.37685985  0.62630057  0.85870213  1
  O  O336  1  0.85645858  0.12625243  0.36486039  1
  O  O337  1  0.86344558  0.12250656  0.86054708  1
  O  O338  1  0.87858393  0.61780587  0.36460072  1
  O  O339  1  0.86287680  0.61919728  0.87968725  1
  O  O340  1  0.13924307  0.33429814  0.16112471  1
  O  O341  1  0.10870469  0.37291690  0.65008771  1
  O  O342  1  0.12044182  0.89850639  0.13038647  1
  O  O343  1  0.11781234  0.87651621  0.63992042  1
  O  O344  1  0.58572203  0.40494109  0.12264494  1
  O  O345  1  0.63394095  0.38487194  0.62833013  1
  O  O346  1  0.64699171  0.85702571  0.11558865  1
  O  O347  1  0.63864951  0.85835677  0.63574731  1
  O  O348  1  0.09397909  0.21262136  0.24929411  1
  O  O349  1  0.16697362  0.22344791  0.77604308  1
  O  O350  1  0.11431881  0.75120752  0.24842912  1
  O  O351  1  0.11305695  0.76172726  0.75415710  1
  O  O352  1  0.61800528  0.24920773  0.25963095  1
  O  O353  1  0.62083452  0.25924864  0.74172579  1
  O  O354  1  0.63895818  0.74110460  0.28007994  1
  O  O355  1  0.62086801  0.76007763  0.75900408  1
  O  O356  1  0.39960465  0.24652162  0.26410314  1
  O  O357  1  0.38767836  0.24132951  0.73616739  1
  O  O358  1  0.35074354  0.74278689  0.23789868  1
  O  O359  1  0.39413834  0.73659544  0.75225648  1
  O  O360  1  0.86275899  0.23302318  0.25042828  1
  O  O361  1  0.86951049  0.24185381  0.74970260  1
  O  O362  1  0.88399647  0.74158883  0.24682480  1
  O  O363  1  0.88693599  0.75701336  0.73848230  1
  O  O364  1  0.39647675  0.50937316  0.50222931  1
  O  O365  1  0.38609503  0.46022248  1.00657438  1
  O  O366  1  0.38654172  1.01002979  0.48477273  1
  O  O367  1  0.38511146  0.98070231  1.01265952  1
  O  O368  1  0.88253127  0.50813394  0.48405878  1
  O  O369  1  0.87003130  0.49912492  0.98642706  1
  O  O370  1  0.88022494  0.98279093  0.50858012  1
  O  O371  1  0.88564711  0.98623627  1.00673596  1
  O  O372  1  0.11190843  0.00504389  0.00127137  1
  O  O373  1  0.10638906  0.00075518  0.51275391  1
  O  O374  1  0.14088733  0.52630881  -0.02800069  1
  O  O375  1  0.10428252  0.50819129  0.49853229  1
  O  O376  1  0.60274711  -0.01390834  -0.00233174  1
  O  O377  1  0.59845761  0.00663014  0.49381631  1
  O  O378  1  0.60331242  0.53111252  -0.03686555  1
  O  O379  1  0.63810549  0.51291186  0.50909523  1
  O  O380  1  0.36743154  0.36094010  0.12875211  1
  O  O381  1  0.38766062  0.36590530  0.60641046  1
  O  O382  1  0.36597600  0.85885109  0.14450634  1
  O  O383  1  0.36691362  0.86591609  0.62490398  1
  O  O384  1  0.86392271  0.37712754  0.12330287  1
  O  O385  1  0.87165919  0.36041754  0.63793895  1
  O  O386  1  0.87307859  0.87191637  0.11871022  1
  O  O387  1  0.88639762  0.85535109  0.61209479  1
  O  O388  1  0.12196431  0.11429568  0.40511473  1
  O  O389  1  0.11282096  0.12887041  0.89516715  1
  O  O390  1  0.12258778  0.61898627  0.38187565  1
  O  O391  1  0.11296520  0.65216339  0.87348342  1
  O  O392  1  0.64460685  0.14014824  0.37181684  1
  O  O393  1  0.65645061  0.08658519  0.86607294  1
  O  O394  1  0.61556514  0.62712692  0.39078890  1
  O  O395  1  0.64987740  0.64136062  0.86047393  1
