# generated using pymatgen
data_V35Zn35O128
_symmetry_space_group_name_H-M   'P 1'
_cell_length_a   16.82231587
_cell_length_b   16.84724820
_cell_length_c   16.88153786
_cell_angle_alpha   89.92454885
_cell_angle_beta   90.11451745
_cell_angle_gamma   90.12261422
_symmetry_Int_Tables_number   1
_chemical_formula_structural   V35Zn35O128
_chemical_formula_sum   'V70 Zn70 O256'
_cell_volume   4784.36746725
_cell_formula_units_Z   2
loop_
 _symmetry_equiv_pos_site_id
 _symmetry_equiv_pos_as_xyz
  1  'x, y, z'
loop_
 _atom_site_type_symbol
 _atom_site_label
 _atom_site_symmetry_multiplicity
 _atom_site_fract_x
 _atom_site_fract_y
 _atom_site_fract_z
 _atom_site_occupancy
  V  V0  1  0.37037341  0.76096326  0.10635377  1
  V  V1  1  0.13251006  -0.01307989  0.12910721  1
  V  V2  1  0.87161805  0.49996477  0.87693338  1
  V  V3  1  0.50351423  0.12145367  0.61977311  1
  V  V4  1  0.37165471  0.11698070  0.75973631  1
  V  V5  1  0.73705527  0.88604221  0.14183280  1
  V  V6  1  0.13133382  0.24226991  0.87405025  1
  V  V7  1  0.37791682  0.23594775  0.13835927  1
  V  V8  1  0.37299552  0.39063279  0.50642649  1
  V  V9  1  0.71413729  0.38951221  0.13562991  1
  V  V10  1  0.48314686  0.75926736  0.25399064  1
  V  V11  1  0.75564054  0.62244685  0.37071081  1
  V  V12  1  0.48938549  0.62278199  0.63466713  1
  V  V13  1  0.88387938  0.62024416  0.73151304  1
  V  V14  1  0.13658808  -0.00206018  0.61830645  1
  V  V15  1  0.87446887  0.25351644  0.61050543  1
  V  V16  1  -0.00961814  -0.01271686  -0.00448093  1
  V  V17  1  0.50009859  0.00732221  0.00800023  1
  V  V18  1  0.50616381  0.62511759  0.10969883  1
  V  V19  1  0.52095278  0.12507003  0.13284790  1
  V  V20  1  -0.02205447  -0.01055460  0.50678178  1
  V  V21  1  0.37020655  0.51058600  0.86413485  1
  V  V22  1  0.36228279  0.24917352  0.61879423  1
  V  V23  1  0.24506373  -0.00149031  0.27657096  1
  V  V24  1  0.12152105  0.12476689  0.00771991  1
  V  V25  1  0.25519986  -0.00851312  0.76511454  1
  V  V26  1  0.63620225  -0.01232174  0.63039938  1
  V  V27  1  0.37791714  0.49914001  0.34740770  1
  V  V28  1  0.11783173  0.52604604  0.59312987  1
  V  V29  1  0.13331941  0.35573504  0.26790969  1
  V  V30  1  0.37650387  0.87497607  0.49232095  1
  V  V31  1  0.50369929  0.76172727  0.75111786  1
  V  V32  1  0.22739626  0.66246309  0.36466530  1
  V  V33  1  0.26104273  0.23890426  -0.00464997  1
  V  V34  1  0.88217174  0.76395349  0.62616531  1
  V  V35  1  0.63974485  0.74645735  0.87758582  1
  V  V36  1  -0.00294237  0.37309975  0.87184691  1
  V  V37  1  0.23002589  0.76072749  -0.00253655  1
  V  V38  1  0.61750024  0.49470321  0.61777736  1
  V  V39  1  -0.00643165  0.71277590  0.25496543  1
  V  V40  1  0.50628672  0.38226200  0.87383718  1
  V  V41  1  0.75403598  0.37469850  0.60767319  1
  V  V42  1  0.63903178  0.25702380  0.37574482  1
  V  V43  1  0.22232361  0.63361574  0.87526539  1
  V  V44  1  0.64861464  0.13815515  0.50771963  1
  V  V45  1  0.61242282  0.76592583  0.37201621  1
  V  V46  1  0.63301718  0.23710765  0.88520323  1
  V  V47  1  0.49215194  0.88317759  0.88453256  1
  V  V48  1  0.37566045  0.38489574  -0.00084590  1
  V  V49  1  0.74175250  0.76573098  0.51254049  1
  V  V50  1  0.00220777  0.24716262  0.75005125  1
  V  V51  1  0.87203524  0.14257864  0.27953488  1
  V  V52  1  -0.01261430  0.89854739  0.35710289  1
  V  V53  1  0.11136900  0.87084543  0.75947027  1
  V  V54  1  0.85760688  0.26405238  0.08927766  1
  V  V55  1  0.75212512  -0.02251863  0.76721676  1
  V  V56  1  0.50933798  0.24992099  0.74932913  1
  V  V57  1  0.18320642  0.18352993  0.43606986  1
  V  V58  1  0.61114442  0.62530300  0.49742742  1
  V  V59  1  0.14350399  0.49856174  0.13969355  1
  V  V60  1  0.02852576  0.49799892  -0.01105378  1
  V  V61  1  0.14123480  0.37945489  0.74089989  1
  V  V62  1  0.36030179  0.75576996  0.62945371  1
  V  V63  1  0.50218562  0.36753442  0.36516805  1
  V  V64  1  0.40846512  0.01213276  0.37507838  1
  V  V65  1  0.00156494  0.12219912  0.62183329  1
  V  V66  1  -0.01232851  0.60612644  0.11716842  1
  V  V67  1  0.74230726  0.49691929  0.75050236  1
  V  V68  1  0.85973244  0.85293362  0.00464288  1
  V  V69  1  0.86468777  0.12424365  0.76566243  1
  Zn  Zn70  1  0.04448912  0.80982928  0.91573140  1
  Zn  Zn71  1  0.73729230  0.73920461  0.02461701  1
  Zn  Zn72  1  -0.01248984  0.13403940  0.12637881  1
  Zn  Zn73  1  0.26464577  0.38286382  0.13409747  1
  Zn  Zn74  1  0.14793711  0.82942156  0.27986241  1
  Zn  Zn75  1  0.25590661  0.52189817  0.72648156  1
  Zn  Zn76  1  0.19914709  0.18453678  0.19579041  1
  Zn  Zn77  1  0.18802334  0.17773448  0.68846105  1
  Zn  Zn78  1  0.18577118  0.68038018  0.18018843  1
  Zn  Zn79  1  0.17365126  0.68611096  0.68430913  1
  Zn  Zn80  1  0.69903348  0.19746244  0.19244476  1
  Zn  Zn81  1  0.68996590  0.19399968  0.68962108  1
  Zn  Zn82  1  0.68118038  0.69177401  0.19135561  1
  Zn  Zn83  1  0.68634578  0.68375573  0.69452831  1
  Zn  Zn84  1  0.30794862  0.31238919  0.32156742  1
  Zn  Zn85  1  0.32122846  0.30671386  0.81193560  1
  Zn  Zn86  1  0.31729564  0.83058566  0.30764220  1
  Zn  Zn87  1  0.31356404  0.80557398  0.80953586  1
  Zn  Zn88  1  0.80980551  0.31921856  0.30732051  1
  Zn  Zn89  1  0.81155262  0.31518149  0.79555983  1
  Zn  Zn90  1  0.81329192  0.80212955  0.30547176  1
  Zn  Zn91  1  0.85334641  0.79883028  0.82859073  1
  Zn  Zn92  1  0.20098000  0.43853255  0.43521422  1
  Zn  Zn93  1  0.20014620  0.42679029  0.92248203  1
  Zn  Zn94  1  0.17570702  0.89944836  0.44993478  1
  Zn  Zn95  1  0.19081835  0.94202013  0.93650851  1
  Zn  Zn96  1  0.67830669  0.44988704  0.31753225  1
  Zn  Zn97  1  0.71808129  0.38524655  0.92626580  1
  Zn  Zn98  1  0.66620732  0.94204395  0.45023170  1
  Zn  Zn99  1  0.67778845  0.92864306  0.93960327  1
  Zn  Zn100  1  0.31785611  0.05285854  0.05707494  1
  Zn  Zn101  1  0.31003984  0.05468507  0.54887218  1
  Zn  Zn102  1  0.31745909  0.57864472  0.05959154  1
  Zn  Zn103  1  0.29641236  0.57628156  0.54052028  1
  Zn  Zn104  1  0.79709193  0.06880387  0.06183902  1
  Zn  Zn105  1  0.81344053  0.06168560  0.57737888  1
  Zn  Zn106  1  0.84677856  0.47009228  0.09001736  1
  Zn  Zn107  1  0.79394788  0.57398597  0.56115263  1
  Zn  Zn108  1  0.53275442  0.44873411  0.19374118  1
  Zn  Zn109  1  0.43382967  0.43291695  0.68864996  1
  Zn  Zn110  1  0.43255318  0.93895744  0.18869157  1
  Zn  Zn111  1  0.43988351  0.93275351  0.66597754  1
  Zn  Zn112  1  0.96580444  0.31592659  0.20600303  1
  Zn  Zn113  1  0.94373790  0.43814290  0.68240277  1
  Zn  Zn114  1  0.92263511  0.95754765  0.17160380  1
  Zn  Zn115  1  0.93321565  0.94091331  0.69608791  1
  Zn  Zn116  1  0.06091916  0.06498401  0.30667446  1
  Zn  Zn117  1  0.06269540  0.05775127  0.81388617  1
  Zn  Zn118  1  0.06934872  0.55139761  0.31388117  1
  Zn  Zn119  1  0.06296537  0.56191767  0.80113759  1
  Zn  Zn120  1  0.56835170  0.08980390  0.31954690  1
  Zn  Zn121  1  0.56917813  0.05686960  0.81130483  1
  Zn  Zn122  1  0.52994979  0.57864984  0.31676304  1
  Zn  Zn123  1  0.56313751  0.56640621  0.81460831  1
  Zn  Zn124  1  0.43900349  0.19125862  0.43764397  1
  Zn  Zn125  1  0.44897236  0.18149884  0.93736970  1
  Zn  Zn126  1  0.41381751  0.68022747  0.43993756  1
  Zn  Zn127  1  0.43624888  0.69456480  0.93596964  1
  Zn  Zn128  1  0.99096048  0.17729850  0.41973128  1
  Zn  Zn129  1  0.93522039  0.19060032  0.94248545  1
  Zn  Zn130  1  0.91728155  0.73033139  0.42461972  1
  Zn  Zn131  1  0.92734236  0.67424931  0.94016277  1
  Zn  Zn132  1  0.06712366  0.31789171  0.06395052  1
  Zn  Zn133  1  0.07251097  0.31189417  0.56344587  1
  Zn  Zn134  1  0.05542220  0.79872460  0.09174247  1
  Zn  Zn135  1  0.06606851  0.81315874  0.56979653  1
  Zn  Zn136  1  0.55619428  0.30774913  0.06012142  1
  Zn  Zn137  1  0.55787265  0.31460363  0.55561097  1
  Zn  Zn138  1  0.56524984  0.81533989  0.06309538  1
  Zn  Zn139  1  0.54776289  0.81421520  0.55916612  1
  O  O140  1  0.12691181  0.12872265  0.11128529  1
  O  O141  1  0.11147904  0.10961497  0.63639635  1
  O  O142  1  0.11624255  0.60258700  0.12533860  1
  O  O143  1  0.10756198  0.62605199  0.61098425  1
  O  O144  1  0.62024487  0.13746818  0.12906414  1
  O  O145  1  0.61938226  0.13162158  0.62246878  1
  O  O146  1  0.61012166  0.64186340  0.11862293  1
  O  O147  1  0.61507918  0.61627471  0.62057914  1
  O  O148  1  0.38150653  0.37916527  0.38427023  1
  O  O149  1  0.37984759  0.38241405  0.88087271  1
  O  O150  1  0.38954811  0.87456173  0.38975950  1
  O  O151  1  0.39304057  0.86855359  0.86549430  1
  O  O152  1  0.87838278  0.40977944  0.36841881  1
  O  O153  1  0.89070001  0.38307598  0.85507578  1
  O  O154  1  0.90087009  0.84159716  0.38054082  1
  O  O155  1  0.86849654  0.88426815  0.90788384  1
  O  O156  1  0.22219182  -0.01323411  0.37352946  1
  O  O157  1  0.25479859  0.00510293  0.86378252  1
  O  O158  1  0.27793096  0.50385818  0.37621970  1
  O  O159  1  0.25992232  0.51557446  0.87395680  1
  O  O160  1  0.72040582  -0.00327872  0.34591811  1
  O  O161  1  0.73772715  -0.00336575  0.86485815  1
  O  O162  1  0.74166847  0.52159895  0.38152553  1
  O  O163  1  0.76152200  0.47929957  0.85945025  1
  O  O164  1  0.24507427  0.50438975  0.11345987  1
  O  O165  1  0.22780298  0.51969744  0.61563886  1
  O  O166  1  0.23414094  1.00371946  0.11798145  1
  O  O167  1  0.23973739  1.00833053  0.63164762  1
  O  O168  1  0.74365403  0.48627947  0.14863422  1
  O  O169  1  0.73867297  0.49299437  0.62670658  1
  O  O170  1  0.75578718  0.98904827  0.12806588  1
  O  O171  1  0.74234354  0.99897261  0.64202698  1
  O  O172  1  0.03533881  0.39005806  0.24720047  1
  O  O173  1  0.01369270  0.36320534  0.75323086  1
  O  O174  1  -0.01623365  0.90506382  0.25772212  1
  O  O175  1  0.01070645  0.88875622  0.76008438  1
  O  O176  1  0.49633697  0.36253495  0.26485290  1
  O  O177  1  0.48983831  0.35845877  0.76236761  1
  O  O178  1  0.50032563  0.85958816  0.24040014  1
  O  O179  1  0.49873148  0.86403519  0.74541249  1
  O  O180  1  0.50418339  0.11686628  0.23203549  1
  O  O181  1  0.49625422  0.13557616  0.74666182  1
  O  O182  1  0.50775940  0.65615883  0.22880348  1
  O  O183  1  0.49917227  0.63002799  0.73791535  1
  O  O184  1  0.98442766  0.12425534  0.24203378  1
  O  O185  1  0.99345148  0.13034171  0.74543055  1
  O  O186  1  0.99935169  0.60710556  0.23336825  1
  O  O187  1  0.98374698  0.61820266  0.74372169  1
  O  O188  1  0.36646269  0.24744482  -0.00964687  1
  O  O189  1  0.37444687  0.24078295  0.51842436  1
  O  O190  1  0.36364866  0.75666400  0.00239182  1
  O  O191  1  0.38800651  0.76505097  0.51693255  1
  O  O192  1  0.86211888  0.26708008  -0.01135020  1
  O  O193  1  0.87986679  0.24543324  0.51547841  1
  O  O194  1  0.85432175  0.74736549  -0.00049498  1
  O  O195  1  0.85295534  0.74675609  0.51816691  1
  O  O196  1  0.13587242  0.24466807  0.50216524  1
  O  O197  1  0.13648317  0.24350660  0.99427242  1
  O  O198  1  0.15148789  0.79791934  0.50271860  1
  O  O199  1  0.12501215  0.75861440  0.99963385  1
  O  O200  1  0.63061356  0.24310579  0.50496230  1
  O  O201  1  0.62031446  0.25196031  0.98367952  1
  O  O202  1  0.62260525  0.74542891  0.50125552  1
  O  O203  1  0.62972326  0.75266049  0.98513930  1
  O  O204  1  0.48747524  0.23420199  0.11765417  1
  O  O205  1  0.49896569  0.24402380  0.63856771  1
  O  O206  1  0.48426401  0.75456683  0.12318331  1
  O  O207  1  0.49447434  0.73877223  0.63618149  1
  O  O208  1  0.98302198  0.25342788  0.10777043  1
  O  O209  1  0.99432964  0.24503796  0.63147671  1
  O  O210  1  0.98520453  0.70909801  0.11238402  1
  O  O211  1  0.98158869  0.75292698  0.61485999  1
  O  O212  1  -0.00996609  0.30383940  0.41282883  1
  O  O213  1  0.00809719  0.25490519  0.86788526  1
  O  O214  1  0.00822196  0.71408902  0.35487100  1
  O  O215  1  -0.03881804  0.75314704  0.86843987  1
  O  O216  1  0.51297487  0.25884735  0.38657348  1
  O  O217  1  0.51167126  0.25546961  0.86664733  1
  O  O218  1  0.50139159  0.74543220  0.36541792  1
  O  O219  1  0.49937677  0.75570135  0.86014031  1
  O  O220  1  0.23674371  0.11730509  0.49139600  1
  O  O221  1  0.24206206  0.13462920  0.99833597  1
  O  O222  1  0.29219927  0.64769722  0.44997866  1
  O  O223  1  0.24932617  0.63616646  0.98103104  1
  O  O224  1  0.74780309  0.13328036  0.51445493  1
  O  O225  1  0.75333834  0.12708064  0.97740916  1
  O  O226  1  0.72819985  0.63878001  0.49526605  1
  O  O227  1  0.74145501  0.60520557  1.00042859  1
  O  O228  1  0.26482548  0.36182553  -0.00516119  1
  O  O229  1  0.27371792  0.36918939  0.49467567  1
  O  O230  1  0.24715236  0.85954857  -0.00871451  1
  O  O231  1  0.27791998  0.89150149  0.50875130  1
  O  O232  1  0.74493483  0.39523326  0.03224334  1
  O  O233  1  0.76136643  0.38294809  0.51275980  1
  O  O234  1  0.75300821  0.87349134  0.01261761  1
  O  O235  1  0.73998588  0.86487063  0.49887934  1
  O  O236  1  0.14199147  0.49325425  0.24146736  1
  O  O237  1  0.13350071  0.48517477  0.74950802  1
  O  O238  1  0.12768167  1.00202498  0.23582102  1
  O  O239  1  0.13981883  0.99834443  0.74941098  1
  O  O240  1  0.60119182  0.51074763  0.26148229  1
  O  O241  1  0.63599557  0.50406325  0.74016221  1
  O  O242  1  0.67492836  1.01361747  0.28903831  1
  O  O243  1  0.64045967  0.99856691  0.74199832  1
  O  O244  1  0.36050354  -0.01567536  0.27697874  1
  O  O245  1  0.36701331  0.00792462  0.73794492  1
  O  O246  1  0.38097924  0.48242814  0.25179031  1
  O  O247  1  0.36487981  0.49256199  0.75905505  1
  O  O248  1  0.88445106  0.04147088  0.23908011  1
  O  O249  1  0.86104105  0.01575449  0.74796757  1
  O  O250  1  0.92003269  0.46527847  0.33265727  1
  O  O251  1  0.87002513  0.50413441  0.74755645  1
  O  O252  1  0.13854498  0.36829234  0.36833772  1
  O  O253  1  0.11972628  0.36209664  0.86260650  1
  O  O254  1  0.08683585  0.86885422  0.37098380  1
  O  O255  1  0.12478621  0.87655996  0.86635934  1
  O  O256  1  0.61358241  0.36733385  0.38120158  1
  O  O257  1  0.60660111  0.38334703  0.88153381  1
  O  O258  1  0.60794301  0.86412377  0.39340858  1
  O  O259  1  0.60565519  0.85805650  0.87298505  1
  O  O260  1  0.37363197  0.13432088  0.12363299  1
  O  O261  1  0.39013503  0.13025354  0.63215796  1
  O  O262  1  0.38351428  0.64786112  0.12126338  1
  O  O263  1  0.38858216  0.62458350  0.61575628  1
  O  O264  1  0.86454524  0.15820181  0.11231670  1
  O  O265  1  0.88183680  0.13853498  0.63804698  1
  O  O266  1  0.89260581  0.57488205  0.11999178  1
  O  O267  1  0.87384595  0.62231381  0.62814923  1
  O  O268  1  0.26350872  0.24942008  0.10879077  1
  O  O269  1  0.26389895  0.24181308  0.63257695  1
  O  O270  1  0.25275769  0.74126777  0.10502664  1
  O  O271  1  0.26557961  0.72366700  0.62374279  1
  O  O272  1  0.75336196  0.27328011  0.12343949  1
  O  O273  1  0.76211713  0.26417539  0.62967797  1
  O  O274  1  0.74539954  0.76738272  0.13345764  1
  O  O275  1  0.74218551  0.74927515  0.61584338  1
  O  O276  1  0.24858123  0.23133944  0.37478606  1
  O  O277  1  0.24367792  0.25236476  0.88470578  1
  O  O278  1  0.22456205  0.76872447  0.35466517  1
  O  O279  1  0.24657845  0.74158863  0.88173790  1
  O  O280  1  0.73852390  0.27098230  0.38593854  1
  O  O281  1  0.72927033  0.28189573  0.86804108  1
  O  O282  1  0.73085389  0.74824325  0.39004950  1
  O  O283  1  0.73959746  0.75570058  0.86633453  1
  O  O284  1  0.01408026  0.12618969  0.00095653  1
  O  O285  1  -0.00490489  0.11191289  0.51739152  1
  O  O286  1  -0.00365862  0.60143270  -0.00049096  1
  O  O287  1  -0.05596179  0.54194249  0.49100985  1
  O  O288  1  0.50500487  0.11633281  0.01080584  1
  O  O289  1  0.50620715  0.12889453  0.51943072  1
  O  O290  1  0.49792047  0.63379763  0.00732129  1
  O  O291  1  0.50764722  0.63461875  0.51567579  1
  O  O292  1  0.48036141  0.36677324  0.49464666  1
  O  O293  1  0.48486912  0.36550111  0.98231832  1
  O  O294  1  0.46909620  0.89632354  0.54820187  1
  O  O295  1  0.49538437  0.88113471  0.98984778  1
  O  O296  1  0.99893626  0.35075896  0.47146429  1
  O  O297  1  1.01123738  0.38594205  0.98090205  1
  O  O298  1  0.99483908  0.88979066  0.50424956  1
  O  O299  1  0.99141714  0.87689671  1.00731847  1
  O  O300  1  0.49140393  0.47413198  0.37927828  1
  O  O301  1  0.48853917  0.48798211  0.86196477  1
  O  O302  1  0.50821430  1.00105858  0.36570538  1
  O  O303  1  0.50332068  0.98820555  0.87541618  1
  O  O304  1  0.98669436  0.48487248  0.37166539  1
  O  O305  1  0.99478178  0.49328844  0.87429773  1
  O  O306  1  0.99191658  1.00061453  0.39328814  1
  O  O307  1  1.00777945  1.00164660  0.89664541  1
  O  O308  1  0.01681466  0.00953509  0.10911764  1
  O  O309  1  -0.00074399  0.00569264  0.62129197  1
  O  O310  1  0.02598858  0.49299881  0.09775215  1
  O  O311  1  0.02724668  0.48295088  0.62154520  1
  O  O312  1  0.49520818  0.01152672  0.11881673  1
  O  O313  1  0.51880123  0.01940327  0.64350432  1
  O  O314  1  0.48934248  0.52476607  0.12271893  1
  O  O315  1  0.51043256  0.50613486  0.63690951  1
  O  O316  1  0.24066327  0.36737428  0.24469404  1
  O  O317  1  0.24131762  0.37051402  0.75852518  1
  O  O318  1  0.23905663  0.89198072  0.24628716  1
  O  O319  1  0.24419862  0.88791857  0.75767484  1
  O  O320  1  0.73063526  0.37243648  0.24504417  1
  O  O321  1  0.75463075  0.39169053  0.72999502  1
  O  O322  1  0.75900866  0.87681497  0.24289281  1
  O  O323  1  0.77163544  0.88126419  0.76438293  1
  O  O324  1  0.24643005  0.09925441  0.25363572  1
  O  O325  1  0.26564508  0.11694014  0.75084780  1
  O  O326  1  0.25042959  0.63930422  0.26770472  1
  O  O327  1  0.23834312  0.63035084  0.76820269  1
  O  O328  1  0.77093903  0.14468122  0.26351300  1
  O  O329  1  0.76394884  0.13626736  0.75471412  1
  O  O330  1  0.74266917  0.63986610  0.27232443  1
  O  O331  1  0.75983702  0.60370093  0.74113855  1
  O  O332  1  0.39375935  0.11170696  0.37107412  1
  O  O333  1  0.38627148  0.12431480  0.85779811  1
  O  O334  1  0.41903945  0.59876393  0.35948333  1
  O  O335  1  0.38443706  0.60905125  0.87312532  1
  O  O336  1  0.88997899  0.13986840  0.37899846  1
  O  O337  1  0.88128193  0.12846842  0.86366569  1
  O  O338  1  0.85514853  0.63784242  0.38875938  1
  O  O339  1  0.87136709  0.60299501  0.86045535  1
  O  O340  1  0.13980164  0.39020457  0.11616674  1
  O  O341  1  0.13409526  0.36553673  0.64095982  1
  O  O342  1  0.12163019  0.88829012  0.11939163  1
  O  O343  1  0.11772361  0.89551782  0.64367970  1
  O  O344  1  0.60875137  0.38257915  0.12811693  1
  O  O345  1  0.63311298  0.38748193  0.61452121  1
  O  O346  1  0.63514972  0.87991672  0.12767932  1
  O  O347  1  0.62080741  0.89089177  0.61789177  1
  O  O348  1  0.12342220  0.25606485  0.24174840  1
  O  O349  1  0.11948492  0.24892765  0.75536167  1
  O  O350  1  0.08933554  0.75606620  0.21390541  1
  O  O351  1  0.12288812  0.77253477  0.73977958  1
  O  O352  1  0.62746542  0.23388004  0.27815858  1
  O  O353  1  0.61282415  0.25192799  0.75599221  1
  O  O354  1  0.62101454  0.76034949  0.27177232  1
  O  O355  1  0.61022935  0.74806889  0.75299361  1
  O  O356  1  0.36750146  0.25133388  0.23485354  1
  O  O357  1  0.38369274  0.23690996  0.74220210  1
  O  O358  1  0.37962135  0.75433797  0.24678060  1
  O  O359  1  0.38666588  0.74391391  0.73862321  1
  O  O360  1  0.88956098  0.25187117  0.26241961  1
  O  O361  1  0.88848408  0.24274563  0.74833380  1
  O  O362  1  0.90044738  0.74835264  0.24379764  1
  O  O363  1  0.86266456  0.73022747  0.73262967  1
  O  O364  1  0.37555554  0.49103762  0.51393454  1
  O  O365  1  0.37031931  0.48837690  0.98820182  1
  O  O366  1  0.38148047  0.99838480  0.47887161  1
  O  O367  1  0.39465637  1.00296562  0.99304859  1
  O  O368  1  0.88313974  0.50201401  0.50488580  1
  O  O369  1  0.87738242  0.49037566  0.97682886  1
  O  O370  1  0.87822045  0.99489121  0.51189008  1
  O  O371  1  0.89390571  1.01044299  1.01057575  1
  O  O372  1  0.12439826  0.01333099  0.00449581  1
  O  O373  1  0.11906465  -0.00909907  0.51873619  1
  O  O374  1  0.12727747  0.50024142  -0.02122653  1
  O  O375  1  0.12545511  0.50342896  0.49425893  1
  O  O376  1  0.60277153  -0.00672448  -0.00352605  1
  O  O377  1  0.63382776  0.02169860  0.52237173  1
  O  O378  1  0.68006400  0.56498288  -0.00136139  1
  O  O379  1  0.62111103  0.51613517  0.51448822  1
  O  O380  1  0.37970684  0.35717370  0.10136610  1
  O  O381  1  0.37976405  0.35873167  0.61903857  1
  O  O382  1  0.36836924  0.86089125  0.12829463  1
  O  O383  1  0.35279296  0.85672017  0.63834005  1
  O  O384  1  0.87922259  0.36430990  0.12885726  1
  O  O385  1  0.87150829  0.36384134  0.62592131  1
  O  O386  1  0.87000564  0.87821366  0.10934021  1
  O  O387  1  0.87188085  0.86252994  0.63767677  1
  O  O388  1  0.09684139  0.14260429  0.38300404  1
  O  O389  1  0.12101170  0.13669079  0.88455587  1
  O  O390  1  0.13528734  0.62110030  0.37763252  1
  O  O391  1  0.12198669  0.62900866  0.87543616  1
  O  O392  1  0.62889434  0.13836442  0.40166302  1
  O  O393  1  0.62871770  0.13887415  0.86817114  1
  O  O394  1  0.61462542  0.63586614  0.39194737  1
  O  O395  1  0.62312037  0.64382819  0.86857201  1
