# generated using pymatgen
data_V35Zn35O128
_symmetry_space_group_name_H-M   'P 1'
_cell_length_a   16.85288978
_cell_length_b   16.85968375
_cell_length_c   16.85497346
_cell_angle_alpha   89.75540602
_cell_angle_beta   90.05088281
_cell_angle_gamma   89.87436964
_symmetry_Int_Tables_number   1
_chemical_formula_structural   V35Zn35O128
_chemical_formula_sum   'V70 Zn70 O256'
_cell_volume   4789.02055637
_cell_formula_units_Z   2
loop_
 _symmetry_equiv_pos_site_id
 _symmetry_equiv_pos_as_xyz
  1  'x, y, z'
loop_
 _atom_site_type_symbol
 _atom_site_label
 _atom_site_symmetry_multiplicity
 _atom_site_fract_x
 _atom_site_fract_y
 _atom_site_fract_z
 _atom_site_occupancy
  V  V0  1  0.88434348  0.12228961  0.24528868  1
  V  V1  1  0.00796228  0.36542906  0.38831394  1
  V  V2  1  0.87016192  0.61629045  0.74877238  1
  V  V3  1  0.50531257  -0.00384572  0.51356713  1
  V  V4  1  0.75285121  0.12319616  0.37055990  1
  V  V5  1  -0.00152375  0.49891554  0.49906739  1
  V  V6  1  0.24862398  0.25556603  -0.01391847  1
  V  V7  1  0.00336377  0.24720022  0.76372378  1
  V  V8  1  0.62890556  0.62900115  0.50277252  1
  V  V9  1  0.01565422  0.61065178  0.13135335  1
  V  V10  1  0.62615290  0.74746682  0.88968172  1
  V  V11  1  0.25457976  0.50806403  0.28454324  1
  V  V12  1  0.61755854  0.25854574  0.38219639  1
  V  V13  1  0.13379450  0.49377191  0.63812997  1
  V  V14  1  0.86340427  0.86580176  0.49810049  1
  V  V15  1  0.86166458  0.62880712  0.26283158  1
  V  V16  1  0.75069122  0.62370374  0.88698179  1
  V  V17  1  0.64855516  0.86387648  0.74409077  1
  V  V18  1  0.13688367  0.62232228  0.48872560  1
  V  V19  1  0.62742277  0.23816184  0.89796838  1
  V  V20  1  0.01438290  -0.00647909  0.50863136  1
  V  V21  1  0.63797859  0.37274475  0.24104571  1
  V  V22  1  0.24292654  0.76896306  -0.02873588  1
  V  V23  1  0.63651959  0.74810302  0.37296808  1
  V  V24  1  -0.00048396  0.00739564  0.00013088  1
  V  V25  1  0.00724694  0.24815930  0.24833469  1
  V  V26  1  0.76078192  0.25588383  0.50642464  1
  V  V27  1  0.49525079  0.50797771  0.00941664  1
  V  V28  1  0.37603818  0.87452833  0.51525035  1
  V  V29  1  0.61535374  0.49748809  0.63021325  1
  V  V30  1  0.25781855  0.36515280  0.64187574  1
  V  V31  1  0.22011420  0.12156022  0.87184551  1
  V  V32  1  0.01248694  0.74851961  0.76489564  1
  V  V33  1  0.01830109  0.86640946  0.37429815  1
  V  V34  1  0.86524271  0.26451472  0.12611504  1
  V  V35  1  0.86598809  0.49609834  0.37502802  1
  V  V36  1  0.37640250  0.00773161  0.37986494  1
  V  V37  1  0.35707240  0.48020364  0.87550202  1
  V  V38  1  0.76476316  0.38152228  0.62520785  1
  V  V39  1  0.02317307  0.74816061  0.25221363  1
  V  V40  1  0.43395544  -0.05871209  -0.08187388  1
  V  V41  1  0.50019088  0.75385808  0.74708203  1
  V  V42  1  0.23934089  0.12939875  0.38950813  1
  V  V43  1  0.12338814  0.00131128  0.13614021  1
  V  V44  1  0.65258302  -0.01134726  0.62808078  1
  V  V45  1  0.37365525  0.13117355  0.25060887  1
  V  V46  1  0.87992549  0.85474631  0.00331121  1
  V  V47  1  0.86542903  0.74798409  0.61810663  1
  V  V48  1  0.21334239  0.25024650  0.51214893  1
  V  V49  1  0.37747637  0.74288642  0.13413552  1
  V  V50  1  0.49479112  0.48631607  0.48691407  1
  V  V51  1  0.52449381  0.38497490  0.87079283  1
  V  V52  1  0.62854597  0.11876376  0.50622785  1
  V  V53  1  0.37707537  0.72837217  0.62593315  1
  V  V54  1  0.00683444  0.62661091  0.62462373  1
  V  V55  1  0.63248104  0.88905923  0.24685353  1
  V  V56  1  0.25199453  0.74893337  0.48927329  1
  V  V57  1  0.49971116  0.12581974  0.11872831  1
  V  V58  1  0.87412318  -0.00378525  0.37387260  1
  V  V59  1  0.84998013  0.13631840  0.74017293  1
  V  V60  1  0.13661055  0.89819656  0.73805813  1
  V  V61  1  0.00744656  0.12359532  0.62273018  1
  V  V62  1  0.24799713  0.87746321  0.14693064  1
  V  V63  1  0.13135465  0.37576695  0.24440070  1
  V  V64  1  0.49546127  0.87040277  0.36664952  1
  V  V65  1  0.87488638  -0.02139498  0.86241040  1
  V  V66  1  0.49775974  0.26113057  0.24811869  1
  V  V67  1  -0.01517174  0.43376147  0.90260690  1
  V  V68  1  0.36785450  0.61717428  0.77081028  1
  V  V69  1  0.62540133  0.52244599  0.13539144  1
  Zn  Zn70  1  0.46682941  0.16553316  0.66583666  1
  Zn  Zn71  1  0.73885535  0.49151729  0.75613148  1
  Zn  Zn72  1  0.61577129  0.00823761  0.08977770  1
  Zn  Zn73  1  0.87228799  0.75232803  0.13675722  1
  Zn  Zn74  1  0.69407943  0.06028805  0.82028797  1
  Zn  Zn75  1  0.76688185  -0.08338423  0.12901458  1
  Zn  Zn76  1  0.18678751  0.17948927  0.19294697  1
  Zn  Zn77  1  0.18324199  0.18027559  0.69718007  1
  Zn  Zn78  1  0.20242816  0.68175393  0.18747615  1
  Zn  Zn79  1  0.19453104  0.68919558  0.68245297  1
  Zn  Zn80  1  0.71803028  0.13498979  0.15105595  1
  Zn  Zn81  1  0.66415789  0.20336154  0.68612870  1
  Zn  Zn82  1  0.67516009  0.70481546  0.19033916  1
  Zn  Zn83  1  0.68590411  0.68154786  0.68276434  1
  Zn  Zn84  1  0.30473241  0.30307639  0.32188143  1
  Zn  Zn85  1  0.32433868  0.29650930  0.80788537  1
  Zn  Zn86  1  0.31675162  0.80940175  0.31090938  1
  Zn  Zn87  1  0.31084042  0.83057625  0.79858081  1
  Zn  Zn88  1  0.81755114  0.31216117  0.31762492  1
  Zn  Zn89  1  0.82730250  0.32392947  0.81434002  1
  Zn  Zn90  1  0.81252504  0.81508280  0.30798421  1
  Zn  Zn91  1  0.82174188  0.79661409  0.81509133  1
  Zn  Zn92  1  0.18704434  0.42968715  0.44788052  1
  Zn  Zn93  1  0.17703176  0.38236950  0.84847337  1
  Zn  Zn94  1  0.19611007  0.93768583  0.44028136  1
  Zn  Zn95  1  0.17266415  0.93009675  0.92165908  1
  Zn  Zn96  1  0.68160309  0.43776759  0.44484638  1
  Zn  Zn97  1  0.67998603  0.46316703  0.94768850  1
  Zn  Zn98  1  0.68773223  0.93456315  0.43273012  1
  Zn  Zn99  1  0.69241314  0.91549730  0.94423054  1
  Zn  Zn100  1  0.28235452  0.03472877  0.01753581  1
  Zn  Zn101  1  0.33319172  0.08876788  0.55452188  1
  Zn  Zn102  1  0.34837577  0.60621670  0.01621888  1
  Zn  Zn103  1  0.31439497  0.55104214  0.56039287  1
  Zn  Zn104  1  0.79228387  0.05723607  0.00299243  1
  Zn  Zn105  1  0.81993442  0.05935275  0.55647336  1
  Zn  Zn106  1  0.78746784  0.61552972  0.09631228  1
  Zn  Zn107  1  0.80881241  0.56473799  0.55568720  1
  Zn  Zn108  1  0.44587716  0.45934862  0.21082759  1
  Zn  Zn109  1  0.44147754  0.43561992  0.69319811  1
  Zn  Zn110  1  0.42578959  0.94393113  0.18243735  1
  Zn  Zn111  1  0.46836246  0.96563184  0.74740208  1
  Zn  Zn112  1  0.93576562  0.43790946  0.19544336  1
  Zn  Zn113  1  0.93735074  0.43520921  0.68652576  1
  Zn  Zn114  1  0.95008052  0.93363006  0.18613919  1
  Zn  Zn115  1  0.94503100  0.92377762  0.68326347  1
  Zn  Zn116  1  0.06176762  0.05459756  0.31675464  1
  Zn  Zn117  1  0.05011247  0.05910774  0.81101706  1
  Zn  Zn118  1  0.06413009  0.55603121  0.30865985  1
  Zn  Zn119  1  0.06644857  0.56627763  0.81817150  1
  Zn  Zn120  1  0.55848266  0.06723903  0.31633039  1
  Zn  Zn121  1  0.50557739  0.10325760  0.84208248  1
  Zn  Zn122  1  0.57087512  0.55578602  0.32293610  1
  Zn  Zn123  1  0.55615962  0.57352808  0.81541974  1
  Zn  Zn124  1  0.43837963  0.19064411  0.46012002  1
  Zn  Zn125  1  0.42994444  0.23035170  0.95302964  1
  Zn  Zn126  1  0.45056762  0.68519156  0.44427169  1
  Zn  Zn127  1  0.45522574  0.73213864  0.96788930  1
  Zn  Zn128  1  0.94206676  0.18232025  0.44361707  1
  Zn  Zn129  1  0.91944477  0.19104165  0.94595932  1
  Zn  Zn130  1  0.94255937  0.68447576  0.43482714  1
  Zn  Zn131  1  0.94891452  0.65365565  0.93641533  1
  Zn  Zn132  1  0.10114102  0.35779060  0.03346591  1
  Zn  Zn133  1  0.04125394  0.31965569  0.59308448  1
  Zn  Zn134  1  0.06841539  0.81098286  0.05949348  1
  Zn  Zn135  1  0.06603395  0.80815814  0.56097279  1
  Zn  Zn136  1  0.56325683  0.32095755  0.05977541  1
  Zn  Zn137  1  0.56196231  0.31531549  0.58175898  1
  Zn  Zn138  1  0.54875203  0.84494535  0.05085348  1
  Zn  Zn139  1  0.56083850  0.81146715  0.56366752  1
  O  O140  1  0.13780935  0.10161644  0.12684937  1
  O  O141  1  0.10707169  0.12250231  0.62873912  1
  O  O142  1  0.11610240  0.62497648  0.13922984  1
  O  O143  1  0.12257597  0.61519112  0.61557378  1
  O  O144  1  0.60442698  0.12392764  0.12602874  1
  O  O145  1  0.63886452  0.09943902  0.61521615  1
  O  O146  1  0.60342456  0.61787461  0.15709144  1
  O  O147  1  0.62555556  0.61780701  0.60950195  1
  O  O148  1  0.37656053  0.35782107  0.40590777  1
  O  O149  1  0.38946752  0.38104014  0.86445185  1
  O  O150  1  0.38311519  0.88559347  0.38049576  1
  O  O151  1  0.38115413  0.91639192  0.82992811  1
  O  O152  1  0.89132634  0.38799239  0.37091067  1
  O  O153  1  0.89590721  0.39474081  0.86661562  1
  O  O154  1  0.88192269  0.87728196  0.38372980  1
  O  O155  1  0.86771618  0.87000373  0.89029619  1
  O  O156  1  0.26444831  0.01715998  0.39223470  1
  O  O157  1  0.24219736  0.02174250  0.89955588  1
  O  O158  1  0.25803405  0.49341483  0.38521945  1
  O  O159  1  0.25902043  0.47295620  0.87053807  1
  O  O160  1  0.76377310  0.00693681  0.38177949  1
  O  O161  1  0.76045057  -0.00223836  0.89137988  1
  O  O162  1  0.76727857  0.48953174  0.38569921  1
  O  O163  1  0.74219181  0.51746640  0.86796703  1
  O  O164  1  0.24106964  0.49124248  0.11665407  1
  O  O165  1  0.24242262  0.48129704  0.62179200  1
  O  O166  1  0.23915567  0.98658325  0.11500113  1
  O  O167  1  0.26735403  1.02434623  0.63638950  1
  O  O168  1  0.72543799  0.52172937  0.12850802  1
  O  O169  1  0.74381388  0.49263487  0.61912229  1
  O  O170  1  0.73500852  1.02829810  0.10031653  1
  O  O171  1  0.75007958  0.98507207  0.61572270  1
  O  O172  1  0.01072140  0.36444313  0.26672224  1
  O  O173  1  -0.01288477  0.33813982  0.71005843  1
  O  O174  1  -0.00140102  0.86250315  0.26692575  1
  O  O175  1  0.00315049  0.85011063  0.74889825  1
  O  O176  1  0.50214463  0.36407528  0.25212702  1
  O  O177  1  0.51263280  0.38550844  0.76990418  1
  O  O178  1  0.50029124  0.88776980  0.26530180  1
  O  O179  1  0.51299605  0.85919640  0.74665060  1
  O  O180  1  0.49218680  0.13826295  0.24990242  1
  O  O181  1  0.47875095  0.07615215  0.73439662  1
  O  O182  1  0.45943800  0.61109809  0.28217273  1
  O  O183  1  0.48103898  0.64069178  0.75710942  1
  O  O184  1  0.99425044  0.13828421  0.27043676  1
  O  O185  1  0.98975310  0.13489545  0.73712953  1
  O  O186  1  1.00200405  0.63826211  0.25633279  1
  O  O187  1  0.99004853  0.62778547  0.74040580  1
  O  O188  1  0.34414858  0.28411342  0.00461030  1
  O  O189  1  0.39075235  0.31439817  0.46573896  1
  O  O190  1  0.34258128  0.72648274  0.00457434  1
  O  O191  1  0.37443365  0.75010229  0.50803536  1
  O  O192  1  0.89033538  0.26735303  0.02876686  1
  O  O193  1  0.85907142  0.24270944  0.49878208  1
  O  O194  1  0.88703704  0.75345591  0.00392091  1
  O  O195  1  0.88130425  0.75475957  0.50524520  1
  O  O196  1  0.11579302  0.25243814  0.51102712  1
  O  O197  1  0.14782994  0.24302714  1.05252827  1
  O  O198  1  0.14247631  0.73704086  0.50314806  1
  O  O199  1  0.14321530  0.75271483  0.99604458  1
  O  O200  1  0.63306102  0.23853813  0.49213941  1
  O  O201  1  0.63983991  0.25488082  0.99652213  1
  O  O202  1  0.61458429  0.73906079  0.48940489  1
  O  O203  1  0.62012431  0.75896499  0.98738247  1
  O  O204  1  0.50261000  0.24811025  0.14396806  1
  O  O205  1  0.55702494  0.23589084  0.65817223  1
  O  O206  1  0.47317202  0.76161140  0.09305173  1
  O  O207  1  0.48546841  0.75058358  0.62941040  1
  O  O208  1  0.98857736  0.25190586  0.15097723  1
  O  O209  1  0.98455132  0.22096100  0.60565792  1
  O  O210  1  1.00216553  0.74988160  0.14698901  1
  O  O211  1  0.99536971  0.73423163  0.62238987  1
  O  O212  1  -0.00633634  0.26223526  0.37925756  1
  O  O213  1  -0.01724328  0.24579601  0.86268094  1
  O  O214  1  0.00672216  0.75987190  0.37363975  1
  O  O215  1  -0.00270843  0.73058034  0.86255416  1
  O  O216  1  0.51506264  0.24067997  0.37813153  1
  O  O217  1  0.52318787  0.27066678  0.88896817  1
  O  O218  1  0.49977311  0.76773001  0.37717499  1
  O  O219  1  0.52060804  0.74167017  0.86535357  1
  O  O220  1  0.24042386  0.13675273  0.50058057  1
  O  O221  1  0.25615868  0.14561910  0.98273566  1
  O  O222  1  0.24344427  0.62740697  0.50320842  1
  O  O223  1  0.22492433  0.62120993  0.99469651  1
  O  O224  1  0.74665049  0.13055334  0.49380654  1
  O  O225  1  0.81049460  0.15417637  0.94846667  1
  O  O226  1  0.72987474  0.61935217  0.49131849  1
  O  O227  1  0.76618076  0.61522737  0.98396696  1
  O  O228  1  0.19280768  0.35021731  -0.03824470  1
  O  O229  1  0.24058866  0.35523180  0.51989872  1
  O  O230  1  0.25252339  0.86984851  -0.01198654  1
  O  O231  1  0.26079624  0.85798678  0.49402225  1
  O  O232  1  0.77515857  0.40235900  0.00679059  1
  O  O233  1  0.74721344  0.36092461  0.50316113  1
  O  O234  1  0.77207376  0.87362999  0.01772760  1
  O  O235  1  0.76483573  0.87072710  0.49428979  1
  O  O236  1  0.14320400  0.48436241  0.26402679  1
  O  O237  1  0.12833253  0.51445116  0.73583928  1
  O  O238  1  0.11393271  0.99277601  0.23661535  1
  O  O239  1  0.11508812  0.99835000  0.74024877  1
  O  O240  1  0.61008067  0.48260576  0.24328381  1
  O  O241  1  0.62496544  0.52030295  0.73264045  1
  O  O242  1  0.62422028  0.99011905  0.26144207  1
  O  O243  1  0.64286973  0.97968534  0.73887337  1
  O  O244  1  0.38102054  0.02109951  0.26737732  1
  O  O245  1  0.30311417  0.00658088  0.69900319  1
  O  O246  1  0.34405752  0.47341169  0.24704956  1
  O  O247  1  0.38312846  0.50928021  0.76397570  1
  O  O248  1  0.89367079  0.01043350  0.26297368  1
  O  O249  1  0.87017824  -0.04072550  0.76329642  1
  O  O250  1  0.87920834  0.51224789  0.26855239  1
  O  O251  1  0.87915934  0.51523751  0.74269667  1
  O  O252  1  0.11190423  0.37333106  0.37541926  1
  O  O253  1  0.06664087  0.41101263  0.84480048  1
  O  O254  1  0.11680612  0.87901348  0.37817023  1
  O  O255  1  0.12439247  0.87083058  0.84005742  1
  O  O256  1  0.62743788  0.36116698  0.37404383  1
  O  O257  1  0.62704006  0.38340177  0.88511027  1
  O  O258  1  0.61298517  0.87058044  0.37247734  1
  O  O259  1  0.63905493  0.85464864  0.85416303  1
  O  O260  1  0.37685301  0.13341039  0.15096476  1
  O  O261  1  0.40176456  0.17546147  0.57080047  1
  O  O262  1  0.36397744  0.64112782  0.12921446  1
  O  O263  1  0.37987400  0.62750680  0.62669271  1
  O  O264  1  0.88427396  0.12863294  0.14725788  1
  O  O265  1  0.87886550  0.10252411  0.64342669  1
  O  O266  1  0.89009936  0.62422863  0.15447880  1
  O  O267  1  0.88349177  0.63059292  0.62516491  1
  O  O268  1  0.21682079  0.25297980  0.10117170  1
  O  O269  1  0.23846383  0.25356514  0.62178219  1
  O  O270  1  0.25644040  0.76592136  0.12768060  1
  O  O271  1  0.27020454  0.74354784  0.61083970  1
  O  O272  1  0.76742357  0.23440510  0.13135143  1
  O  O273  1  0.74301765  0.26410846  0.61398458  1
  O  O274  1  0.75888563  0.72494443  0.12110120  1
  O  O275  1  0.76717648  0.74035929  0.61988568  1
  O  O276  1  0.24732838  0.24171506  0.40288066  1
  O  O277  1  0.24575775  0.24030962  0.87607970  1
  O  O278  1  0.26716081  0.74107682  0.39032100  1
  O  O279  1  0.25729932  0.76019874  0.87130867  1
  O  O280  1  0.74345052  0.24216495  0.38514410  1
  O  O281  1  0.72816792  0.25866790  0.84935000  1
  O  O282  1  0.73500923  0.76101856  0.37839874  1
  O  O283  1  0.73949202  0.73500048  0.87017029  1
  O  O284  1  -0.01159191  0.10675322  -0.00604279  1
  O  O285  1  -0.00685178  0.10116097  0.50721745  1
  O  O286  1  -0.00405228  0.62852603  0.03411143  1
  O  O287  1  0.01426963  0.61924407  0.50585566  1
  O  O288  1  0.47952855  0.15055018  0.02285790  1
  O  O289  1  0.52365352  0.10942955  0.49116410  1
  O  O290  1  0.48205249  0.60949641  -0.00333779  1
  O  O291  1  0.51592819  0.60640672  0.48992031  1
  O  O292  1  0.51262605  0.38530667  0.50999072  1
  O  O293  1  0.50177391  0.39079590  0.98962753  1
  O  O294  1  0.49354940  0.87957131  0.49099585  1
  O  O295  1  0.46160627  0.85364705  0.96548057  1
  O  O296  1  1.00557772  0.38401793  0.49680133  1
  O  O297  1  1.00447679  0.40168526  0.99775594  1
  O  O298  1  0.99675065  0.87670162  0.49019315  1
  O  O299  1  0.98594458  0.87784877  1.00879816  1
  O  O300  1  0.50705929  0.48460895  0.38504275  1
  O  O301  1  0.50693611  0.49548511  0.88759076  1
  O  O302  1  0.49387671  0.99323707  0.38738863  1
  O  O303  1  0.51366602  0.99226539  0.87534956  1
  O  O304  1  0.99971720  0.48897236  0.38499933  1
  O  O305  1  0.98565110  0.54012580  0.89604541  1
  O  O306  1  0.99457977  0.98672762  0.38669990  1
  O  O307  1  0.98152340  0.99380551  0.87982658  1
  O  O308  1  0.01213651  -0.00299670  0.11366341  1
  O  O309  1  -0.00427670  -0.00129081  0.61297648  1
  O  O310  1  0.00659267  0.51025849  0.14819349  1
  O  O311  1  0.01028983  0.50640026  0.61899453  1
  O  O312  1  0.49136609  0.02129852  0.12733202  1
  O  O313  1  0.51009050  -0.01253488  0.61280219  1
  O  O314  1  0.49561181  0.49399670  0.11584978  1
  O  O315  1  0.51240794  0.49534868  0.62166038  1
  O  O316  1  0.23288426  0.36211958  0.25932316  1
  O  O317  1  0.23997545  0.35626289  0.74622128  1
  O  O318  1  0.24931640  0.88066650  0.24799509  1
  O  O319  1  0.23901990  0.88342177  0.72964333  1
  O  O320  1  0.73536743  0.37067577  0.25930705  1
  O  O321  1  0.76661185  0.38124988  0.73117079  1
  O  O322  1  0.73958947  0.88025500  0.24229579  1
  O  O323  1  0.74620074  0.85153009  0.73977161  1
  O  O324  1  0.26659672  0.14738497  0.27381466  1
  O  O325  1  0.24878044  0.12683206  0.77206162  1
  O  O326  1  0.24852372  0.60646585  0.26346375  1
  O  O327  1  0.27139150  0.62715617  0.74235864  1
  O  O328  1  0.76996332  0.12453576  0.26287690  1
  O  O329  1  0.74503437  0.12923388  0.73835052  1
  O  O330  1  0.76336417  0.63160314  0.25941588  1
  O  O331  1  0.76408056  0.62061645  0.74240567  1
  O  O332  1  0.37193956  0.12211920  0.38408066  1
  O  O333  1  0.40531348  0.16850828  0.85197555  1
  O  O334  1  0.40864436  0.62575271  0.33608005  1
  O  O335  1  0.36270933  0.60702586  0.87201686  1
  O  O336  1  0.87069407  0.11348520  0.37798051  1
  O  O337  1  0.86938482  0.09270462  0.83386379  1
  O  O338  1  0.88172444  0.61204760  0.37223733  1
  O  O339  1  0.86067903  0.63665113  0.85539998  1
  O  O340  1  0.11806731  0.38109626  0.14622299  1
  O  O341  1  0.12638369  0.39004991  0.63150543  1
  O  O342  1  0.13938380  0.88107243  0.12326487  1
  O  O343  1  0.11299078  0.86776974  0.63978468  1
  O  O344  1  0.62926776  0.37571529  0.13880441  1
  O  O345  1  0.63935090  0.39447627  0.62532208  1
  O  O346  1  0.61106699  0.87812306  0.14829220  1
  O  O347  1  0.62842763  0.87929254  0.63014010  1
  O  O348  1  0.11411962  0.25377298  0.25138558  1
  O  O349  1  0.10389627  0.24442374  0.75352058  1
  O  O350  1  0.12145769  0.74726673  0.25524856  1
  O  O351  1  0.11158168  0.72906021  0.74798476  1
  O  O352  1  0.61360554  0.26017554  0.26555952  1
  O  O353  1  0.66457926  0.26964588  0.79175101  1
  O  O354  1  0.61997237  0.76886581  0.26699734  1
  O  O355  1  0.61844003  0.75356067  0.73866437  1
  O  O356  1  0.39121711  0.24529560  0.27068909  1
  O  O357  1  0.40447437  0.21811080  0.78144047  1
  O  O358  1  0.38367792  0.75730012  0.23510170  1
  O  O359  1  0.37819073  0.74503449  0.73807222  1
  O  O360  1  0.88503476  0.23710241  0.25844699  1
  O  O361  1  0.87137085  0.23628852  0.74933475  1
  O  O362  1  0.88470311  0.73816063  0.26325516  1
  O  O363  1  0.88654479  0.73995424  0.73225829  1
  O  O364  1  0.39497732  0.49997686  0.50307055  1
  O  O365  1  0.37911231  0.49666411  0.98285945  1
  O  O366  1  0.38476643  0.99448945  0.49906729  1
  O  O367  1  0.38637972  1.00357923  0.98233495  1
  O  O368  1  0.89081003  0.51143380  0.49024126  1
  O  O369  1  0.83486384  0.44386600  1.01898231  1
  O  O370  1  0.88348292  0.98117543  0.49313622  1
  O  O371  1  0.88581184  0.98393173  0.98943599  1
  O  O372  1  0.10300647  -0.01080703  -0.00437037  1
  O  O373  1  0.11354685  -0.00867894  0.50129110  1
  O  O374  1  0.17074963  0.58377363  -0.04976327  1
  O  O375  1  0.12097022  0.50875550  0.50994122  1
  O  O376  1  0.59944852  -0.06067662  0.00429012  1
  O  O377  1  0.62654427  -0.00299694  0.50874981  1
  O  O378  1  0.60939882  0.51027036  0.02344455  1
  O  O379  1  0.61780632  0.50827583  0.50777136  1
  O  O380  1  0.27250983  0.43113807  0.09035209  1
  O  O381  1  0.35794979  0.37133282  0.64239849  1
  O  O382  1  0.35581504  0.87495812  0.12572253  1
  O  O383  1  0.37787094  0.86904554  0.61326602  1
  O  O384  1  0.86454293  0.36200556  0.15658782  1
  O  O385  1  0.86267566  0.38863296  0.60683060  1
  O  O386  1  0.87621228  0.87125370  0.12529008  1
  O  O387  1  0.88122864  0.85791058  0.60897268  1
  O  O388  1  0.14257443  0.11658680  0.37145405  1
  O  O389  1  0.11985445  0.12586597  0.87486683  1
  O  O390  1  0.12324186  0.61858252  0.39115966  1
  O  O391  1  0.15185660  0.62248832  0.88382441  1
  O  O392  1  0.63827716  0.12922813  0.38070747  1
  O  O393  1  0.61610617  0.13486361  0.87502765  1
  O  O394  1  0.62231645  0.64269696  0.37300051  1
  O  O395  1  0.63802190  0.63566860  0.87369280  1
