# generated using pymatgen
data_V35Zn35O128
_symmetry_space_group_name_H-M   'P 1'
_cell_length_a   16.95171312
_cell_length_b   16.90459954
_cell_length_c   16.90144205
_cell_angle_alpha   90.32862445
_cell_angle_beta   89.64048689
_cell_angle_gamma   90.44727234
_symmetry_Int_Tables_number   1
_chemical_formula_structural   V35Zn35O128
_chemical_formula_sum   'V70 Zn70 O256'
_cell_volume   4842.98848529
_cell_formula_units_Z   2
loop_
 _symmetry_equiv_pos_site_id
 _symmetry_equiv_pos_as_xyz
  1  'x, y, z'
loop_
 _atom_site_type_symbol
 _atom_site_label
 _atom_site_symmetry_multiplicity
 _atom_site_fract_x
 _atom_site_fract_y
 _atom_site_fract_z
 _atom_site_occupancy
  V  V0  1  0.10769211  0.61976568  0.50110005  1
  V  V1  1  -0.00461257  -0.00740160  -0.00174804  1
  V  V2  1  0.37021844  -0.00081755  0.36379329  1
  V  V3  1  0.01316286  0.40663603  0.38241887  1
  V  V4  1  0.88383824  0.61537088  0.23800340  1
  V  V5  1  0.14032089  0.74525839  0.35595497  1
  V  V6  1  0.61040358  0.49728098  0.12090291  1
  V  V7  1  0.48957579  0.62301729  0.13470624  1
  V  V8  1  0.11278666  0.37550318  0.74427230  1
  V  V9  1  0.24990057  0.50592164  0.22425508  1
  V  V10  1  0.00344581  -0.01467025  0.52102785  1
  V  V11  1  0.64056706  0.11796138  0.49018274  1
  V  V12  1  0.76095673  0.86800140  0.61503968  1
  V  V13  1  0.37272275  0.86987001  0.50093323  1
  V  V14  1  0.50971063  0.49262636  0.50001257  1
  V  V15  1  0.36655100  0.50218573  0.37439709  1
  V  V16  1  0.64394970  0.74567799  0.87660706  1
  V  V17  1  0.12817565  0.86921633  0.72560823  1
  V  V18  1  0.38573697  0.48637142  0.88166647  1
  V  V19  1  0.73533708  0.88045184  0.11841163  1
  V  V20  1  0.24492206  -0.00178125  0.73405397  1
  V  V21  1  0.48692993  0.23210576  0.25024187  1
  V  V22  1  0.87412371  0.01799398  0.87036019  1
  V  V23  1  -0.00296448  0.72980696  0.74214161  1
  V  V24  1  0.10962870  0.50902438  0.63192707  1
  V  V25  1  0.13006562  0.11515254  -0.00615495  1
  V  V26  1  0.63492671  0.23550037  0.37280777  1
  V  V27  1  0.50286001  0.12015011  0.10749744  1
  V  V28  1  0.49836732  0.75153311  0.75558869  1
  V  V29  1  0.88310974  0.77118796  0.12578114  1
  V  V30  1  0.11351542  0.26120863  0.87354016  1
  V  V31  1  0.61604777  0.74632697  0.34554425  1
  V  V32  1  0.49562563  0.25956987  0.75780050  1
  V  V33  1  -0.00741642  0.12562933  0.12365515  1
  V  V34  1  0.49399293  0.36374546  0.37798518  1
  V  V35  1  0.50344690  0.61879817  0.62780040  1
  V  V36  1  0.49384641  0.00419915  0.50292215  1
  V  V37  1  0.38678216  0.75957552  0.14234668  1
  V  V38  1  0.37100427  0.22351566  0.63174532  1
  V  V39  1  0.36611826  0.36662478  0.51637640  1
  V  V40  1  0.37760586  0.74684907  0.62354241  1
  V  V41  1  -0.00812994  0.13844489  0.63244211  1
  V  V42  1  0.62530536  0.63761738  0.49780575  1
  V  V43  1  0.36177845  0.25523345  0.12073734  1
  V  V44  1  -0.00797661  0.87605969  0.86660793  1
  V  V45  1  -0.03438796  0.79854730  0.28323221  1
  V  V46  1  0.12380014  0.37733762  0.21999493  1
  V  V47  1  0.86411424  0.52613330  0.87216865  1
  V  V48  1  0.74412242  0.49491006  0.24530163  1
  V  V49  1  0.09572889  0.73701473  0.91630730  1
  V  V50  1  0.26225063  0.49737093  0.74401530  1
  V  V51  1  0.27261215  0.63209994  0.87175166  1
  V  V52  1  0.87555616  0.73090183  0.61387114  1
  V  V53  1  0.25055166  0.88536109  0.13914577  1
  V  V54  1  0.86853568  0.25123743  0.14802808  1
  V  V55  1  0.27687513  0.76568408  -0.00759301  1
  V  V56  1  0.36716377  -0.01116859  0.86692839  1
  V  V57  1  0.62343281  0.36946987  0.24959548  1
  V  V58  1  0.76781175  -0.00841452  0.26591550  1
  V  V59  1  0.75787266  0.00915597  0.74744545  1
  V  V60  1  0.72385828  0.36728292  0.61694656  1
  V  V61  1  0.62688596  0.87339901  0.75190621  1
  V  V62  1  0.25624148  0.27100362  -0.00766400  1
  V  V63  1  0.76171312  0.23000266  -0.01113621  1
  V  V64  1  0.49391946  -0.00714427  -0.01563873  1
  V  V65  1  0.75385724  0.62032272  0.36970189  1
  V  V66  1  0.87881642  0.38861259  0.50881495  1
  V  V67  1  0.25631263  0.72806402  0.49904077  1
  V  V68  1  0.72901770  0.49923793  0.74172937  1
  V  V69  1  0.62450901  -0.00014533  0.62184288  1
  Zn  Zn70  1  0.12112420  0.11318227  0.51372931  1
  Zn  Zn71  1  0.12129644  0.60164716  0.02685028  1
  Zn  Zn72  1  0.62776190  0.62388325  -0.00392598  1
  Zn  Zn73  1  0.25274595  0.12897548  0.86214487  1
  Zn  Zn74  1  0.30574303  0.07471688  0.20449457  1
  Zn  Zn75  1  0.50565932  0.87053229  0.35890048  1
  Zn  Zn76  1  0.13554066  0.16028081  0.21941800  1
  Zn  Zn77  1  0.18495661  0.19046882  0.68586175  1
  Zn  Zn78  1  0.22054648  0.67408245  0.17934881  1
  Zn  Zn79  1  0.19009573  0.68379777  0.69091718  1
  Zn  Zn80  1  0.68501354  0.18213769  0.18122034  1
  Zn  Zn81  1  0.69200938  0.18661616  0.67502759  1
  Zn  Zn82  1  0.69842138  0.68223753  0.16109336  1
  Zn  Zn83  1  0.68903240  0.68461352  0.68668941  1
  Zn  Zn84  1  0.31918843  0.33941408  0.29060568  1
  Zn  Zn85  1  0.31004048  0.31429980  0.80349854  1
  Zn  Zn86  1  0.31216705  0.81377270  0.31864588  1
  Zn  Zn87  1  0.31616790  0.81897825  0.80217540  1
  Zn  Zn88  1  0.85534402  0.26713857  0.36075838  1
  Zn  Zn89  1  0.74951399  0.33855110  0.82735807  1
  Zn  Zn90  1  0.79017733  0.80011443  0.29948924  1
  Zn  Zn91  1  0.81641891  0.81184151  0.79830561  1
  Zn  Zn92  1  0.18894158  0.43667003  0.45116120  1
  Zn  Zn93  1  0.19004320  0.44595957  0.93194522  1
  Zn  Zn94  1  0.18548499  0.92734537  0.44411283  1
  Zn  Zn95  1  0.18250549  0.92360736  0.92955183  1
  Zn  Zn96  1  0.68941891  0.43034468  0.43311868  1
  Zn  Zn97  1  0.72114932  0.44694700  0.96470924  1
  Zn  Zn98  1  0.68683621  0.92545592  0.43353145  1
  Zn  Zn99  1  0.69323104  0.93389541  0.93385129  1
  Zn  Zn100  1  0.31904988  0.06164682  0.04520587  1
  Zn  Zn101  1  0.30088041  0.06039405  0.55551958  1
  Zn  Zn102  1  0.32136735  0.56834628  0.04954917  1
  Zn  Zn103  1  0.32224904  0.55258661  0.56679974  1
  Zn  Zn104  1  0.80875774  0.05638590  0.06558712  1
  Zn  Zn105  1  0.82593267  0.04890704  0.54364491  1
  Zn  Zn106  1  0.80496617  0.57416663  0.05626271  1
  Zn  Zn107  1  0.80210395  0.55036077  0.55596960  1
  Zn  Zn108  1  0.43773974  0.43156973  0.18696701  1
  Zn  Zn109  1  0.45220873  0.43438523  0.69566631  1
  Zn  Zn110  1  0.45351953  0.93615640  0.18442736  1
  Zn  Zn111  1  0.43541329  0.93418371  0.68717872  1
  Zn  Zn112  1  0.91330222  0.40253239  0.24094785  1
  Zn  Zn113  1  0.92775029  0.44599239  0.69833282  1
  Zn  Zn114  1  0.94362924  0.95180347  0.19449852  1
  Zn  Zn115  1  0.93914516  0.93379905  0.69278793  1
  Zn  Zn116  1  0.24266985  0.10628303  0.37673430  1
  Zn  Zn117  1  0.06688084  0.06437950  0.80414481  1
  Zn  Zn118  1  0.07540262  0.56668069  0.30796358  1
  Zn  Zn119  1  0.06994862  0.55661328  0.84412518  1
  Zn  Zn120  1  0.55683111  0.03933530  0.29980006  1
  Zn  Zn121  1  0.56979780  0.06360791  0.81724849  1
  Zn  Zn122  1  0.55400569  0.56003503  0.31185262  1
  Zn  Zn123  1  0.56782318  0.56468946  0.81401886  1
  Zn  Zn124  1  0.43330903  0.18054850  0.44375609  1
  Zn  Zn125  1  0.42667826  0.17891285  0.92641639  1
  Zn  Zn126  1  0.44409143  0.68457572  0.43075623  1
  Zn  Zn127  1  0.45053334  0.67937655  0.94550391  1
  Zn  Zn128  1  0.85926213  0.22984687  0.57827516  1
  Zn  Zn129  1  0.93679306  0.18894470  0.94536997  1
  Zn  Zn130  1  0.88952051  0.86490230  0.46391497  1
  Zn  Zn131  1  0.92106564  0.69246044  0.93454783  1
  Zn  Zn132  1  0.08334355  0.28475400  0.08580973  1
  Zn  Zn133  1  0.04817047  0.31490702  0.56286578  1
  Zn  Zn134  1  0.09115833  0.76473521  0.11986719  1
  Zn  Zn135  1  0.06047609  0.79847047  0.55831973  1
  Zn  Zn136  1  0.56383568  0.29823960  0.07251294  1
  Zn  Zn137  1  0.54861384  0.29085227  0.56065823  1
  Zn  Zn138  1  0.56085572  0.81055203  0.06213896  1
  Zn  Zn139  1  0.55935335  0.81694821  0.56178001  1
  O  O140  1  0.11428564  0.13782552  0.09694135  1
  O  O141  1  0.10246205  0.14729611  0.62352770  1
  O  O142  1  0.12566461  0.65550055  0.12214347  1
  O  O143  1  0.12643261  0.61514103  0.62077931  1
  O  O144  1  0.60156020  0.13696673  0.11477433  1
  O  O145  1  0.63495708  0.10921185  0.60368736  1
  O  O146  1  0.60718487  0.60318908  0.13996930  1
  O  O147  1  0.61686776  0.63009440  0.60727463  1
  O  O148  1  0.38266952  0.37227170  0.38841370  1
  O  O149  1  0.37304127  0.38704389  0.86746587  1
  O  O150  1  0.38454184  0.88142444  0.38216880  1
  O  O151  1  0.38271685  0.88828051  0.86371823  1
  O  O152  1  0.90918674  0.37256656  0.35419785  1
  O  O153  1  0.90786762  0.36998865  0.88295681  1
  O  O154  1  0.89044531  0.83278608  0.35227516  1
  O  O155  1  0.88814767  0.88176437  0.86058081  1
  O  O156  1  0.26919254  -0.01713248  0.38126547  1
  O  O157  1  0.25726478  -0.01080825  0.86724917  1
  O  O158  1  0.26718136  0.49602335  0.38840108  1
  O  O159  1  0.26639299  0.51398901  0.86627557  1
  O  O160  1  0.75662944  -0.01525216  0.36730675  1
  O  O161  1  0.76463066  -0.00497951  0.86017624  1
  O  O162  1  0.72896077  0.51007196  0.35775582  1
  O  O163  1  0.74692714  0.45613541  0.85285309  1
  O  O164  1  0.26028437  0.50565775  0.12401786  1
  O  O165  1  0.24518184  0.50977690  0.64174259  1
  O  O166  1  0.26677818  0.98916972  0.12357936  1
  O  O167  1  0.24742378  0.99316716  0.63499308  1
  O  O168  1  0.72508395  0.49886360  0.14133252  1
  O  O169  1  0.74379556  0.48361209  0.63175493  1
  O  O170  1  0.75908704  0.98527172  0.13680621  1
  O  O171  1  0.74614001  0.98892768  0.63071897  1
  O  O172  1  0.02732202  0.40068415  0.26321282  1
  O  O173  1  0.01446746  0.38486557  0.75325399  1
  O  O174  1  0.00926597  0.88705602  0.26274780  1
  O  O175  1  0.01474787  0.87126768  0.75258589  1
  O  O176  1  0.50190828  0.35775555  0.26154669  1
  O  O177  1  0.51358804  0.35902179  0.75088120  1
  O  O178  1  0.53015181  0.93097416  0.26345157  1
  O  O179  1  0.51356601  0.85918355  0.73757011  1
  O  O180  1  0.49834009  0.12858180  0.23871622  1
  O  O181  1  0.54672659  0.14958744  0.74365223  1
  O  O182  1  0.49083109  0.61796902  0.23623164  1
  O  O183  1  0.51357805  0.63653665  0.73238716  1
  O  O184  1  1.02583236  0.11471091  0.21794505  1
  O  O185  1  0.99638777  0.11580882  0.73190917  1
  O  O186  1  0.98010718  0.60347063  0.25228265  1
  O  O187  1  1.01127760  0.63452682  0.76006881  1
  O  O188  1  0.36096782  0.24438568  0.00230847  1
  O  O189  1  0.38401814  0.25694838  0.51881884  1
  O  O190  1  0.37839677  0.75232062  0.00349418  1
  O  O191  1  0.37302731  0.74861303  0.50175047  1
  O  O192  1  0.86376644  0.24921808  0.00786838  1
  O  O193  1  0.86495520  0.28355121  0.47650668  1
  O  O194  1  0.88935067  0.74771925  0.02893967  1
  O  O195  1  0.87782114  0.76021649  0.51881365  1
  O  O196  1  0.10081799  0.23763537  0.48079496  1
  O  O197  1  0.13953508  0.24697041  0.98823244  1
  O  O198  1  0.14478512  0.73086362  0.51225271  1
  O  O199  1  0.15815960  0.75738577  0.99590840  1
  O  O200  1  0.61857850  0.22783749  0.48602989  1
  O  O201  1  0.65656800  0.28104541  1.00429775  1
  O  O202  1  0.62128254  0.73782021  0.49485190  1
  O  O203  1  0.61883369  0.76319575  0.97382456  1
  O  O204  1  0.48452276  0.23634128  0.12755178  1
  O  O205  1  0.48244567  0.24571212  0.63935681  1
  O  O206  1  0.49350225  0.74326585  0.12942385  1
  O  O207  1  0.49788646  0.73868807  0.62698865  1
  O  O208  1  0.98408707  0.23413642  0.11368447  1
  O  O209  1  0.97729121  0.24250804  0.61978818  1
  O  O210  1  0.98598280  0.76554723  0.16841568  1
  O  O211  1  0.98870331  0.74082190  0.63161742  1
  O  O212  1  0.01369334  0.26242769  0.37811081  1
  O  O213  1  0.01610706  0.25101824  0.88693821  1
  O  O214  1  0.02818764  0.74237606  0.33908977  1
  O  O215  1  -0.00819228  0.75805370  0.85621102  1
  O  O216  1  0.49585159  0.24707654  0.36834786  1
  O  O217  1  0.48695838  0.24431093  0.85802916  1
  O  O218  1  0.51014464  0.74848240  0.36398721  1
  O  O219  1  0.50261319  0.74142625  0.85592447  1
  O  O220  1  0.22853275  0.10871697  0.48751824  1
  O  O221  1  0.23459969  0.11992547  0.99181812  1
  O  O222  1  0.26026121  0.62787627  0.50206227  1
  O  O223  1  0.25488945  0.63717463  0.98112166  1
  O  O224  1  0.73912170  0.10909042  0.48768217  1
  O  O225  1  0.75185433  0.12972150  1.00108825  1
  O  O226  1  0.73053307  0.61226868  0.48280636  1
  O  O227  1  0.72280603  0.64870984  1.05056549  1
  O  O228  1  0.25013916  0.36925676  -0.00748285  1
  O  O229  1  0.26759541  0.37477693  0.50667192  1
  O  O230  1  0.26290205  0.86719996  -0.00210975  1
  O  O231  1  0.26783048  0.85959466  0.50047565  1
  O  O232  1  0.71960866  0.33866014  0.01755620  1
  O  O233  1  0.75373009  0.38195903  0.51247375  1
  O  O234  1  0.74864312  0.88498751  0.01638437  1
  O  O235  1  0.75687391  0.87808146  0.51311493  1
  O  O236  1  0.14389295  0.50356080  0.24167597  1
  O  O237  1  0.13016038  0.49520023  0.74631306  1
  O  O238  1  0.22461340  1.11910525  0.26815406  1
  O  O239  1  0.13398466  0.97783933  0.75874141  1
  O  O240  1  0.61893891  0.48619626  0.24670177  1
  O  O241  1  0.62863356  0.49172455  0.75161010  1
  O  O242  1  0.66163701  1.03703076  0.24347099  1
  O  O243  1  0.63312584  0.99245698  0.74138251  1
  O  O244  1  0.37789543  0.00097426  0.26183307  1
  O  O245  1  0.35673467  -0.01026620  0.75033077  1
  O  O246  1  0.35987929  0.47069354  0.26570646  1
  O  O247  1  0.36470395  0.49468125  0.74892603  1
  O  O248  1  0.86704359  0.01067715  0.25362707  1
  O  O249  1  0.86472838  0.00025603  0.75384154  1
  O  O250  1  0.85118137  0.50280928  0.24208339  1
  O  O251  1  0.85526165  0.49851437  0.76628615  1
  O  O252  1  0.11386121  0.38359448  0.38688547  1
  O  O253  1  0.12650790  0.36636259  0.86811915  1
  O  O254  1  0.13750834  0.84146634  0.38418506  1
  O  O255  1  0.10754360  0.84863667  0.87862746  1
  O  O256  1  0.61374965  0.35407358  0.37289175  1
  O  O257  1  0.55140806  0.37926175  0.92089483  1
  O  O258  1  0.62852227  0.84719368  0.37492894  1
  O  O259  1  0.63100476  0.86816254  0.85755196  1
  O  O260  1  0.37459969  0.13246459  0.12417283  1
  O  O261  1  0.37232257  0.12413159  0.62093452  1
  O  O262  1  0.38493091  0.63872464  0.11817145  1
  O  O263  1  0.39609193  0.63111886  0.61656903  1
  O  O264  1  0.88891878  0.12283906  0.12341610  1
  O  O265  1  0.88087457  0.12191698  0.61227571  1
  O  O266  1  0.87352938  0.62281531  0.13595378  1
  O  O267  1  0.85969943  0.63241997  0.61130651  1
  O  O268  1  0.25765751  0.25191094  0.10521790  1
  O  O269  1  0.27169639  0.24714871  0.63834821  1
  O  O270  1  0.27397294  0.76024158  0.11164187  1
  O  O271  1  0.26927102  0.73553819  0.61722293  1
  O  O272  1  0.76625284  0.23403560  0.12308114  1
  O  O273  1  0.75517737  0.26203951  0.62040047  1
  O  O274  1  0.77116981  0.77426917  0.14250245  1
  O  O275  1  0.76079391  0.76009148  0.63308172  1
  O  O276  1  0.23312679  0.27934067  0.35830277  1
  O  O277  1  0.24654117  0.24906437  0.88252134  1
  O  O278  1  0.25375726  0.74125319  0.39268313  1
  O  O279  1  0.27492264  0.74495493  0.88113722  1
  O  O280  1  0.73205342  0.24339940  0.36578405  1
  O  O281  1  0.75552752  0.24676208  0.88732551  1
  O  O282  1  0.73085516  0.72630166  0.36553460  1
  O  O283  1  0.74280429  0.75577861  0.86667829  1
  O  O284  1  0.00835274  0.11400149  -0.00100022  1
  O  O285  1  0.00357700  0.09951670  0.52133759  1
  O  O286  1  0.03033069  0.68108411  -0.02380911  1
  O  O287  1  0.01394358  0.62910068  0.50637896  1
  O  O288  1  0.49085772  0.12029660  0.00332302  1
  O  O289  1  0.50477035  0.10696008  0.50525018  1
  O  O290  1  0.51522266  0.62982729  0.02193211  1
  O  O291  1  0.51102682  0.61536631  0.50441319  1
  O  O292  1  0.49557458  0.37423288  0.49315696  1
  O  O293  1  0.50705627  0.36153842  0.97722549  1
  O  O294  1  0.49310153  0.88187220  0.49400451  1
  O  O295  1  0.51463104  0.89776845  1.00063553  1
  O  O296  1  0.98921394  0.38568199  0.49157717  1
  O  O297  1  0.98010833  0.42165223  1.02047306  1
  O  O298  1  1.00223228  0.87729368  0.50510892  1
  O  O299  1  1.00043888  0.89222852  0.98375452  1
  O  O300  1  0.49299542  0.48121984  0.37985955  1
  O  O301  1  0.48277752  0.50786308  0.85841375  1
  O  O302  1  0.48678696  1.00026774  0.39372563  1
  O  O303  1  0.48590624  1.00664693  0.87471569  1
  O  O304  1  1.00996623  0.50572321  0.38408461  1
  O  O305  1  0.96354306  0.51960925  0.87895627  1
  O  O306  1  0.94132126  1.10093040  0.35778249  1
  O  O307  1  0.98961174  0.99697928  0.87142634  1
  O  O308  1  -0.00569230  0.00595164  0.10298561  1
  O  O309  1  0.00495142  -0.00580581  0.62352619  1
  O  O310  1  -0.01782790  0.48094793  0.06205676  1
  O  O311  1  0.01156004  0.50565584  0.63808752  1
  O  O312  1  0.49066686  0.01376429  0.10389488  1
  O  O313  1  0.51456150  -0.01168237  0.61654582  1
  O  O314  1  0.49937179  0.50550326  0.12501273  1
  O  O315  1  0.49887715  0.51242115  0.61830458  1
  O  O316  1  0.23054542  0.38999924  0.24294549  1
  O  O317  1  0.23737627  0.39403071  0.75637023  1
  O  O318  1  0.25918500  0.87635542  0.23811297  1
  O  O319  1  0.23370216  0.87345432  0.74680822  1
  O  O320  1  0.72953258  0.38574479  0.25813864  1
  O  O321  1  0.74092970  0.37585546  0.72321737  1
  O  O322  1  0.74997873  0.88823066  0.24295621  1
  O  O323  1  0.74245127  0.88370434  0.73793835  1
  O  O324  1  0.26141633  0.23490188  0.41079970  1
  O  O325  1  0.23017527  0.10190679  0.74951115  1
  O  O326  1  0.26859629  0.60208064  0.25133566  1
  O  O327  1  0.24915489  0.61696240  0.76467438  1
  O  O328  1  0.71902904  0.09940279  0.25709709  1
  O  O329  1  0.74287036  0.10678033  0.74175014  1
  O  O330  1  0.74712563  0.61077273  0.25280329  1
  O  O331  1  0.73918838  0.60081198  0.74196981  1
  O  O332  1  0.37034196  0.10259304  0.38620433  1
  O  O333  1  0.36333497  0.10247180  0.87120546  1
  O  O334  1  0.38918681  0.59955717  0.37680238  1
  O  O335  1  0.37363260  0.62165286  0.87269956  1
  O  O336  1  0.88453299  0.13311575  0.38974010  1
  O  O337  1  0.88205827  0.11592538  0.86770851  1
  O  O338  1  0.85230308  0.62106452  0.36034946  1
  O  O339  1  0.84875043  0.62615665  0.87966675  1
  O  O340  1  0.11274664  0.39000688  0.12002228  1
  O  O341  1  0.11866523  0.38439398  0.63549226  1
  O  O342  1  0.15290388  0.86425040  0.12256029  1
  O  O343  1  0.12568133  0.87301968  0.62731198  1
  O  O344  1  0.60250862  0.38334909  0.14079492  1
  O  O345  1  0.62543479  0.36143851  0.61034494  1
  O  O346  1  0.63638034  0.86721166  0.12714390  1
  O  O347  1  0.63751325  0.87942925  0.62747033  1
  O  O348  1  0.12081067  0.27452140  0.22325596  1
  O  O349  1  0.12966087  0.26518194  0.76191855  1
  O  O350  1  0.16542782  0.74256992  0.26007476  1
  O  O351  1  0.11079128  0.75903308  0.73466914  1
  O  O352  1  0.61206870  0.24795829  0.25841075  1
  O  O353  1  0.60337467  0.21572547  0.74963328  1
  O  O354  1  0.62809374  0.73774110  0.24743715  1
  O  O355  1  0.61979498  0.75417780  0.75504262  1
  O  O356  1  0.37572471  0.25141661  0.23634610  1
  O  O357  1  0.38347209  0.24725896  0.74241189  1
  O  O358  1  0.37243213  0.74962319  0.24059899  1
  O  O359  1  0.39210810  0.75428950  0.73899695  1
  O  O360  1  0.86801766  0.23416741  0.24779377  1
  O  O361  1  0.88612740  0.32684222  0.82695192  1
  O  O362  1  0.87353968  0.72893091  0.24497248  1
  O  O363  1  0.88972616  0.74760502  0.73560067  1
  O  O364  1  0.38789374  0.48598519  0.49314690  1
  O  O365  1  0.37915505  0.49950539  0.98179787  1
  O  O366  1  0.38494943  0.98806480  0.50921344  1
  O  O367  1  0.38489683  0.99246498  0.98200645  1
  O  O368  1  0.86210313  0.48499281  0.48272122  1
  O  O369  1  0.82681128  0.49810824  0.97554532  1
  O  O370  1  0.89984795  0.98283871  0.48632913  1
  O  O371  1  0.88538663  1.00602659  0.98022957  1
  O  O372  1  0.11240797  0.00905930  -0.01760884  1
  O  O373  1  0.10082783  -0.00470689  0.47534430  1
  O  O374  1  0.11505859  0.52534619  -0.05222584  1
  O  O375  1  0.12939618  0.51050336  0.51984644  1
  O  O376  1  0.60997150  0.01660371  -0.03330263  1
  O  O377  1  0.61555411  0.00159803  0.49862555  1
  O  O378  1  0.62930436  0.49380922  0.01914687  1
  O  O379  1  0.61124849  0.50164075  0.48903287  1
  O  O380  1  0.38406625  0.35372358  0.11968705  1
  O  O381  1  0.38348989  0.38249556  0.61458175  1
  O  O382  1  0.38088369  0.86461897  0.12990820  1
  O  O383  1  0.38716949  0.85625253  0.61409693  1
  O  O384  1  0.87936322  0.35201687  0.14495261  1
  O  O385  1  0.88093435  0.38327130  0.61115476  1
  O  O386  1  0.88162785  0.87297553  0.13000141  1
  O  O387  1  0.86200192  0.87358045  0.63171350  1
  O  O388  1  0.07624447  0.22601900  0.40131083  1
  O  O389  1  0.12514701  0.13838821  0.87998145  1
  O  O390  1  0.12696807  0.63476698  0.39230367  1
  O  O391  1  0.14156372  0.66263471  0.86450065  1
  O  O392  1  0.61508299  0.12631853  0.38043727  1
  O  O393  1  0.62570252  0.08126879  0.91762236  1
  O  O394  1  0.61690384  0.63231886  0.38074009  1
  O  O395  1  0.62795792  0.63993499  0.87686432  1
