# generated using pymatgen
data_V35Zn35O128
_symmetry_space_group_name_H-M   'P 1'
_cell_length_a   16.80901814
_cell_length_b   16.84240729
_cell_length_c   16.81538688
_cell_angle_alpha   90.05338910
_cell_angle_beta   89.85605125
_cell_angle_gamma   90.16419427
_symmetry_Int_Tables_number   1
_chemical_formula_structural   V35Zn35O128
_chemical_formula_sum   'V70 Zn70 O256'
_cell_volume   4760.47222242
_cell_formula_units_Z   2
loop_
 _symmetry_equiv_pos_site_id
 _symmetry_equiv_pos_as_xyz
  1  'x, y, z'
loop_
 _atom_site_type_symbol
 _atom_site_label
 _atom_site_symmetry_multiplicity
 _atom_site_fract_x
 _atom_site_fract_y
 _atom_site_fract_z
 _atom_site_occupancy
  V  V0  1  0.01271943  0.36384860  0.36963362  1
  V  V1  1  0.25931864  0.51564566  0.76694680  1
  V  V2  1  0.13902395  0.49210938  0.62294293  1
  V  V3  1  0.11597642  0.12995229  0.49676192  1
  V  V4  1  0.24809812  0.64837534  0.35970319  1
  V  V5  1  0.89073684  0.00370612  0.37988660  1
  V  V6  1  0.25653493  0.88553169  0.61698395  1
  V  V7  1  0.27003071  0.26478953  -0.00773020  1
  V  V8  1  0.49574590  0.89493138  0.38086556  1
  V  V9  1  0.61950744  0.37707308  0.24404949  1
  V  V10  1  0.26314554  0.11141576  0.38062598  1
  V  V11  1  0.60875298  0.62035231  0.50031532  1
  V  V12  1  0.88743012  0.49903925  0.88397456  1
  V  V13  1  0.37047789  0.90002538  -0.00202873  1
  V  V14  1  0.25330382  0.26117283  0.50099297  1
  V  V15  1  0.74695389  0.01164490  0.76068117  1
  V  V16  1  -0.00014195  0.23324365  0.24788389  1
  V  V17  1  0.75787062  0.74392646  0.49753118  1
  V  V18  1  0.00063900  0.74019370  0.26777471  1
  V  V19  1  0.49155011  0.75797434  0.75083267  1
  V  V20  1  0.50226193  0.62442544  0.13328582  1
  V  V21  1  0.50115421  0.23726373  0.25117262  1
  V  V22  1  0.87303987  0.37822056  0.49613345  1
  V  V23  1  0.49928765  0.38257249  0.38564057  1
  V  V24  1  0.11328678  0.88021393  0.26351676  1
  V  V25  1  0.38266696  0.75450885  0.13339387  1
  V  V26  1  0.13021253  0.89033779  0.75510635  1
  V  V27  1  -0.00700232  0.01680782  0.01283709  1
  V  V28  1  0.74170912  0.23634651  -0.01003893  1
  V  V29  1  0.35873697  0.49646806  0.37030775  1
  V  V30  1  0.73399836  0.38153740  0.11737640  1
  V  V31  1  -0.00053882  0.62765618  0.62393535  1
  V  V32  1  0.87712014  0.62674462  0.74551124  1
  V  V33  1  0.10769395  0.01023991  0.62414031  1
  V  V34  1  -0.01030828  0.88160074  0.88481778  1
  V  V35  1  0.11734117  0.25709776  0.88759424  1
  V  V36  1  0.63080790  0.23477131  0.37971289  1
  V  V37  1  0.88847516  0.23921943  0.63772811  1
  V  V38  1  0.25732459  0.74708055  -0.00980678  1
  V  V39  1  0.13342278  0.63791450  0.49392685  1
  V  V40  1  0.49298285  0.10835308  0.11430368  1
  V  V41  1  0.12633296  0.74190895  0.86916350  1
  V  V42  1  0.88421623  0.87796218  0.50316232  1
  V  V43  1  0.25346446  0.12037153  0.86825380  1
  V  V44  1  0.86882840  0.23858088  0.13501403  1
  V  V45  1  0.88329291  0.37789028  0.00150846  1
  V  V46  1  0.75729012  0.77035645  0.00704589  1
  V  V47  1  0.11284154  0.61732002  0.00844672  1
  V  V48  1  0.37153061  0.24935360  0.62520735  1
  V  V49  1  0.61807738  0.01726932  0.61189886  1
  V  V50  1  0.61602957  0.25223437  0.86148574  1
  V  V51  1  0.38340007  0.26469270  0.12322371  1
  V  V52  1  0.75097443  0.37654954  0.62946739  1
  V  V53  1  0.62872344  0.86775740  0.25095190  1
  V  V54  1  0.12167944  0.37438551  0.75975361  1
  V  V55  1  0.61543096  0.49928606  0.62243946  1
  V  V56  1  0.61546829  0.61753008  0.00092148  1
  V  V57  1  0.63774369  -0.00164387  0.12090968  1
  V  V58  1  0.74518867  0.62822259  0.88610965  1
  V  V59  1  0.74531777  0.49909775  0.75164376  1
  V  V60  1  0.49306346  0.21934754  0.74458040  1
  V  V61  1  0.73932249  0.87012326  0.63111891  1
  V  V62  1  0.74826399  0.23559764  0.50064290  1
  V  V63  1  0.88271180  0.75799154  0.13101127  1
  V  V64  1  0.39479364  0.00130565  0.85847253  1
  V  V65  1  0.61506686  0.74522077  0.37635300  1
  V  V66  1  0.75373328  0.01082677  0.26693600  1
  V  V67  1  0.23624938  0.88157872  0.12661431  1
  V  V68  1  0.00200735  0.49786401  0.49355605  1
  V  V69  1  0.37106779  0.73317899  0.61996869  1
  Zn  Zn70  1  0.11403494  0.03287042  0.13024382  1
  Zn  Zn71  1  0.36784755  0.09634034  0.25237314  1
  Zn  Zn72  1  0.62704185  0.10421040  -0.01877956  1
  Zn  Zn73  1  0.36963295  0.86344555  0.49071688  1
  Zn  Zn74  1  -0.00430269  0.75755053  0.74599188  1
  Zn  Zn75  1  0.80987726  0.55271018  0.30367717  1
  Zn  Zn76  1  0.20397818  0.21158799  0.20241046  1
  Zn  Zn77  1  0.18567076  0.19154737  0.69114542  1
  Zn  Zn78  1  0.18204195  0.69743077  0.18318477  1
  Zn  Zn79  1  0.19173868  0.69239524  0.68152834  1
  Zn  Zn80  1  0.68871635  0.18373866  0.18463418  1
  Zn  Zn81  1  0.69032200  0.18289383  0.68850376  1
  Zn  Zn82  1  0.72131171  0.66972107  0.16598188  1
  Zn  Zn83  1  0.68629912  0.68586792  0.68346852  1
  Zn  Zn84  1  0.31665329  0.30957991  0.31456909  1
  Zn  Zn85  1  0.30371824  0.31572225  0.79406785  1
  Zn  Zn86  1  0.31101727  0.83460056  0.30634016  1
  Zn  Zn87  1  0.31559837  0.81798865  0.80815380  1
  Zn  Zn88  1  0.79363635  0.34631272  0.32456230  1
  Zn  Zn89  1  0.81325813  0.31362634  0.81547407  1
  Zn  Zn90  1  0.81417552  0.81565832  0.31621681  1
  Zn  Zn91  1  0.80879030  0.81233226  0.81369633  1
  Zn  Zn92  1  0.18599047  0.43525367  0.43341724  1
  Zn  Zn93  1  0.19735556  0.44391052  0.94204586  1
  Zn  Zn94  1  0.17850250  0.94269431  0.44262647  1
  Zn  Zn95  1  0.17793631  0.94264818  0.94819650  1
  Zn  Zn96  1  0.68191106  0.44017723  0.43053188  1
  Zn  Zn97  1  0.67947486  0.43604657  0.93660420  1
  Zn  Zn98  1  0.69028370  0.93135661  0.44216453  1
  Zn  Zn99  1  0.65490442  0.91388601  0.92277206  1
  Zn  Zn100  1  0.27685781  0.08916747  0.07644181  1
  Zn  Zn101  1  0.29470522  0.07998098  0.59079243  1
  Zn  Zn102  1  0.32028217  0.57594221  0.04367752  1
  Zn  Zn103  1  0.31842215  0.55884752  0.54601800  1
  Zn  Zn104  1  0.81525946  0.05195288  0.06002880  1
  Zn  Zn105  1  0.81591170  0.05471135  0.57071862  1
  Zn  Zn106  1  0.84654191  0.54754404  0.10530077  1
  Zn  Zn107  1  0.81176314  0.56373804  0.55550005  1
  Zn  Zn108  1  0.38294840  0.47257286  0.16708283  1
  Zn  Zn109  1  0.41802856  0.44877111  0.66985310  1
  Zn  Zn110  1  0.44132446  0.92945940  0.18988905  1
  Zn  Zn111  1  0.44941433  0.93378010  0.68708226  1
  Zn  Zn112  1  0.91320829  0.41321168  0.20605019  1
  Zn  Zn113  1  0.93941978  0.43797829  0.68617421  1
  Zn  Zn114  1  0.93543304  0.93730332  0.18830239  1
  Zn  Zn115  1  0.92849641  0.93534924  0.69359235  1
  Zn  Zn116  1  0.06870686  0.06286514  0.31357981  1
  Zn  Zn117  1  0.07163701  0.06295700  0.83496812  1
  Zn  Zn118  1  0.06492154  0.55806316  0.30801633  1
  Zn  Zn119  1  0.06575997  0.55939820  0.80953686  1
  Zn  Zn120  1  0.56768196  0.06035140  0.30865576  1
  Zn  Zn121  1  0.57856322  0.05490872  0.80590439  1
  Zn  Zn122  1  0.61104177  0.58336488  0.28101074  1
  Zn  Zn123  1  0.56074492  0.58982068  0.79983678  1
  Zn  Zn124  1  0.43187585  0.19439107  0.43647312  1
  Zn  Zn125  1  0.43967450  0.18050628  0.93327620  1
  Zn  Zn126  1  0.42886052  0.68333478  0.43288439  1
  Zn  Zn127  1  0.48165122  0.75844045  0.95114755  1
  Zn  Zn128  1  0.92956543  0.18913072  0.43654482  1
  Zn  Zn129  1  0.93566160  0.19376917  0.94225892  1
  Zn  Zn130  1  0.93141737  0.67665958  0.42917807  1
  Zn  Zn131  1  0.93630594  0.69231671  0.93990286  1
  Zn  Zn132  1  0.06602854  0.30917432  0.07305860  1
  Zn  Zn133  1  0.06523767  0.31075305  0.56509256  1
  Zn  Zn134  1  0.05892775  0.80346253  0.06032135  1
  Zn  Zn135  1  0.06676615  0.81447772  0.56574332  1
  Zn  Zn136  1  0.55456533  0.30877770  0.05382922  1
  Zn  Zn137  1  0.56352332  0.30927203  0.56841784  1
  Zn  Zn138  1  0.57964209  0.81295118  0.06136141  1
  Zn  Zn139  1  0.55578383  0.81384188  0.56135551  1
  O  O140  1  0.17871301  0.12575332  0.13014729  1
  O  O141  1  0.12719154  0.11566938  0.62365050  1
  O  O142  1  0.12782837  0.63156342  0.10742075  1
  O  O143  1  0.12133893  0.61542999  0.61227807  1
  O  O144  1  0.61668115  0.10859711  0.12523369  1
  O  O145  1  0.62615482  0.11964361  0.61855456  1
  O  O146  1  0.61617891  0.62805624  0.11095186  1
  O  O147  1  0.62923207  0.61038403  0.61007711  1
  O  O148  1  0.38885232  0.38047331  0.36844091  1
  O  O149  1  0.40054385  0.38344767  0.85215596  1
  O  O150  1  0.38929893  0.87586751  0.37542421  1
  O  O151  1  0.36021005  0.89626855  0.88518502  1
  O  O152  1  0.88745075  0.36713922  0.39345328  1
  O  O153  1  0.86845294  0.38736649  0.88970375  1
  O  O154  1  0.86768840  0.88493658  0.39334162  1
  O  O155  1  0.89206660  0.86717425  0.86803901  1
  O  O156  1  0.25542992  0.01085961  0.39027981  1
  O  O157  1  0.23542377  0.02023250  0.88097173  1
  O  O158  1  0.25557880  0.49203205  0.36434906  1
  O  O159  1  0.25701691  0.51005278  0.86797693  1
  O  O160  1  0.74760798  0.00206082  0.36912603  1
  O  O161  1  0.71314770  -0.01566215  0.85668705  1
  O  O162  1  0.76053144  0.45707225  0.35323964  1
  O  O163  1  0.75266452  0.50591463  0.86690929  1
  O  O164  1  0.29299114  0.48693652  0.10211308  1
  O  O165  1  0.23912636  0.50275642  0.61594830  1
  O  O166  1  0.24812388  0.98082572  0.11720097  1
  O  O167  1  0.23251328  0.99158580  0.62831975  1
  O  O168  1  0.74140394  0.47967653  0.11184948  1
  O  O169  1  0.75036293  0.49371038  0.63222410  1
  O  O170  1  0.74150317  1.00110751  0.13698550  1
  O  O171  1  0.74308035  0.98787928  0.63309187  1
  O  O172  1  -0.00434020  0.36861110  0.26552683  1
  O  O173  1  0.02077218  0.39039926  0.75144454  1
  O  O174  1  0.00836004  0.86687897  0.24830083  1
  O  O175  1  0.01064407  0.87514594  0.75756987  1
  O  O176  1  0.51168481  0.35031190  0.25672318  1
  O  O177  1  0.45751776  0.39733464  0.80652365  1
  O  O178  1  0.51727988  0.87930639  0.26573350  1
  O  O179  1  0.50504186  0.85884488  0.75390443  1
  O  O180  1  0.49888753  0.12618873  0.24106911  1
  O  O181  1  0.49705592  0.12174396  0.74541049  1
  O  O182  1  0.51747309  0.63358667  0.23223994  1
  O  O183  1  0.50480171  0.64183010  0.71866054  1
  O  O184  1  0.99407841  0.13355133  0.25710724  1
  O  O185  1  0.96134449  0.11915793  0.78765488  1
  O  O186  1  1.00793023  0.63933446  0.25313333  1
  O  O187  1  0.99344742  0.61932927  0.74069849  1
  O  O188  1  0.38125586  0.25111084  0.00670809  1
  O  O189  1  0.36878191  0.24851863  0.51376729  1
  O  O190  1  0.36204308  0.76116313  -0.00857316  1
  O  O191  1  0.37326909  0.74884508  0.51262741  1
  O  O192  1  0.86173464  0.26019794  0.00100452  1
  O  O193  1  0.86424561  0.25859393  0.50940605  1
  O  O194  1  0.86480792  0.74846162  0.01079938  1
  O  O195  1  0.86320594  0.75547172  0.49248895  1
  O  O196  1  0.14075190  0.23826105  0.51489952  1
  O  O197  1  0.14189008  0.26693818  0.99313610  1
  O  O198  1  0.12254636  0.73665746  0.50103777  1
  O  O199  1  0.13375848  0.74632109  0.98558818  1
  O  O200  1  0.63708633  0.25262562  0.49171102  1
  O  O201  1  0.63422960  0.24083667  0.99385025  1
  O  O202  1  0.62602677  0.73842659  0.49505557  1
  O  O203  1  0.65310828  0.73097421  1.00278387  1
  O  O204  1  0.49857152  0.23141215  0.12950608  1
  O  O205  1  0.49776440  0.25024728  0.64062102  1
  O  O206  1  0.48880244  0.75624855  0.11549997  1
  O  O207  1  0.47682252  0.76205958  0.62759958  1
  O  O208  1  0.97945707  0.25603028  0.13351534  1
  O  O209  1  0.98827274  0.25307183  0.62643322  1
  O  O210  1  0.98547667  0.74413973  0.12677971  1
  O  O211  1  1.00895707  0.73215033  0.62849827  1
  O  O212  1  -0.00870932  0.25542701  0.36218367  1
  O  O213  1  0.01767345  0.25578907  0.88789920  1
  O  O214  1  -0.00366493  0.74875733  0.36835815  1
  O  O215  1  0.01408109  0.75978552  0.87336206  1
  O  O216  1  0.51158285  0.24652026  0.37141070  1
  O  O217  1  0.50475424  0.24409698  0.85779451  1
  O  O218  1  0.51194247  0.75145690  0.37881329  1
  O  O219  1  0.46544039  0.72819314  0.84564692  1
  O  O220  1  0.24331838  0.13076519  0.49785244  1
  O  O221  1  0.25764824  0.15016274  0.98009418  1
  O  O222  1  0.23654859  0.62486881  0.49153952  1
  O  O223  1  0.24418458  0.64394499  0.99195180  1
  O  O224  1  0.75546951  0.13846706  0.50382255  1
  O  O225  1  0.75192823  0.13352486  0.99843849  1
  O  O226  1  0.74376057  0.63915606  0.50304423  1
  O  O227  1  0.74597230  0.61612908  0.98727684  1
  O  O228  1  0.26707107  0.36575822  -0.01320437  1
  O  O229  1  0.24443968  0.36059072  0.49938465  1
  O  O230  1  0.25027063  0.86789258  0.00643125  1
  O  O231  1  0.24691900  0.88033845  0.51250151  1
  O  O232  1  0.74567481  0.36202579  0.00597898  1
  O  O233  1  0.76323441  0.37466248  0.50781042  1
  O  O234  1  0.74929025  0.86535935  -0.01962492  1
  O  O235  1  0.75649171  0.86258925  0.51025209  1
  O  O236  1  0.13040436  0.48886793  0.22710416  1
  O  O237  1  0.13414721  0.49889651  0.73738251  1
  O  O238  1  0.11519832  0.98546504  0.24067083  1
  O  O239  1  0.11951647  0.99548045  0.74708131  1
  O  O240  1  0.61069513  0.47437805  0.24401642  1
  O  O241  1  0.63536432  0.51142203  0.73452284  1
  O  O242  1  0.63701820  0.99207122  0.24575188  1
  O  O243  1  0.63720712  0.99852925  0.72676718  1
  O  O244  1  0.36277375  -0.01618399  0.24635351  1
  O  O245  1  0.37874823  -0.00831736  0.76038509  1
  O  O246  1  0.39317840  0.50608516  0.27351856  1
  O  O247  1  0.35869491  0.50831521  0.74120765  1
  O  O248  1  0.86215319  -0.01154473  0.26692629  1
  O  O249  1  0.84727934  -0.01357568  0.75405754  1
  O  O250  1  0.87607102  0.51479008  0.21265660  1
  O  O251  1  0.86884505  0.50367445  0.76324359  1
  O  O252  1  0.11187390  0.36244950  0.38095899  1
  O  O253  1  0.12997167  0.37137136  0.86926743  1
  O  O254  1  0.12563809  0.88119333  0.36323641  1
  O  O255  1  0.12024168  0.87390971  0.86419863  1
  O  O256  1  0.61844368  0.36029226  0.36223580  1
  O  O257  1  0.62455892  0.35317363  0.87805901  1
  O  O258  1  0.61423046  0.86706381  0.37413480  1
  O  O259  1  0.58081995  0.82996945  0.94309369  1
  O  O260  1  0.38650709  0.11981204  0.12626063  1
  O  O261  1  0.37707313  0.14330197  0.63216188  1
  O  O262  1  0.38711025  0.64774444  0.11399621  1
  O  O263  1  0.36422417  0.63354396  0.62165007  1
  O  O264  1  0.86508733  0.13980125  0.12504579  1
  O  O265  1  0.87227586  0.13987657  0.62272774  1
  O  O266  1  0.83782260  0.65566645  0.13378502  1
  O  O267  1  0.88574991  0.61273124  0.63383233  1
  O  O268  1  0.27678386  0.25357259  0.10748732  1
  O  O269  1  0.26086852  0.24721407  0.61995240  1
  O  O270  1  0.25969676  0.75715467  0.10941692  1
  O  O271  1  0.25988582  0.77088035  0.62834610  1
  O  O272  1  0.75307484  0.25134131  0.11085351  1
  O  O273  1  0.74862811  0.25949247  0.61467445  1
  O  O274  1  0.74696638  0.77080671  0.11252841  1
  O  O275  1  0.74358645  0.75675872  0.61117751  1
  O  O276  1  0.26370238  0.23953925  0.39795083  1
  O  O277  1  0.25513614  0.25119711  0.87972665  1
  O  O278  1  0.25525739  0.74734588  0.36864568  1
  O  O279  1  0.23830169  0.76220861  0.88067719  1
  O  O280  1  0.74157572  0.25570437  0.38762912  1
  O  O281  1  0.74198715  0.25056807  0.88340631  1
  O  O282  1  0.73408733  0.75998047  0.39172559  1
  O  O283  1  0.76249472  0.73269871  0.88524206  1
  O  O284  1  -0.00462836  0.11764926  -0.00228100  1
  O  O285  1  0.01695983  0.14118929  0.49690215  1
  O  O286  1  0.01178962  0.62863468  -0.00362603  1
  O  O287  1  0.00929957  0.61534064  0.50273027  1
  O  O288  1  0.50581777  0.12152152  0.01207950  1
  O  O289  1  0.46960131  0.08548815  0.50232145  1
  O  O290  1  0.51656580  0.64902906  -0.00246020  1
  O  O291  1  0.50986437  0.62376777  0.49879548  1
  O  O292  1  0.50781180  0.36322954  0.48476243  1
  O  O293  1  0.49496055  0.36558656  0.98098537  1
  O  O294  1  0.49569607  0.87691902  0.48530027  1
  O  O295  1  0.46864836  0.88093310  1.00748446  1
  O  O296  1  0.99394575  0.37593669  0.49481875  1
  O  O297  1  0.98124240  0.37100421  1.01280696  1
  O  O298  1  0.98387096  0.86674455  0.50910850  1
  O  O299  1  1.00161226  0.87102433  0.98660977  1
  O  O300  1  0.51479674  0.47908502  0.37610788  1
  O  O301  1  0.49531828  0.52062409  0.87345973  1
  O  O302  1  0.50442216  0.99458393  0.37689782  1
  O  O303  1  0.49456579  1.00272721  0.87134567  1
  O  O304  1  1.01079289  0.48380263  0.38476542  1
  O  O305  1  0.98582032  0.50285430  0.87571359  1
  O  O306  1  0.99017589  0.99778742  0.37272897  1
  O  O307  1  1.00417845  0.98833820  0.88821810  1
  O  O308  1  -0.00347762  0.00735165  0.12047459  1
  O  O309  1  0.00844149  0.00088885  0.63538893  1
  O  O310  1  0.08879524  0.45217725  0.17032766  1
  O  O311  1  0.01071532  0.50665972  0.61435258  1
  O  O312  1  0.51091815  0.00565635  0.12981225  1
  O  O313  1  0.51844338  -0.00543032  0.62364280  1
  O  O314  1  0.48184965  0.52738632  0.12022105  1
  O  O315  1  0.51698809  0.48753456  0.62896882  1
  O  O316  1  0.23452472  0.31596786  0.24175512  1
  O  O317  1  0.23568968  0.39720541  0.75208454  1
  O  O318  1  0.22931677  0.86544966  0.23439111  1
  O  O319  1  0.23416699  0.87823115  0.74269514  1
  O  O320  1  0.73167071  0.36058755  0.22780962  1
  O  O321  1  0.75447062  0.38629655  0.74138273  1
  O  O322  1  0.73398906  0.88437672  0.26097653  1
  O  O323  1  0.74552720  0.85958323  0.73368312  1
  O  O324  1  0.25078386  0.13158525  0.27781355  1
  O  O325  1  0.25173019  0.13521627  0.76687733  1
  O  O326  1  0.23501790  0.63139926  0.26091968  1
  O  O327  1  0.23877550  0.61414445  0.74700236  1
  O  O328  1  0.74790203  0.11021605  0.25166393  1
  O  O329  1  0.75002928  0.11377499  0.75685944  1
  O  O330  1  0.71973483  0.60913551  0.25828618  1
  O  O331  1  0.75826443  0.61766371  0.75483862  1
  O  O332  1  0.36968577  0.12156811  0.37488864  1
  O  O333  1  0.36805933  0.10755346  0.87605427  1
  O  O334  1  0.35229580  0.61825669  0.37551505  1
  O  O335  1  0.42797252  0.55265886  0.90119870  1
  O  O336  1  0.87427141  0.10380561  0.38680881  1
  O  O337  1  0.90458188  0.12875688  0.83657825  1
  O  O338  1  0.86569844  0.59555699  0.39322423  1
  O  O339  1  0.86821695  0.61132256  0.87244635  1
  O  O340  1  0.13071360  0.39724263  0.13050534  1
  O  O341  1  0.12420201  0.38813241  0.63178556  1
  O  O342  1  0.13289991  0.86808579  0.12155819  1
  O  O343  1  0.12696232  0.88661792  0.63546248  1
  O  O344  1  0.62483575  0.36093609  0.13032600  1
  O  O345  1  0.63980918  0.38911186  0.61391280  1
  O  O346  1  0.61842073  0.88613617  0.14165082  1
  O  O347  1  0.63703168  0.87680721  0.61519568  1
  O  O348  1  0.09631641  0.24811073  0.23117866  1
  O  O349  1  0.13061490  0.26829898  0.75983321  1
  O  O350  1  0.10850381  0.76345950  0.24570680  1
  O  O351  1  0.12563811  0.75972806  0.75953425  1
  O  O352  1  0.62189122  0.24476486  0.26168381  1
  O  O353  1  0.61140707  0.24702037  0.75371317  1
  O  O354  1  0.63244977  0.76184929  0.26620669  1
  O  O355  1  0.59810648  0.72626226  0.74283674  1
  O  O356  1  0.38688143  0.24128590  0.23601335  1
  O  O357  1  0.38851839  0.24881702  0.74770701  1
  O  O358  1  0.37323146  0.76226106  0.23167447  1
  O  O359  1  0.37504529  0.75936948  0.73010590  1
  O  O360  1  0.87007357  0.26055402  0.23683689  1
  O  O361  1  0.86947612  0.25606615  0.73693832  1
  O  O362  1  0.88789901  0.75704222  0.24727462  1
  O  O363  1  0.87855784  0.72995012  0.75796092  1
  O  O364  1  0.38282570  0.50327057  0.47354523  1
  O  O365  1  0.40392392  0.52121441  0.96861625  1
  O  O366  1  0.41391270  1.03752316  0.51208507  1
  O  O367  1  0.36278243  0.99975515  0.99818766  1
  O  O368  1  0.88674221  0.48444465  0.50969034  1
  O  O369  1  0.87183696  0.49014819  0.99746191  1
  O  O370  1  0.87357655  0.98820362  0.49421099  1
  O  O371  1  0.89155442  0.99458960  1.00208777  1
  O  O372  1  0.10435020  -0.00060161  0.01202298  1
  O  O373  1  0.11773649  0.01276717  0.51540502  1
  O  O374  1  0.12899802  0.51829355  -0.00847869  1
  O  O375  1  0.11944481  0.50023751  0.50829564  1
  O  O376  1  0.63488499  -0.00806538  0.01720096  1
  O  O377  1  0.63647497  0.00181765  0.51119390  1
  O  O378  1  0.61822775  0.51637071  -0.00852215  1
  O  O379  1  0.63196414  0.51029315  0.50669532  1
  O  O380  1  0.40128211  0.36098891  0.12949919  1
  O  O381  1  0.37879533  0.35364806  0.63263392  1
  O  O382  1  0.36145005  0.86858468  0.11418537  1
  O  O383  1  0.36075664  0.89383744  0.61618539  1
  O  O384  1  0.85514075  0.36612004  0.11270550  1
  O  O385  1  0.86950804  0.36715933  0.61829909  1
  O  O386  1  0.87229669  0.86003722  0.12913828  1
  O  O387  1  0.86060257  0.87884959  0.61254019  1
  O  O388  1  0.13558390  0.11914865  0.39242036  1
  O  O389  1  0.13573725  0.14979490  0.87118808  1
  O  O390  1  0.13497731  0.61743416  0.38541681  1
  O  O391  1  0.12141402  0.63979952  0.87492619  1
  O  O392  1  0.62548694  0.13584132  0.37734765  1
  O  O393  1  0.62020262  0.14081381  0.87394173  1
  O  O394  1  0.62191426  0.63579593  0.38752053  1
  O  O395  1  0.63900056  0.62563005  0.87924789  1
