# generated using pymatgen
data_V35Zn35O128
_symmetry_space_group_name_H-M   'P 1'
_cell_length_a   17.04615406
_cell_length_b   16.95512018
_cell_length_c   16.96759710
_cell_angle_alpha   90.03374009
_cell_angle_beta   89.65772804
_cell_angle_gamma   90.25047614
_symmetry_Int_Tables_number   1
_chemical_formula_structural   V35Zn35O128
_chemical_formula_sum   'V70 Zn70 O256'
_cell_volume   4903.83283115
_cell_formula_units_Z   2
loop_
 _symmetry_equiv_pos_site_id
 _symmetry_equiv_pos_as_xyz
  1  'x, y, z'
loop_
 _atom_site_type_symbol
 _atom_site_label
 _atom_site_symmetry_multiplicity
 _atom_site_fract_x
 _atom_site_fract_y
 _atom_site_fract_z
 _atom_site_occupancy
  V  V0  1  0.75295925  0.62761400  0.87052387  1
  V  V1  1  0.00048115  0.12598094  0.60523807  1
  V  V2  1  -0.00427896  0.24885977  0.25657301  1
  V  V3  1  0.50286644  0.10574686  0.62108878  1
  V  V4  1  0.25625511  0.89132316  0.08489149  1
  V  V5  1  0.46786134  0.49422389  0.52362752  1
  V  V6  1  0.87368468  0.63722933  0.74467393  1
  V  V7  1  0.75492672  0.24773534  0.00153986  1
  V  V8  1  0.88240505  -0.00564295  0.89155065  1
  V  V9  1  0.25872029  0.12207082  0.36224551  1
  V  V10  1  0.88346676  0.37718559  -0.00155216  1
  V  V11  1  0.11751151  0.50104007  0.11353491  1
  V  V12  1  0.00351731  0.24815492  0.74518117  1
  V  V13  1  0.63493195  0.35738028  0.74083455  1
  V  V14  1  0.00320299  -0.01485582  0.48985005  1
  V  V15  1  0.50480253  0.26887505  0.25232224  1
  V  V16  1  0.50169471  0.23817739  0.75485347  1
  V  V17  1  0.36830284  0.28526497  0.12979363  1
  V  V18  1  0.11662949  0.76036634  0.36493886  1
  V  V19  1  0.75082335  0.11687269  0.87927551  1
  V  V20  1  -0.00129569  0.64193735  0.11951011  1
  V  V21  1  0.50767854  0.38150733  0.88066480  1
  V  V22  1  0.12186779  0.25045343  0.38327196  1
  V  V23  1  0.85714286  0.25331194  0.61653427  1
  V  V24  1  0.47451453  0.12313058  0.13758976  1
  V  V25  1  0.37649910  0.25129306  0.62349760  1
  V  V26  1  0.63850684  0.60218772  0.00336009  1
  V  V27  1  0.26845209  0.26509712  -0.01601443  1
  V  V28  1  0.62006225  0.50600240  0.62646560  1
  V  V29  1  0.24986573  0.61771033  0.37748156  1
  V  V30  1  0.87777993  0.49567271  0.87141986  1
  V  V31  1  0.75239298  0.49134641  0.74294553  1
  V  V32  1  0.48440542  0.38140407  0.39167239  1
  V  V33  1  0.13579096  0.37230093  0.74754598  1
  V  V34  1  0.36120396  0.10798888  0.75801854  1
  V  V35  1  0.88229211  0.25055678  0.12882458  1
  V  V36  1  0.25335503  0.49386682  0.25157466  1
  V  V37  1  0.63145313  0.11619845  0.03395941  1
  V  V38  1  0.60337092  0.75329478  0.88236342  1
  V  V39  1  0.75795923  -0.00941142  0.74217133  1
  V  V40  1  0.52138457  0.61691909  0.11876889  1
  V  V41  1  -0.00510695  0.48736565  0.48825502  1
  V  V42  1  0.38020330  0.62858818  0.25389252  1
  V  V43  1  0.12390668  0.73496298  0.87141473  1
  V  V44  1  0.37663138  0.88172962  0.49075812  1
  V  V45  1  0.62960875  0.25065388  0.39091961  1
  V  V46  1  0.12266443  0.49466816  0.62659476  1
  V  V47  1  0.62324774  0.88221011  0.73699177  1
  V  V48  1  0.25163092  0.87719325  0.63021055  1
  V  V49  1  0.11789031  0.37809331  0.25229513  1
  V  V50  1  0.84353515  0.88422346  0.50732736  1
  V  V51  1  0.49988496  0.00396924  0.48106604  1
  V  V52  1  0.25580380  0.75230939  0.50222148  1
  V  V53  1  0.11699135  0.62406232  0.49767312  1
  V  V54  1  -0.00251668  0.86932703  0.89209637  1
  V  V55  1  0.10133402  0.86131236  0.73325294  1
  V  V56  1  0.74208389  0.38570851  0.13066204  1
  V  V57  1  0.87708657  0.12165469  0.74835536  1
  V  V58  1  0.85409837  0.37518122  0.49018421  1
  V  V59  1  0.74344995  0.72493758  0.52691078  1
  V  V60  1  0.87420249  0.01292775  0.36406318  1
  V  V61  1  0.02182580  0.13102446  0.11313671  1
  V  V62  1  -0.00145890  0.36861472  0.86981682  1
  V  V63  1  0.12381392  0.00574435  0.62440830  1
  V  V64  1  0.25063665  0.24910444  0.50277459  1
  V  V65  1  0.73102628  0.02090022  0.24314756  1
  V  V66  1  0.61715813  0.85500963  0.24463435  1
  V  V67  1  -0.01138693  0.63256315  0.62293108  1
  V  V68  1  0.36060180  0.73311758  0.10860791  1
  V  V69  1  0.76081201  0.75473580  0.01247823  1
  Zn  Zn70  1  0.35820786  0.44389978  0.94184645  1
  Zn  Zn71  1  0.62729045  0.24124222  0.88034116  1
  Zn  Zn72  1  0.70170649  -0.07063091  0.08144748  1
  Zn  Zn73  1  0.26716592  0.38560113  0.61518544  1
  Zn  Zn74  1  0.88529491  0.60878298  0.24991844  1
  Zn  Zn75  1  0.13325514  0.16413054  0.97839274  1
  Zn  Zn76  1  0.19732574  0.19731502  0.18808071  1
  Zn  Zn77  1  0.19034582  0.18616833  0.68888472  1
  Zn  Zn78  1  0.18285718  0.67948881  0.18731301  1
  Zn  Zn79  1  0.18322008  0.68766857  0.68043052  1
  Zn  Zn80  1  0.70191960  0.21364576  0.21116422  1
  Zn  Zn81  1  0.68025592  0.17137097  0.55826249  1
  Zn  Zn82  1  0.70486838  0.68911788  0.20598467  1
  Zn  Zn83  1  0.61942050  0.71447337  0.66939269  1
  Zn  Zn84  1  0.31291444  0.30927247  0.31592777  1
  Zn  Zn85  1  0.32544460  0.30732136  0.80744252  1
  Zn  Zn86  1  0.31819018  0.79684914  0.31982449  1
  Zn  Zn87  1  0.31369841  0.75589331  0.78912069  1
  Zn  Zn88  1  0.80749726  0.42910398  0.30813412  1
  Zn  Zn89  1  0.81550841  0.30349812  0.80959653  1
  Zn  Zn90  1  0.76616579  0.84698653  0.32937160  1
  Zn  Zn91  1  0.80865425  0.81370587  0.82396210  1
  Zn  Zn92  1  0.18662147  0.43227943  0.43855799  1
  Zn  Zn93  1  0.16752332  0.39706792  0.95234410  1
  Zn  Zn94  1  0.19004162  0.94005223  0.43753284  1
  Zn  Zn95  1  0.18478743  0.93064815  0.90623123  1
  Zn  Zn96  1  0.66491095  0.43514867  0.44482676  1
  Zn  Zn97  1  0.69496291  0.42510461  0.92941752  1
  Zn  Zn98  1  0.68068060  0.95981022  0.42223602  1
  Zn  Zn99  1  0.53409011  0.93839242  0.95861818  1
  Zn  Zn100  1  0.30091202  0.08012410  0.06128989  1
  Zn  Zn101  1  0.31340694  0.06713284  0.55958154  1
  Zn  Zn102  1  0.31846978  0.54823430  0.07712655  1
  Zn  Zn103  1  0.30111587  0.56640735  0.57039469  1
  Zn  Zn104  1  0.82555368  0.06970829  0.07017029  1
  Zn  Zn105  1  0.81815266  0.06003996  0.55799541  1
  Zn  Zn106  1  0.82562404  0.56508923  0.06339076  1
  Zn  Zn107  1  0.80876815  0.55763093  0.55645441  1
  Zn  Zn108  1  0.44487480  0.44535804  0.20095933  1
  Zn  Zn109  1  0.44129658  0.43321983  0.70799672  1
  Zn  Zn110  1  0.46623069  0.90721860  0.14279334  1
  Zn  Zn111  1  0.41503883  0.90398307  0.73734177  1
  Zn  Zn112  1  0.93935595  0.44057042  0.18798275  1
  Zn  Zn113  1  0.93783331  0.43448042  0.67998651  1
  Zn  Zn114  1  0.96014651  0.95946817  0.18312002  1
  Zn  Zn115  1  0.93372784  0.93743208  0.67961903  1
  Zn  Zn116  1  0.05836929  0.07775151  0.31863412  1
  Zn  Zn117  1  0.05760196  0.05344175  0.80484956  1
  Zn  Zn118  1  0.05931492  0.56799942  0.30811909  1
  Zn  Zn119  1  0.05471359  0.55497923  0.80210356  1
  Zn  Zn120  1  0.55169541  0.07720498  0.31050248  1
  Zn  Zn121  1  0.56346176  0.05083965  0.79799271  1
  Zn  Zn122  1  0.47032747  0.60453890  0.39649987  1
  Zn  Zn123  1  0.57350979  0.55533402  0.81302659  1
  Zn  Zn124  1  0.43623247  0.18746834  0.43625410  1
  Zn  Zn125  1  0.45691893  0.11276380  0.93663262  1
  Zn  Zn126  1  0.43601781  0.69660118  0.58953278  1
  Zn  Zn127  1  0.43444602  0.64183761  0.94804351  1
  Zn  Zn128  1  0.80840251  0.18970452  0.42238193  1
  Zn  Zn129  1  0.93952709  0.18744977  0.93716888  1
  Zn  Zn130  1  0.91024716  0.77333547  0.39039957  1
  Zn  Zn131  1  0.94379495  0.68296464  0.93917655  1
  Zn  Zn132  1  0.07035810  0.31700268  0.06852198  1
  Zn  Zn133  1  0.05857986  0.31211169  0.56200438  1
  Zn  Zn134  1  0.08626698  0.80655336  0.05916504  1
  Zn  Zn135  1  0.05856132  0.80974590  0.54966368  1
  Zn  Zn136  1  0.56542263  0.30614874  0.06284681  1
  Zn  Zn137  1  0.55710255  0.31432630  0.56663114  1
  Zn  Zn138  1  0.56780759  0.78865600  0.06721372  1
  Zn  Zn139  1  0.57437597  0.82651666  0.54193646  1
  O  O140  1  0.12171114  0.14259989  0.12184487  1
  O  O141  1  0.11619708  0.11130196  0.62970802  1
  O  O142  1  0.11345281  0.60830151  0.12734172  1
  O  O143  1  0.11482372  0.61602427  0.61886055  1
  O  O144  1  0.64055206  0.13653005  0.12932940  1
  O  O145  1  0.60107205  0.12531988  0.62218086  1
  O  O146  1  0.62904236  0.62308725  0.11342789  1
  O  O147  1  0.60744045  0.59939767  0.65660325  1
  O  O148  1  0.38571951  0.37092320  0.38152344  1
  O  O149  1  0.40158343  0.37640336  0.85968423  1
  O  O150  1  0.37189746  0.86548578  0.39276623  1
  O  O151  1  0.39274486  0.92625344  0.90313604  1
  O  O152  1  0.86430989  0.37191916  0.39142471  1
  O  O153  1  0.87968636  0.37595142  0.87776321  1
  O  O154  1  0.86192759  0.88119311  0.38796041  1
  O  O155  1  0.88679613  0.88292937  0.87871836  1
  O  O156  1  0.23704899  0.02523377  0.38490647  1
  O  O157  1  0.35218900  -0.01529475  0.92438993  1
  O  O158  1  0.24132464  0.50896846  0.36938794  1
  O  O159  1  0.22606285  0.53657228  0.86928706  1
  O  O160  1  0.76534801  0.00396439  0.35208502  1
  O  O161  1  0.77561220  0.00588372  0.86863895  1
  O  O162  1  0.72879185  0.49985293  0.36698132  1
  O  O163  1  0.76115977  0.50036864  0.86401732  1
  O  O164  1  0.23659962  0.50885108  0.14523614  1
  O  O165  1  0.22785785  0.49498545  0.62150889  1
  O  O166  1  0.25737546  0.98861933  0.11113110  1
  O  O167  1  0.22828052  0.99034257  0.61015621  1
  O  O168  1  0.76285691  0.48315090  0.11597197  1
  O  O169  1  0.73634765  0.50389204  0.63666908  1
  O  O170  1  0.76514607  1.00579422  0.13929044  1
  O  O171  1  0.76526384  1.00528199  0.64493939  1
  O  O172  1  0.01361113  0.36692239  0.25092582  1
  O  O173  1  0.00057767  0.36293389  0.75114396  1
  O  O174  1  0.06472801  0.92435975  0.23700190  1
  O  O175  1  0.00105939  0.87111532  0.74236557  1
  O  O176  1  0.50030841  0.37572711  0.27179715  1
  O  O177  1  0.51729248  0.36030251  0.76035443  1
  O  O178  1  0.51885498  0.88165791  0.24234893  1
  O  O179  1  0.53001409  0.91116832  0.75652770  1
  O  O180  1  0.49743601  0.14966200  0.23902300  1
  O  O181  1  0.49424359  0.12268599  0.73610617  1
  O  O182  1  0.47647141  0.62245341  0.27691540  1
  O  O183  1  0.48264661  0.59372336  0.75059484  1
  O  O184  1  1.01130424  0.14456702  0.23525229  1
  O  O185  1  0.99313571  0.13003158  0.74415069  1
  O  O186  1  1.00087541  0.62324764  0.23270566  1
  O  O187  1  0.98726027  0.61757430  0.73007693  1
  O  O188  1  0.36741994  0.26134735  0.02087371  1
  O  O189  1  0.37147513  0.24972077  0.51885421  1
  O  O190  1  0.38187441  0.72276005  0.01138426  1
  O  O191  1  0.36186867  0.76165953  0.51383231  1
  O  O192  1  0.87124954  0.25707722  0.00516505  1
  O  O193  1  0.86468454  0.26093611  0.50770644  1
  O  O194  1  0.85771449  0.74209449  -0.01393670  1
  O  O195  1  0.83731777  0.77377731  0.49239926  1
  O  O196  1  0.12789503  0.25518669  0.48789128  1
  O  O197  1  0.15214202  0.28373465  0.99630740  1
  O  O198  1  0.12991485  0.73775674  0.49235928  1
  O  O199  1  0.13058094  0.75080879  0.96936220  1
  O  O200  1  0.62417919  0.25298714  0.49837912  1
  O  O201  1  0.64335728  0.23585332  1.00069571  1
  O  O202  1  0.66322842  0.77267008  0.48910536  1
  O  O203  1  0.63815722  0.72829546  0.99147043  1
  O  O204  1  0.49317205  0.26152814  0.14045733  1
  O  O205  1  0.48826502  0.24436341  0.63248918  1
  O  O206  1  0.49228288  0.71886780  0.12889893  1
  O  O207  1  0.52826690  0.74923525  0.61222776  1
  O  O208  1  1.00049364  0.25384262  0.13537412  1
  O  O209  1  0.99596113  0.24038358  0.62882195  1
  O  O210  1  1.01678649  0.74110480  0.12071434  1
  O  O211  1  0.99921654  0.73030288  0.61077303  1
  O  O212  1  0.01551733  0.24710272  0.36042769  1
  O  O213  1  -0.00836783  0.25666009  0.85698658  1
  O  O214  1  0.01666472  0.74758071  0.37758697  1
  O  O215  1  0.00080275  0.76568797  0.87549543  1
  O  O216  1  0.49570125  0.26132284  0.36859525  1
  O  O217  1  0.50975310  0.23484069  0.85774647  1
  O  O218  1  0.52313734  0.76192903  0.39521832  1
  O  O219  1  0.51217471  0.71224547  0.88833182  1
  O  O220  1  0.25164110  0.14334710  0.49669308  1
  O  O221  1  0.24232719  0.16322122  1.01493028  1
  O  O222  1  0.23828492  0.62999314  0.49701359  1
  O  O223  1  0.23598776  0.58831571  0.91955447  1
  O  O224  1  0.75239103  0.11901850  0.49302997  1
  O  O225  1  0.74928126  0.12938037  1.00012190  1
  O  O226  1  0.75072639  0.62910223  0.49281217  1
  O  O227  1  0.74938760  0.62023492  0.98819354  1
  O  O228  1  0.27429144  0.37838900  -0.01959787  1
  O  O229  1  0.24462656  0.35857866  0.50368885  1
  O  O230  1  0.24898788  0.88651458  -0.01617796  1
  O  O231  1  0.25745134  0.87086052  0.50476722  1
  O  O232  1  0.76434176  0.36245421  0.00030323  1
  O  O233  1  0.75736320  0.39272506  0.50142720  1
  O  O234  1  0.74739255  0.85461654  0.00803780  1
  O  O235  1  0.75019181  0.91498057  0.50713742  1
  O  O236  1  0.13091299  0.48932595  0.25332368  1
  O  O237  1  0.11726216  0.48219028  0.73984100  1
  O  O238  1  0.11027139  0.98285265  0.25397247  1
  O  O239  1  0.11252427  0.98521626  0.72797605  1
  O  O240  1  0.69442813  0.56603705  0.32731865  1
  O  O241  1  0.63565893  0.47961956  0.74852655  1
  O  O242  1  0.63127871  1.01977496  0.25097138  1
  O  O243  1  0.65256448  0.99412945  0.75640850  1
  O  O244  1  0.32398000  -0.03937431  0.25963563  1
  O  O245  1  0.37437110  0.00855283  0.74555620  1
  O  O246  1  0.35803293  0.51021886  0.25040391  1
  O  O247  1  0.37634324  0.51115693  0.76917292  1
  O  O248  1  0.89505063  -0.00626737  0.26639712  1
  O  O249  1  0.87574658  0.00499769  0.75467457  1
  O  O250  1  0.88348194  0.49757468  0.26388383  1
  O  O251  1  0.86652366  0.49610892  0.75166337  1
  O  O252  1  0.12897139  0.36317866  0.36420363  1
  O  O253  1  0.10986577  0.37910298  0.85511370  1
  O  O254  1  0.13350122  0.85832200  0.38245774  1
  O  O255  1  0.10830095  0.86858894  0.85058757  1
  O  O256  1  0.60064143  0.36196080  0.38809332  1
  O  O257  1  0.62410970  0.36023366  0.86334810  1
  O  O258  1  0.65035500  0.87337541  0.35060088  1
  O  O259  1  0.59670428  0.85064444  0.90160228  1
  O  O260  1  0.37812440  0.14780236  0.12369332  1
  O  O261  1  0.38013143  0.13290768  0.63326394  1
  O  O262  1  0.38786634  0.62002678  0.14167081  1
  O  O263  1  0.34633749  0.64121822  0.64499373  1
  O  O264  1  0.89712502  0.14681889  0.11510816  1
  O  O265  1  0.88451837  0.13398074  0.62919431  1
  O  O266  1  0.89018425  0.62547104  0.13201391  1
  O  O267  1  0.88323973  0.61740363  0.62783561  1
  O  O268  1  0.26800816  0.27438923  0.13869039  1
  O  O269  1  0.26224414  0.24927128  0.62138548  1
  O  O270  1  0.26382352  0.70591241  0.10937654  1
  O  O271  1  0.22940139  0.76996008  0.60898974  1
  O  O272  1  0.76515747  0.25775503  0.11806033  1
  O  O273  1  0.76137097  0.23956669  0.62787889  1
  O  O274  1  0.75379675  0.72834727  0.10976100  1
  O  O275  1  0.72831915  0.72212934  0.62637838  1
  O  O276  1  0.24044966  0.24633988  0.38140790  1
  O  O277  1  0.26846501  0.24913792  0.88577146  1
  O  O278  1  0.24209159  0.73910791  0.38764419  1
  O  O279  1  0.22235406  0.73315689  0.84274176  1
  O  O280  1  0.72912311  0.25486436  0.37152758  1
  O  O281  1  0.76101246  0.23551882  0.88709809  1
  O  O282  1  0.77713416  0.73259511  0.29911988  1
  O  O283  1  0.74005219  0.73597112  0.87989784  1
  O  O284  1  0.02108830  0.15407879  0.00693148  1
  O  O285  1  -0.00266768  0.11507301  0.50740789  1
  O  O286  1  -0.00473432  0.62145760  0.01815362  1
  O  O287  1  0.00759527  0.60818457  0.51186622  1
  O  O288  1  0.52166088  0.13657939  0.03359513  1
  O  O289  1  0.48246255  0.11161975  0.50993019  1
  O  O290  1  0.52543642  0.60602131  0.01263615  1
  O  O291  1  0.46645125  0.60102862  0.51522143  1
  O  O292  1  0.49043865  0.38045273  0.50162001  1
  O  O293  1  0.51073607  0.35459708  0.97690577  1
  O  O294  1  0.48376411  0.88931888  0.50342744  1
  O  O295  1  0.49776972  0.87345840  1.03974166  1
  O  O296  1  0.99683717  0.38460651  0.49903051  1
  O  O297  1  0.99176138  0.36276605  0.98379058  1
  O  O298  1  0.98971824  0.88365393  0.49529275  1
  O  O299  1  1.01844947  0.87735645  0.98812324  1
  O  O300  1  0.49228773  0.49007589  0.40879858  1
  O  O301  1  0.51694103  0.48096862  0.88170812  1
  O  O302  1  0.48790904  1.01385074  0.38279121  1
  O  O303  1  0.52056075  1.02716279  0.89666537  1
  O  O304  1  1.00380859  0.50609473  0.39136806  1
  O  O305  1  0.98464706  0.48286511  0.86045121  1
  O  O306  1  0.99717403  1.00632316  0.38692292  1
  O  O307  1  0.98940711  0.98525076  0.86907556  1
  O  O308  1  0.00555624  0.03153816  0.11282472  1
  O  O309  1  0.00335736  0.00634551  0.61074871  1
  O  O310  1  0.01619584  0.49135124  0.12048147  1
  O  O311  1  0.00839184  0.50217768  0.61582287  1
  O  O312  1  0.47287997  0.02453097  0.14360036  1
  O  O313  1  0.49464530  0.00786918  0.61617211  1
  O  O314  1  0.50998578  0.52387163  0.15469741  1
  O  O315  1  0.50596267  0.48171206  0.62433952  1
  O  O316  1  0.24515047  0.39088408  0.26127549  1
  O  O317  1  0.23546079  0.36606342  0.75209982  1
  O  O318  1  0.27315734  0.90778741  0.26585993  1
  O  O319  1  0.22665038  0.87319646  0.72909913  1
  O  O320  1  0.75173797  0.36759342  0.23007412  1
  O  O321  1  0.74218560  0.37474734  0.75511449  1
  O  O322  1  0.72913940  0.90142903  0.23505251  1
  O  O323  1  0.74872064  0.88600730  0.75875853  1
  O  O324  1  0.24839598  0.12979023  0.26166801  1
  O  O325  1  0.26173244  0.12322515  0.74587836  1
  O  O326  1  0.25040875  0.61355767  0.26283150  1
  O  O327  1  0.29432841  0.65953995  0.71086642  1
  O  O328  1  0.75544736  0.12038287  0.24681949  1
  O  O329  1  0.77105038  0.11374075  0.76266614  1
  O  O330  1  0.72675833  0.57723715  0.25644821  1
  O  O331  1  0.75992634  0.60820791  0.76097828  1
  O  O332  1  0.35776037  0.13533162  0.37519596  1
  O  O333  1  0.37934505  0.12672377  0.85570323  1
  O  O334  1  0.35749162  0.62929701  0.36805960  1
  O  O335  1  0.41244359  0.57972345  0.79021569  1
  O  O336  1  0.87893934  0.11232153  0.37311924  1
  O  O337  1  0.88020565  0.11370381  0.86952187  1
  O  O338  1  0.85474136  0.70387041  0.31115765  1
  O  O339  1  0.87343125  0.61269175  0.86432742  1
  O  O340  1  0.12917834  0.38643826  0.14453523  1
  O  O341  1  0.12234368  0.37736965  0.63603393  1
  O  O342  1  0.17042156  0.85115127  0.12043749  1
  O  O343  1  0.11671802  0.88108183  0.62448366  1
  O  O344  1  0.64466521  0.37167200  0.11221752  1
  O  O345  1  0.62332369  0.37936985  0.63924323  1
  O  O346  1  0.62870043  0.86186907  0.13498202  1
  O  O347  1  0.62945221  0.87417298  0.63964962  1
  O  O348  1  0.12374996  0.26581252  0.25461716  1
  O  O349  1  0.11419204  0.25962923  0.74010364  1
  O  O350  1  0.13820663  0.74590712  0.26729228  1
  O  O351  1  0.11135495  0.75894604  0.74024504  1
  O  O352  1  0.60837828  0.26039427  0.25887080  1
  O  O353  1  0.62155642  0.25529643  0.74335714  1
  O  O354  1  0.62177713  0.75356954  0.24795642  1
  O  O355  1  0.62329980  0.77361823  0.77260193  1
  O  O356  1  0.38823207  0.26817309  0.23930301  1
  O  O357  1  0.38586966  0.23368208  0.74157696  1
  O  O358  1  0.36181153  0.73223918  0.23806226  1
  O  O359  1  0.40742492  0.80019663  0.77276467  1
  O  O360  1  0.89483630  0.25897221  0.24204128  1
  O  O361  1  0.88266987  0.24094951  0.73722439  1
  O  O362  1  0.88165702  0.81377574  0.19326065  1
  O  O363  1  0.86545086  0.73464990  0.75726466  1
  O  O364  1  0.36980417  0.48120043  0.53456627  1
  O  O365  1  0.36974658  0.54804326  0.97808738  1
  O  O366  1  0.37294020  0.98626447  0.50146727  1
  O  O367  1  0.38430972  1.02699388  0.99326952  1
  O  O368  1  0.88635451  0.48482299  0.50910824  1
  O  O369  1  0.87119232  0.48648995  0.98315729  1
  O  O370  1  0.88592852  0.99420397  0.48661185  1
  O  O371  1  0.87995551  1.00566395  0.98964283  1
  O  O372  1  0.20151214  0.04118581  -0.11198949  1
  O  O373  1  0.10795758  -0.00879647  0.50882316  1
  O  O374  1  0.13613486  0.48651928  0.01635046  1
  O  O375  1  0.11530364  0.50300100  0.50449424  1
  O  O376  1  0.63646083  0.01568485  0.02453387  1
  O  O377  1  0.59905909  -0.00292699  0.48988503  1
  O  O378  1  0.64322895  0.50409606  -0.00442828  1
  O  O379  1  0.61737490  0.50353173  0.52483360  1
  O  O380  1  0.38519585  0.38531647  0.12334299  1
  O  O381  1  0.37352847  0.35578910  0.65050172  1
  O  O382  1  0.34984791  0.84341694  0.12067657  1
  O  O383  1  0.35155827  0.88069205  0.62534342  1
  O  O384  1  0.87839505  0.36761335  0.11283382  1
  O  O385  1  0.87517393  0.35750035  0.61920396  1
  O  O386  1  0.90620460  0.86005404  0.14018480  1
  O  O387  1  0.87182728  0.88299745  0.60399671  1
  O  O388  1  0.13399374  0.14658550  0.36914840  1
  O  O389  1  0.13178200  0.08691492  0.88783914  1
  O  O390  1  0.13084219  0.62843847  0.38469352  1
  O  O391  1  0.09357255  0.63922975  0.86205820  1
  O  O392  1  0.60628799  0.15267763  0.37771318  1
  O  O393  1  0.64865217  0.12283391  0.87488210  1
  O  O394  1  0.55763842  0.69701612  0.39247155  1
  O  O395  1  0.63856886  0.61987641  0.88332705  1
