# generated using pymatgen
data_V35Zn35O128
_symmetry_space_group_name_H-M   'P 1'
_cell_length_a   16.86056113
_cell_length_b   16.85435967
_cell_length_c   16.90759060
_cell_angle_alpha   90.20268812
_cell_angle_beta   90.01733670
_cell_angle_gamma   89.89317365
_symmetry_Int_Tables_number   1
_chemical_formula_structural   V35Zn35O128
_chemical_formula_sum   'V70 Zn70 O256'
_cell_volume   4804.65837618
_cell_formula_units_Z   2
loop_
 _symmetry_equiv_pos_site_id
 _symmetry_equiv_pos_as_xyz
  1  'x, y, z'
loop_
 _atom_site_type_symbol
 _atom_site_label
 _atom_site_symmetry_multiplicity
 _atom_site_fract_x
 _atom_site_fract_y
 _atom_site_fract_z
 _atom_site_occupancy
  V  V0  1  0.12276762  0.13362573  -0.01119037  1
  V  V1  1  0.50712864  0.63946204  0.62789057  1
  V  V2  1  0.85281522  0.49476740  0.36185865  1
  V  V3  1  0.63485343  0.88711837  0.23049355  1
  V  V4  1  0.26255426  0.75532575  0.51538273  1
  V  V5  1  0.50051467  0.25618466  0.76319256  1
  V  V6  1  0.75090809  0.87962269  0.63348228  1
  V  V7  1  0.50826942  0.46701639  -0.00857721  1
  V  V8  1  0.47733669  0.13348862  0.14046798  1
  V  V9  1  0.12673423  0.87020163  0.79457840  1
  V  V10  1  0.13893596  0.49696058  0.12171391  1
  V  V11  1  0.86046877  0.75364162  0.13569490  1
  V  V12  1  0.36134703  0.28447717  0.13640413  1
  V  V13  1  0.26047334  0.87131925  0.13059513  1
  V  V14  1  0.62369434  0.74413489  0.88067080  1
  V  V15  1  0.63365785  0.88828860  0.75281199  1
  V  V16  1  0.37556205  0.23874008  0.63651882  1
  V  V17  1  0.48477022  0.02044943  -0.00668087  1
  V  V18  1  0.76079236  0.26190517  0.00964925  1
  V  V19  1  0.38231731  0.87660473  0.00143495  1
  V  V20  1  0.12312391  0.61522131  0.52006290  1
  V  V21  1  0.37632382  0.52446120  0.38272155  1
  V  V22  1  0.64709482  0.26515810  0.87183184  1
  V  V23  1  0.11155138  0.11123921  0.50804073  1
  V  V24  1  0.49420598  0.74293905  0.24549896  1
  V  V25  1  0.24135117  0.38126675  0.62304400  1
  V  V26  1  -0.00094948  -0.00469824  -0.00409102  1
  V  V27  1  0.87825682  0.24258986  0.62417532  1
  V  V28  1  0.25742381  0.62958549  0.86991964  1
  V  V29  1  0.86265596  0.00286765  0.86435062  1
  V  V30  1  0.12093277  0.86649484  0.24850766  1
  V  V31  1  0.63732698  0.64906859  0.50302880  1
  V  V32  1  0.25553183  0.00868683  0.78434269  1
  V  V33  1  0.51014726  0.50170296  0.50281690  1
  V  V34  1  0.74315978  0.64123676  0.35678044  1
  V  V35  1  0.64840555  0.11755603  0.01526851  1
  V  V36  1  0.11719577  0.01082933  0.13402814  1
  V  V37  1  0.62628977  0.11108663  0.51525350  1
  V  V38  1  0.00961901  0.63726331  0.13287810  1
  V  V39  1  0.25885705  0.00985166  0.25315601  1
  V  V40  1  0.00521296  0.49727868  -0.01341667  1
  V  V41  1  0.12656706  0.37854989  0.24791421  1
  V  V42  1  0.13326628  0.62921649  -0.00914585  1
  V  V43  1  0.74594721  0.24857450  0.49541033  1
  V  V44  1  0.25489407  0.51033002  0.26290514  1
  V  V45  1  0.50675299  0.87345920  0.36990714  1
  V  V46  1  0.49737575  -0.00252287  0.51260778  1
  V  V47  1  0.38032010  0.63831368  0.74039043  1
  V  V48  1  0.76582525  0.62806040  0.90013817  1
  V  V49  1  0.49660119  0.88031578  0.86020477  1
  V  V50  1  0.74435863  0.10689705  0.37069952  1
  V  V51  1  0.49794292  0.63171313  0.09933526  1
  V  V52  1  0.10201520  0.38581452  0.75026915  1
  V  V53  1  0.37833350  0.00749924  0.37086767  1
  V  V54  1  0.38596100  0.48749973  0.86762605  1
  V  V55  1  0.86695519  0.85734772  0.50424120  1
  V  V56  1  0.12303955  0.24414456  0.37350743  1
  V  V57  1  0.88775957  0.10966490  0.24369473  1
  V  V58  1  0.72977851  0.36710163  0.64038600  1
  V  V59  1  0.14733686  0.73636517  0.37087403  1
  V  V60  1  0.23802063  0.24481773  0.50288211  1
  V  V61  1  0.85663062  0.87503700  0.00658017  1
  V  V62  1  0.74345951  0.51917856  0.74023578  1
  V  V63  1  -0.00137917  0.38717446  0.38785595  1
  V  V64  1  0.88256408  0.38232570  -0.01412270  1
  V  V65  1  0.00361822  0.23040043  0.76128089  1
  V  V66  1  0.25965969  0.75045728  0.00183442  1
  V  V67  1  0.40427994  0.33906193  0.48641916  1
  V  V68  1  0.00128895  0.85638501  0.38105387  1
  V  V69  1  0.88780209  -0.00054603  0.38897406  1
  Zn  Zn70  1  0.24433875  0.50407676  0.74227267  1
  Zn  Zn71  1  0.24131940  0.26005438  0.00656743  1
  Zn  Zn72  1  0.88377022  0.26977801  0.13550217  1
  Zn  Zn73  1  0.00590104  0.24027455  0.24531252  1
  Zn  Zn74  1  0.64419207  0.50919932  0.11055571  1
  Zn  Zn75  1  0.87553243  0.72379794  0.63679491  1
  Zn  Zn76  1  0.19955969  0.19357368  0.18775400  1
  Zn  Zn77  1  0.17602032  0.18188468  0.68968658  1
  Zn  Zn78  1  0.19597392  0.68632575  0.18427813  1
  Zn  Zn79  1  0.18397936  0.69980486  0.68891379  1
  Zn  Zn80  1  0.70952131  0.16680071  0.17871671  1
  Zn  Zn81  1  0.68467971  0.18845281  0.68347340  1
  Zn  Zn82  1  0.66877398  0.69556923  0.18279043  1
  Zn  Zn83  1  0.68734450  0.70456046  0.69387843  1
  Zn  Zn84  1  0.30796757  0.31814350  0.31615218  1
  Zn  Zn85  1  0.29379415  0.31619564  0.82011880  1
  Zn  Zn86  1  0.32082902  0.81926297  0.31731918  1
  Zn  Zn87  1  0.31490225  0.81926038  0.80759162  1
  Zn  Zn88  1  0.83540701  0.28762297  0.33293205  1
  Zn  Zn89  1  0.81289667  0.17579613  0.80690545  1
  Zn  Zn90  1  0.81130931  0.81674650  0.30847618  1
  Zn  Zn91  1  0.81111521  0.81459066  0.82742209  1
  Zn  Zn92  1  0.18587370  0.43784816  0.43889809  1
  Zn  Zn93  1  0.19051450  0.43432117  0.92610109  1
  Zn  Zn94  1  0.19159343  0.93022920  0.43579582  1
  Zn  Zn95  1  0.19389444  0.94629289  0.94715674  1
  Zn  Zn96  1  0.67775682  0.41951052  0.41316393  1
  Zn  Zn97  1  0.69740589  0.44344957  0.92663147  1
  Zn  Zn98  1  0.68814168  0.93282280  0.43820986  1
  Zn  Zn99  1  0.68103085  0.94163755  0.94176011  1
  Zn  Zn100  1  0.30709509  0.06572222  0.06114172  1
  Zn  Zn101  1  0.31162902  0.07036452  0.54865152  1
  Zn  Zn102  1  0.32251741  0.55601962  0.05385359  1
  Zn  Zn103  1  0.30969539  0.57367352  0.55937757  1
  Zn  Zn104  1  0.81497875  0.06949777  0.05394416  1
  Zn  Zn105  1  0.81778499  0.06025541  0.57006240  1
  Zn  Zn106  1  0.82054673  0.55918389  0.08167050  1
  Zn  Zn107  1  0.79745311  0.52656805  0.54341522  1
  Zn  Zn108  1  0.41961163  0.48426991  0.16996363  1
  Zn  Zn109  1  0.43883358  0.43804059  0.67676289  1
  Zn  Zn110  1  0.44918450  0.94588803  0.18188440  1
  Zn  Zn111  1  0.43447532  1.06783343  0.70548436  1
  Zn  Zn112  1  0.94360101  0.44458652  0.18190030  1
  Zn  Zn113  1  0.88405178  0.37360931  0.76505391  1
  Zn  Zn114  1  0.93463801  0.93146616  0.19295061  1
  Zn  Zn115  1  0.96080583  0.86193352  0.68688813  1
  Zn  Zn116  1  0.06544236  0.05234645  0.32285186  1
  Zn  Zn117  1  0.06046691  0.04983447  0.81064487  1
  Zn  Zn118  1  0.05981426  0.56078998  0.31071070  1
  Zn  Zn119  1  0.06465060  0.57017173  0.80399289  1
  Zn  Zn120  1  0.56295955  0.05786200  0.30808478  1
  Zn  Zn121  1  0.60857664  0.09813134  0.80417382  1
  Zn  Zn122  1  0.56202552  0.56376635  0.32177553  1
  Zn  Zn123  1  0.56638414  0.55623581  0.80924572  1
  Zn  Zn124  1  0.44132200  0.17507091  0.43278617  1
  Zn  Zn125  1  0.43872849  0.23529701  0.95643940  1
  Zn  Zn126  1  0.44530964  0.69379391  0.44090059  1
  Zn  Zn127  1  0.43551265  0.69706848  0.92242915  1
  Zn  Zn128  1  0.93982741  0.19064462  0.44050963  1
  Zn  Zn129  1  0.94470709  0.18235770  0.94284828  1
  Zn  Zn130  1  0.93127647  0.66896906  0.42867799  1
  Zn  Zn131  1  0.92039665  0.67150528  0.97545371  1
  Zn  Zn132  1  0.05636959  0.31303608  0.06721730  1
  Zn  Zn133  1  0.05647820  0.31475142  0.56987852  1
  Zn  Zn134  1  0.07338497  0.81661573  0.05523734  1
  Zn  Zn135  1  0.03763293  0.75950423  0.54025971  1
  Zn  Zn136  1  0.56509310  0.29733626  0.08078117  1
  Zn  Zn137  1  0.55868619  0.29302999  0.55045599  1
  Zn  Zn138  1  0.56497302  0.81009823  0.06278605  1
  Zn  Zn139  1  0.56113049  0.82170576  0.56538803  1
  O  O140  1  0.12584982  0.11112161  0.13972781  1
  O  O141  1  0.12440235  0.11719784  0.60733390  1
  O  O142  1  0.12679348  0.61987570  0.11324371  1
  O  O143  1  0.12245120  0.62794271  0.62114581  1
  O  O144  1  0.58507588  0.16195286  0.08526355  1
  O  O145  1  0.62203613  0.11882751  0.61341293  1
  O  O146  1  0.60174166  0.61891457  0.12593179  1
  O  O147  1  0.61617694  0.63660747  0.61639901  1
  O  O148  1  0.36547570  0.37748481  0.40145741  1
  O  O149  1  0.38067154  0.39025593  0.85416576  1
  O  O150  1  0.39340182  0.89090804  0.37141780  1
  O  O151  1  0.39021389  0.87008525  0.88511560  1
  O  O152  1  0.89006101  0.37897913  0.36373815  1
  O  O153  1  0.89214438  0.38081802  0.88719727  1
  O  O154  1  0.88176275  0.87690544  0.38330805  1
  O  O155  1  0.87055666  0.88612605  0.89919028  1
  O  O156  1  0.26541035  -0.00930901  0.36213457  1
  O  O157  1  0.26109054  0.01332986  0.88624692  1
  O  O158  1  0.25913089  0.50427987  0.37129011  1
  O  O159  1  0.26785181  0.51235691  0.87061062  1
  O  O160  1  0.76646319  0.00202808  0.38239207  1
  O  O161  1  0.76227979  0.00206414  0.88798792  1
  O  O162  1  0.74998662  0.48681725  0.35511203  1
  O  O163  1  0.73575627  0.53202663  0.86310068  1
  O  O164  1  0.24551281  0.50449976  0.13200949  1
  O  O165  1  0.26439703  0.48287641  0.62136117  1
  O  O166  1  0.24208574  0.99199982  0.13761060  1
  O  O167  1  0.26436158  0.97012495  0.60564094  1
  O  O168  1  0.75189920  0.48995328  0.12859263  1
  O  O169  1  0.74494580  0.47696156  0.62997129  1
  O  O170  1  0.70929137  1.07917993  0.09916318  1
  O  O171  1  0.75643116  0.97960388  0.62487706  1
  O  O172  1  0.01747540  0.37819754  0.25778504  1
  O  O173  1  0.00126880  0.37720440  0.73856783  1
  O  O174  1  0.01431125  0.87662907  0.26066378  1
  O  O175  1  0.02685212  0.88950249  0.76951738  1
  O  O176  1  0.56703339  0.41378413  0.21779948  1
  O  O177  1  0.49587177  0.35287001  0.73061075  1
  O  O178  1  0.50633958  0.87673223  0.25594965  1
  O  O179  1  0.50805919  0.88337700  0.76139399  1
  O  O180  1  0.50415467  0.12512450  0.23599532  1
  O  O181  1  0.50633094  0.14072375  0.75451596  1
  O  O182  1  0.50456904  0.64220831  0.25968579  1
  O  O183  1  0.49553214  0.62468724  0.73542610  1
  O  O184  1  0.99095390  0.11874290  0.26247365  1
  O  O185  1  1.01144430  0.13127994  0.74734594  1
  O  O186  1  1.00860172  0.62543775  0.23114801  1
  O  O187  1  0.98760657  0.65660231  0.75767856  1
  O  O188  1  0.35808553  0.25220819  0.02672615  1
  O  O189  1  0.35225964  0.24024614  0.50509093  1
  O  O190  1  0.36851664  0.76070852  -0.00052481  1
  O  O191  1  0.36188177  0.73444231  0.50335571  1
  O  O192  1  0.87619334  0.26555401  -0.00517020  1
  O  O193  1  0.86021806  0.23631788  0.51191541  1
  O  O194  1  0.87777402  0.77058637  0.01014318  1
  O  O195  1  0.87491709  0.75615769  0.49688025  1
  O  O196  1  0.12430217  0.24230664  0.49436204  1
  O  O197  1  0.11809232  0.23729758  1.00470060  1
  O  O198  1  0.13791269  0.74540066  0.48177400  1
  O  O199  1  0.14433752  0.73846250  1.00135323  1
  O  O200  1  0.63713976  0.22322684  0.49345180  1
  O  O201  1  0.65515285  0.27494669  1.00193596  1
  O  O202  1  0.63106127  0.74784584  0.50070134  1
  O  O203  1  0.62809071  0.76268517  0.98087375  1
  O  O204  1  0.47207653  0.24348899  0.12596871  1
  O  O205  1  0.47751233  0.24184618  0.62091503  1
  O  O206  1  0.49663594  0.73752201  0.12944393  1
  O  O207  1  0.49634902  0.73853706  0.61325079  1
  O  O208  1  0.99589185  0.24692659  0.13319227  1
  O  O209  1  0.98242223  0.24838753  0.62649761  1
  O  O210  1  1.01576563  0.73931212  0.11923841  1
  O  O211  1  0.98356100  0.76168247  0.63533589  1
  O  O212  1  0.00974117  0.26039782  0.37113007  1
  O  O213  1  0.00057616  0.24336593  0.86033427  1
  O  O214  1  -0.00204411  0.75548128  0.36905393  1
  O  O215  1  -0.03925700  0.71532224  0.80217229  1
  O  O216  1  0.48294454  0.27876953  0.44876211  1
  O  O217  1  0.49353993  0.26275796  0.86466139  1
  O  O218  1  0.49810505  0.76700564  0.36856893  1
  O  O219  1  0.51046191  0.77098796  0.87726342  1
  O  O220  1  0.23464815  0.13900551  0.49799814  1
  O  O221  1  0.22619225  0.12776773  1.01287111  1
  O  O222  1  0.23273516  0.63915276  0.50601705  1
  O  O223  1  0.25350782  0.63002333  0.99337255  1
  O  O224  1  0.73934711  0.11470238  0.49486913  1
  O  O225  1  0.75700645  0.15554984  0.98740837  1
  O  O226  1  0.73667192  0.62101550  0.50766666  1
  O  O227  1  0.75646342  0.62002184  0.99865310  1
  O  O228  1  0.24717036  0.33652506  -0.07589514  1
  O  O229  1  0.23815938  0.36104569  0.51161915  1
  O  O230  1  0.26095480  0.86981826  0.00999733  1
  O  O231  1  0.25472995  0.85421489  0.48554482  1
  O  O232  1  0.77348185  0.37782149  -0.00949498  1
  O  O233  1  0.74060308  0.34876994  0.48250545  1
  O  O234  1  0.75780001  0.88683837  0.01255354  1
  O  O235  1  0.76032545  0.87214451  0.50943883  1
  O  O236  1  0.13645305  0.49894089  0.24314243  1
  O  O237  1  0.12366496  0.49427508  0.74099142  1
  O  O238  1  0.13583710  0.98937631  0.24899821  1
  O  O239  1  0.14110959  0.98354206  0.76918670  1
  O  O240  1  0.60075046  0.48737155  0.23630357  1
  O  O241  1  0.64158767  0.49905022  0.74851656  1
  O  O242  1  0.62186937  0.98855496  0.24214560  1
  O  O243  1  0.62264724  0.98743146  0.76003472  1
  O  O244  1  0.36585622  -0.00342140  0.25313056  1
  O  O245  1  0.35376916  0.00249946  0.74959924  1
  O  O246  1  0.36427047  0.49122289  0.26984207  1
  O  O247  1  0.37979459  0.51088880  0.75436183  1
  O  O248  1  0.88082983  0.00228899  0.26777999  1
  O  O249  1  0.87330367  -0.01705024  0.77015811  1
  O  O250  1  0.88896709  0.50040618  0.26460046  1
  O  O251  1  0.83477539  0.47533721  0.75893542  1
  O  O252  1  0.11514924  0.36986498  0.37192814  1
  O  O253  1  0.11639457  0.38281820  0.84866865  1
  O  O254  1  0.11620319  0.85976795  0.36999179  1
  O  O255  1  0.12752401  0.86812422  0.89667451  1
  O  O256  1  0.62808516  0.33608185  0.33747855  1
  O  O257  1  0.62803286  0.36325601  0.87804081  1
  O  O258  1  0.61131357  0.88505828  0.36692574  1
  O  O259  1  0.61848238  0.87503333  0.86925196  1
  O  O260  1  0.37597673  0.12274187  0.13439434  1
  O  O261  1  0.36274956  0.13320999  0.62911426  1
  O  O262  1  0.39878718  0.60130737  0.13028283  1
  O  O263  1  0.38422674  0.62467452  0.63538081  1
  O  O264  1  0.87752324  0.10706486  0.14432867  1
  O  O265  1  0.85362906  0.14231889  0.64015494  1
  O  O266  1  0.89783014  0.64416727  0.10600944  1
  O  O267  1  0.89032358  0.59610351  0.61540573  1
  O  O268  1  0.25156264  0.27001632  0.12550787  1
  O  O269  1  0.24899457  0.25486117  0.61692501  1
  O  O270  1  0.25192103  0.76036326  0.11633417  1
  O  O271  1  0.24715439  0.76017915  0.61486129  1
  O  O272  1  0.76678497  0.25229092  0.11310724  1
  O  O273  1  0.74419185  0.24923156  0.60747348  1
  O  O274  1  0.76266805  0.73840701  0.12858983  1
  O  O275  1  0.76983337  0.76692870  0.63924004  1
  O  O276  1  0.23235500  0.26170187  0.39091974  1
  O  O277  1  0.28383914  0.19031113  0.86266515  1
  O  O278  1  0.24833753  0.74375971  0.37108750  1
  O  O279  1  0.26456178  0.73684799  0.88511444  1
  O  O280  1  0.76458482  0.22001059  0.39010510  1
  O  O281  1  0.74918152  0.26014157  0.87625237  1
  O  O282  1  0.75323861  0.73927808  0.37141476  1
  O  O283  1  0.73993207  0.73293095  0.87012801  1
  O  O284  1  0.01073867  0.10934304  0.00882365  1
  O  O285  1  0.01133461  0.12264590  0.49403534  1
  O  O286  1  0.01975361  0.62011463  0.00265965  1
  O  O287  1  0.02033582  0.64538868  0.49695197  1
  O  O288  1  0.47014559  0.11865584  -0.01567693  1
  O  O289  1  0.51682417  0.10901121  0.49049271  1
  O  O290  1  0.49585184  0.63702239  0.00016757  1
  O  O291  1  0.51852251  0.62120398  0.50364149  1
  O  O292  1  0.48579194  0.39893019  0.52434064  1
  O  O293  1  0.50242193  0.36769737  1.00216172  1
  O  O294  1  0.50703923  0.88949027  0.48866648  1
  O  O295  1  0.48878705  0.88396953  1.00760397  1
  O  O296  1  1.00250406  0.37102291  0.48625907  1
  O  O297  1  1.00888667  0.39258754  0.99484607  1
  O  O298  1  0.99137651  0.86234031  0.48566824  1
  O  O299  1  1.00205098  0.89234959  1.00931088  1
  O  O300  1  0.48574168  0.50316360  0.38802608  1
  O  O301  1  0.49620380  0.49889944  0.88097727  1
  O  O302  1  0.49200166  0.99457038  0.37552007  1
  O  O303  1  0.50052776  0.98505214  0.89197137  1
  O  O304  1  1.00389141  0.48948666  0.37822701  1
  O  O305  1  1.00885704  0.51399281  0.88841569  1
  O  O306  1  0.99244346  0.98060152  0.37810936  1
  O  O307  1  0.98879753  1.00031347  0.89387738  1
  O  O308  1  0.01576284  -0.00605392  0.13115959  1
  O  O309  1  0.03945202  -0.03974654  0.61419661  1
  O  O310  1  0.01849981  0.51613014  0.11330333  1
  O  O311  1  -0.04904084  0.55920887  0.63863825  1
  O  O312  1  0.49660661  0.02365168  0.10639213  1
  O  O313  1  0.48415448  0.00220547  0.61002654  1
  O  O314  1  0.50408719  0.50504026  0.09349128  1
  O  O315  1  0.49695657  0.52068030  0.60907013  1
  O  O316  1  0.23426713  0.39145859  0.26251203  1
  O  O317  1  0.24220161  0.37341907  0.73300957  1
  O  O318  1  0.24413892  0.87969166  0.24530550  1
  O  O319  1  0.24099536  0.89266020  0.77011217  1
  O  O320  1  0.67665303  0.30319164  0.28244366  1
  O  O321  1  0.72643777  0.35495117  0.73655204  1
  O  O322  1  0.73375430  0.87276523  0.25117129  1
  O  O323  1  0.74446084  0.87791095  0.74808682  1
  O  O324  1  0.24628341  0.10795228  0.25117721  1
  O  O325  1  0.23170799  0.10490349  0.74972681  1
  O  O326  1  0.25094058  0.60922571  0.24890928  1
  O  O327  1  0.26263555  0.62556044  0.75189694  1
  O  O328  1  0.76771992  0.11799089  0.26814220  1
  O  O329  1  0.71852122  0.12682155  0.76856570  1
  O  O330  1  0.72759022  0.62839919  0.25946425  1
  O  O331  1  0.75834290  0.61951258  0.72866795  1
  O  O332  1  0.38232580  0.10952372  0.36493885  1
  O  O333  1  0.34926976  0.15734985  0.87505430  1
  O  O334  1  0.37944648  0.62191000  0.37209997  1
  O  O335  1  0.37660329  0.62003725  0.85841625  1
  O  O336  1  0.87664401  0.10675751  0.37848569  1
  O  O337  1  0.87947984  0.11089363  0.87612922  1
  O  O338  1  0.84928508  0.61163753  0.37308338  1
  O  O339  1  0.86613338  0.63019410  0.88570745  1
  O  O340  1  0.12153276  0.38869105  0.13323160  1
  O  O341  1  0.13459330  0.37744104  0.62768800  1
  O  O342  1  0.13777033  0.88161821  0.13304298  1
  O  O343  1  0.10823427  0.93561630  0.61393957  1
  O  O344  1  0.60656259  0.38684505  0.15127087  1
  O  O345  1  0.63265455  0.35603269  0.60836513  1
  O  O346  1  0.62395113  0.87869874  0.12922684  1
  O  O347  1  0.63910371  0.86856313  0.63926389  1
  O  O348  1  0.13180088  0.25775386  0.26364154  1
  O  O349  1  0.10594716  0.26438951  0.73544677  1
  O  O350  1  0.13645707  0.75685604  0.25850742  1
  O  O351  1  0.13810269  0.77278298  0.76086004  1
  O  O352  1  0.63884177  0.24526914  0.24031744  1
  O  O353  1  0.61297509  0.24785999  0.76764937  1
  O  O354  1  0.60406734  0.76989337  0.24346112  1
  O  O355  1  0.62614090  0.77146363  0.76627960  1
  O  O356  1  0.36092224  0.25923992  0.23744457  1
  O  O357  1  0.37522685  0.25243265  0.73974407  1
  O  O358  1  0.39400856  0.76154006  0.24947788  1
  O  O359  1  0.37638870  0.73772070  0.75253373  1
  O  O360  1  0.87847222  0.22657873  0.24981204  1
  O  O361  1  0.88877472  0.25055414  0.74850476  1
  O  O362  1  0.87948158  0.75660776  0.23427446  1
  O  O363  1  0.89480026  0.75460345  0.76438577  1
  O  O364  1  0.38180648  0.51410440  0.48904286  1
  O  O365  1  0.38937102  0.49617470  0.97867015  1
  O  O366  1  0.38698310  1.00938185  0.48444407  1
  O  O367  1  0.37871075  0.99173755  1.00169520  1
  O  O368  1  0.86931118  0.49230895  0.46623567  1
  O  O369  1  0.89840302  0.49821735  1.00311156  1
  O  O370  1  0.87788387  0.98798215  0.49236289  1
  O  O371  1  0.88729529  0.99155140  1.01246074  1
  O  O372  1  0.11820351  0.00735978  0.01855580  1
  O  O373  1  0.13200952  0.01524977  0.47767084  1
  O  O374  1  0.13014303  0.50588008  0.00240673  1
  O  O375  1  0.12894534  0.51661946  0.49941257  1
  O  O376  1  0.60855984  0.02264813  -0.00764225  1
  O  O377  1  0.61522944  0.00206532  0.50150046  1
  O  O378  1  0.61168886  0.48709005  -0.00731010  1
  O  O379  1  0.60862014  0.48508435  0.48274172  1
  O  O380  1  0.37822972  0.38322693  0.13343794  1
  O  O381  1  0.36353131  0.35552299  0.60585807  1
  O  O382  1  0.36687373  0.88464897  0.11931953  1
  O  O383  1  0.31343752  0.91616598  0.61865742  1
  O  O384  1  0.89293544  0.38050456  0.10257841  1
  O  O385  1  0.84629915  0.34598707  0.63321860  1
  O  O386  1  0.87798262  0.86447982  0.12044615  1
  O  O387  1  0.87208836  0.87819493  0.61015673  1
  O  O388  1  0.12108088  0.14189363  0.37584775  1
  O  O389  1  0.11952333  0.11945476  0.89110240  1
  O  O390  1  0.12493760  0.63744908  0.36814155  1
  O  O391  1  0.14348448  0.61932173  0.88131102  1
  O  O392  1  0.64261355  0.10997204  0.37454863  1
  O  O393  1  0.61940859  0.15858579  0.91235066  1
  O  O394  1  0.63737278  0.62022614  0.39260623  1
  O  O395  1  0.61310815  0.64372480  0.87091921  1
