# generated using pymatgen
data_V35Zn35O128
_symmetry_space_group_name_H-M   'P 1'
_cell_length_a   16.94890420
_cell_length_b   16.91125032
_cell_length_c   16.94785746
_cell_angle_alpha   89.31332516
_cell_angle_beta   89.94278813
_cell_angle_gamma   89.71368102
_symmetry_Int_Tables_number   1
_chemical_formula_structural   V35Zn35O128
_chemical_formula_sum   'V70 Zn70 O256'
_cell_volume   4857.30462672
_cell_formula_units_Z   2
loop_
 _symmetry_equiv_pos_site_id
 _symmetry_equiv_pos_as_xyz
  1  'x, y, z'
loop_
 _atom_site_type_symbol
 _atom_site_label
 _atom_site_symmetry_multiplicity
 _atom_site_fract_x
 _atom_site_fract_y
 _atom_site_fract_z
 _atom_site_occupancy
  V  V0  1  0.02166517  0.24770372  0.24319234  1
  V  V1  1  0.23367020  0.74973513  -0.00554182  1
  V  V2  1  0.74097475  0.67343869  0.39886571  1
  V  V3  1  0.87375557  0.49916579  0.88181792  1
  V  V4  1  0.00740029  0.75395741  0.74986586  1
  V  V5  1  0.49929680  0.00447089  -0.00478982  1
  V  V6  1  -0.00013263  0.25742498  0.74523372  1
  V  V7  1  0.37191002  -0.00135129  0.86093496  1
  V  V8  1  0.25973717  0.27732620  0.01176232  1
  V  V9  1  0.13613342  0.74376962  0.37326734  1
  V  V10  1  0.51043072  0.75024798  0.22414650  1
  V  V11  1  -0.01342652  0.51680774  0.47367751  1
  V  V12  1  0.36319754  0.33967726  0.49209525  1
  V  V13  1  0.74979179  0.61755280  0.87422977  1
  V  V14  1  0.50819748  0.62534233  0.61853004  1
  V  V15  1  0.24272724  0.09642265  0.37093400  1
  V  V16  1  0.87230963  0.35804964  -0.00216857  1
  V  V17  1  0.11587315  0.08764895  0.49404463  1
  V  V18  1  0.38089962  0.25779810  0.13136713  1
  V  V19  1  0.51494398  0.11919733  0.62959398  1
  V  V20  1  0.76119989  0.75263439  0.00370674  1
  V  V21  1  0.25139292  0.87373588  0.62541557  1
  V  V22  1  0.25371143  0.86881527  0.12950936  1
  V  V23  1  0.50258889  0.87586805  0.86314670  1
  V  V24  1  0.73452368  0.25786504  0.50473305  1
  V  V25  1  0.11648636  -0.01023742  0.65921741  1
  V  V26  1  0.87075163  -0.00238383  0.90040188  1
  V  V27  1  0.26769175  0.49843615  0.74121061  1
  V  V28  1  0.62236257  0.50427789  0.12699754  1
  V  V29  1  0.49011389  0.49187789  -0.00767002  1
  V  V30  1  0.61507096  0.36992951  0.25448132  1
  V  V31  1  0.76654997  0.87660151  0.11911551  1
  V  V32  1  0.12171683  0.00608529  0.10951886  1
  V  V33  1  0.87576248  0.62670733  0.74587274  1
  V  V34  1  0.12356138  0.60966813  -0.00121885  1
  V  V35  1  0.62357009  -0.01487493  0.12510218  1
  V  V36  1  0.76672353  0.50936199  0.25112352  1
  V  V37  1  0.25458918  0.11141331  0.90953702  1
  V  V38  1  0.00494897  0.87565565  0.88547356  1
  V  V39  1  0.25781088  0.48914928  0.26825006  1
  V  V40  1  0.88605210  0.88540783  0.51161989  1
  V  V41  1  0.12807837  0.28105956  0.37854583  1
  V  V42  1  0.61825204  0.62317129  -0.00067244  1
  V  V43  1  0.75811431  0.76974998  0.54055751  1
  V  V44  1  0.12381795  0.87703307  0.24594183  1
  V  V45  1  0.12654063  0.23332245  0.89155828  1
  V  V46  1  0.62336380  0.49071828  0.63663192  1
  V  V47  1  0.47925741  0.86127971  0.39383136  1
  V  V48  1  0.48592452  0.74350531  0.74834109  1
  V  V49  1  0.36638088  0.74439791  0.59552111  1
  V  V50  1  0.26066169  0.62456542  0.86560942  1
  V  V51  1  -0.01437209  0.74274918  0.24383737  1
  V  V52  1  0.88965335  0.37679810  0.50451544  1
  V  V53  1  0.13832645  0.48936681  0.13256153  1
  V  V54  1  0.12253765  0.50926585  0.63630370  1
  V  V55  1  0.50301520  0.12832172  0.13595513  1
  V  V56  1  0.75194778  0.13472538  0.86517120  1
  V  V57  1  0.35198259  0.14366607  0.74424790  1
  V  V58  1  0.75674710  0.36118194  0.12421009  1
  V  V59  1  0.75336914  -0.00012649  0.26466412  1
  V  V60  1  0.62629141  0.75446302  0.86808611  1
  V  V61  1  -0.00616521  0.61844847  0.12619484  1
  V  V62  1  0.14329956  0.62999752  0.49985088  1
  V  V63  1  -0.00963173  0.87921983  0.37053454  1
  V  V64  1  0.36680844  0.63410923  0.24723916  1
  V  V65  1  0.51477928  0.26011713  0.75298510  1
  V  V66  1  0.49908191  0.47509371  0.46508258  1
  V  V67  1  -0.01647645  0.12650941  0.11334431  1
  V  V68  1  0.37548717  0.86583354  -0.00120543  1
  V  V69  1  0.01592108  0.38917187  0.88401259  1
  Zn  Zn70  1  0.76133676  0.38269811  0.63407752  1
  Zn  Zn71  1  0.46871433  0.37082315  0.86958990  1
  Zn  Zn72  1  0.63918984  0.25754821  0.37193591  1
  Zn  Zn73  1  -0.00755552  0.63892833  0.61229768  1
  Zn  Zn74  1  0.27538153  0.33618872  0.63263422  1
  Zn  Zn75  1  0.63063593  0.12632744  -0.00764969  1
  Zn  Zn76  1  0.19069103  0.18834762  0.18860624  1
  Zn  Zn77  1  0.16546448  0.16771465  0.70307485  1
  Zn  Zn78  1  0.18482515  0.68561994  0.18494432  1
  Zn  Zn79  1  0.19273243  0.71007189  0.69569091  1
  Zn  Zn80  1  0.68289387  0.17937423  0.19266204  1
  Zn  Zn81  1  0.69249035  0.19472784  0.68940605  1
  Zn  Zn82  1  0.68969673  0.68955888  0.18559049  1
  Zn  Zn83  1  0.68586952  0.68269168  0.69362642  1
  Zn  Zn84  1  0.31068067  0.30009365  0.31201181  1
  Zn  Zn85  1  0.28367646  0.30985383  0.81476001  1
  Zn  Zn86  1  0.32037010  0.80812881  0.31176976  1
  Zn  Zn87  1  0.30563524  0.81560216  0.81102281  1
  Zn  Zn88  1  0.79548258  0.36165148  0.33917203  1
  Zn  Zn89  1  0.82061371  0.30849107  0.80299590  1
  Zn  Zn90  1  0.81167038  0.81979779  0.29914109  1
  Zn  Zn91  1  0.83832109  0.79675141  0.83613944  1
  Zn  Zn92  1  0.19190946  0.44408703  0.45168727  1
  Zn  Zn93  1  0.31192228  0.45065383  0.93528137  1
  Zn  Zn94  1  0.18867977  0.92049847  0.43821964  1
  Zn  Zn95  1  0.18214095  0.93488334  0.93739855  1
  Zn  Zn96  1  0.68641708  0.44587471  0.44441496  1
  Zn  Zn97  1  0.68957522  0.43390260  0.94226514  1
  Zn  Zn98  1  0.69268750  0.88055846  0.42442040  1
  Zn  Zn99  1  0.68806264  0.94003216  0.93427053  1
  Zn  Zn100  1  0.32750499  0.04340185  0.09676566  1
  Zn  Zn101  1  0.27644748  0.06583910  0.57633805  1
  Zn  Zn102  1  0.31609540  0.57300357  0.07714730  1
  Zn  Zn103  1  0.32548468  0.56028366  0.56156441  1
  Zn  Zn104  1  0.80680399  0.07151835  0.05707224  1
  Zn  Zn105  1  0.82506038  0.07074316  0.51990955  1
  Zn  Zn106  1  0.80964987  0.55732770  0.06179692  1
  Zn  Zn107  1  0.80558983  0.56747735  0.56025620  1
  Zn  Zn108  1  0.43519570  0.45015961  0.18979282  1
  Zn  Zn109  1  0.43779995  0.43164892  0.67633539  1
  Zn  Zn110  1  0.43353850  0.93268235  0.20765914  1
  Zn  Zn111  1  0.42909655  0.94600114  0.56943564  1
  Zn  Zn112  1  0.94381801  0.43136039  0.18310886  1
  Zn  Zn113  1  0.94245293  0.44419302  0.69309018  1
  Zn  Zn114  1  0.93753606  0.94489598  0.18682426  1
  Zn  Zn115  1  0.94124990  0.93908485  0.70201395  1
  Zn  Zn116  1  0.05749445  0.06359239  0.30125084  1
  Zn  Zn117  1  0.05856615  0.06417221  0.82156942  1
  Zn  Zn118  1  0.07278326  0.56439435  0.30625425  1
  Zn  Zn119  1  0.06608728  0.56755463  0.81550188  1
  Zn  Zn120  1  0.37336824  0.11277229  0.26431030  1
  Zn  Zn121  1  0.54723439  0.09077376  0.82298698  1
  Zn  Zn122  1  0.57102914  0.57965787  0.31085201  1
  Zn  Zn123  1  0.56016393  0.55978844  0.81178580  1
  Zn  Zn124  1  0.39949584  0.12755603  0.47921912  1
  Zn  Zn125  1  0.43141101  0.19341341  0.94014402  1
  Zn  Zn126  1  0.43727274  0.66688179  0.42867371  1
  Zn  Zn127  1  0.43820136  0.68676889  0.93967824  1
  Zn  Zn128  1  0.98791907  0.22398998  0.46546423  1
  Zn  Zn129  1  0.93438839  0.18156648  0.92997605  1
  Zn  Zn130  1  0.92630287  0.69634647  0.43216159  1
  Zn  Zn131  1  0.94385768  0.68428908  0.93845636  1
  Zn  Zn132  1  0.06143831  0.31407839  0.06002896  1
  Zn  Zn133  1  0.11360486  0.30021614  0.58608360  1
  Zn  Zn134  1  0.05631768  0.81171284  0.06407737  1
  Zn  Zn135  1  0.06488740  0.81553839  0.56230901  1
  Zn  Zn136  1  0.55671100  0.32363159  0.07096419  1
  Zn  Zn137  1  0.54883309  0.30706846  0.56366937  1
  Zn  Zn138  1  0.56386542  0.81141899  0.05052159  1
  Zn  Zn139  1  0.54762164  0.77042550  0.52120650  1
  O  O140  1  0.13740061  0.10470078  0.12524556  1
  O  O141  1  0.15208548  0.08491364  0.61126704  1
  O  O142  1  0.12108448  0.61736974  0.11556927  1
  O  O143  1  0.12641939  0.63127928  0.60710188  1
  O  O144  1  0.61490197  0.12173857  0.11333570  1
  O  O145  1  0.61451020  0.12019957  0.64582990  1
  O  O146  1  0.63173120  0.61117824  0.11256255  1
  O  O147  1  0.61365850  0.62212433  0.63201223  1
  O  O148  1  0.36718530  0.35781650  0.39120159  1
  O  O149  1  0.35657307  0.37000108  0.87471413  1
  O  O150  1  0.38116618  0.87911009  0.37461536  1
  O  O151  1  0.37827970  0.88129407  0.87788780  1
  O  O152  1  0.88306292  0.38644885  0.40256665  1
  O  O153  1  0.87418231  0.38108279  0.88733059  1
  O  O154  1  0.88867984  0.86652149  0.37064341  1
  O  O155  1  0.87915914  0.89271307  0.87036670  1
  O  O156  1  0.24488269  -0.00417310  0.37262320  1
  O  O157  1  0.25889251  0.00504368  0.88731718  1
  O  O158  1  0.24511718  0.50242592  0.36622276  1
  O  O159  1  0.25383098  0.51521372  0.85669534  1
  O  O160  1  0.73943901  -0.03074299  0.36010667  1
  O  O161  1  0.76538615  0.00348057  0.88166838  1
  O  O162  1  0.75021646  0.48589364  0.35179699  1
  O  O163  1  0.75290534  0.51029407  0.88219485  1
  O  O164  1  0.24066102  0.49846494  0.12542487  1
  O  O165  1  0.24359564  0.52396416  0.63656466  1
  O  O166  1  0.23272103  0.97443150  0.11241215  1
  O  O167  1  0.25286962  0.97185852  0.64739220  1
  O  O168  1  0.73994584  0.49138926  0.12753178  1
  O  O169  1  0.72319943  0.50325005  0.60580836  1
  O  O170  1  0.73793467  0.98619860  0.10587017  1
  O  O171  1  0.67745598  1.01166779  0.54971585  1
  O  O172  1  -0.03360046  0.33286746  0.23646172  1
  O  O173  1  -0.00053958  0.36753050  0.77465544  1
  O  O174  1  0.00458095  0.86140000  0.24863788  1
  O  O175  1  -0.00262088  0.85895963  0.76024349  1
  O  O176  1  0.51791186  0.38224173  0.23943949  1
  O  O177  1  0.49365821  0.36462132  0.75167475  1
  O  O178  1  0.48581063  0.85087819  0.26079942  1
  O  O179  1  0.49920021  0.86087053  0.76308116  1
  O  O180  1  0.50022780  0.12213519  0.23317634  1
  O  O181  1  0.47732518  0.13947285  0.74708279  1
  O  O182  1  0.49675379  0.64736820  0.25586877  1
  O  O183  1  0.50315174  0.63927569  0.74560671  1
  O  O184  1  1.00202681  0.13948182  0.23560727  1
  O  O185  1  1.05847115  0.16568860  0.75969941  1
  O  O186  1  1.00322946  0.63456111  0.23903021  1
  O  O187  1  0.98479697  0.63473380  0.76317204  1
  O  O188  1  0.36693488  0.25546134  0.01370843  1
  O  O189  1  0.36561057  0.24086215  0.50313557  1
  O  O190  1  0.36963926  0.76197191  -0.00426259  1
  O  O191  1  0.37459026  0.74228632  0.49766881  1
  O  O192  1  0.87462817  0.25988111  -0.00613204  1
  O  O193  1  0.90057261  0.27512423  0.51442120  1
  O  O194  1  0.85889047  0.74214653  -0.00364116  1
  O  O195  1  0.86338374  0.76474973  0.50461518  1
  O  O196  1  0.10288999  0.26167148  0.48000974  1
  O  O197  1  0.14366071  0.26257531  0.99444336  1
  O  O198  1  0.11936197  0.74085940  0.48440874  1
  O  O199  1  0.13278841  0.74544636  0.99813802  1
  O  O200  1  0.62991991  0.26122082  0.49068881  1
  O  O201  1  0.62475840  0.28233045  0.97582366  1
  O  O202  1  0.65754238  0.79166986  0.50959423  1
  O  O203  1  0.62919895  0.73856478  0.98860857  1
  O  O204  1  0.49553358  0.23977285  0.11840521  1
  O  O205  1  0.49983050  0.24153558  0.64636534  1
  O  O206  1  0.49819097  0.75521913  0.12429543  1
  O  O207  1  0.49338206  0.74866261  0.63845246  1
  O  O208  1  1.01740478  0.23268586  0.12896611  1
  O  O209  1  1.01688006  0.27539243  0.64825026  1
  O  O210  1  1.00709732  0.73661319  0.13575903  1
  O  O211  1  1.00544187  0.75003204  0.64204773  1
  O  O212  1  0.02293967  0.24201947  0.35371096  1
  O  O213  1  0.02064917  0.25718123  0.88145533  1
  O  O214  1  0.00349243  0.75141462  0.35597511  1
  O  O215  1  -0.01762138  0.76512358  0.86749191  1
  O  O216  1  0.58897777  0.13700752  0.37110030  1
  O  O217  1  0.48918338  0.25014804  0.85968323  1
  O  O218  1  0.50464644  0.76039622  0.39285962  1
  O  O219  1  0.50631995  0.75420070  0.86911832  1
  O  O220  1  0.22355101  0.11886104  0.48232452  1
  O  O221  1  0.26253318  0.10525061  1.00726761  1
  O  O222  1  0.24055903  0.61595309  0.49553112  1
  O  O223  1  0.24237309  0.63566637  1.00150811  1
  O  O224  1  0.76473436  0.15934341  0.50281324  1
  O  O225  1  0.74425614  0.12881610  0.98511394  1
  O  O226  1  0.74751782  0.66087163  0.50649613  1
  O  O227  1  0.74081092  0.63347384  0.99464178  1
  O  O228  1  0.25545895  0.37554033  0.00785937  1
  O  O229  1  0.26088621  0.37304015  0.50909703  1
  O  O230  1  0.25332036  0.86167850  -0.00109750  1
  O  O231  1  0.23614437  0.86493852  0.52429636  1
  O  O232  1  0.75992645  0.37433844  0.01283651  1
  O  O233  1  0.76408952  0.37303232  0.50690370  1
  O  O234  1  0.74580047  0.85889527  0.00241440  1
  O  O235  1  0.77443878  0.87726245  0.51454611  1
  O  O236  1  0.14338199  0.50642327  0.23983030  1
  O  O237  1  0.13694186  0.51736526  0.73952648  1
  O  O238  1  0.12016121  0.98005285  0.23932501  1
  O  O239  1  0.13368527  1.00233393  0.75683141  1
  O  O240  1  0.62848313  0.49752480  0.23340018  1
  O  O241  1  0.62361117  0.50141302  0.73720554  1
  O  O242  1  0.63796173  0.99396540  0.22290130  1
  O  O243  1  0.63737871  0.96317823  0.70450532  1
  O  O244  1  0.36422664  0.01671284  0.20658226  1
  O  O245  1  0.37227330  0.01401660  0.76428070  1
  O  O246  1  0.36276579  0.50780657  0.25098575  1
  O  O247  1  0.36648129  0.50639874  0.73478716  1
  O  O248  1  0.85323192  -0.00533164  0.24493660  1
  O  O249  1  0.79687402  0.01198014  0.67758198  1
  O  O250  1  0.86456751  0.49344917  0.23799092  1
  O  O251  1  0.88108799  0.51518646  0.76896954  1
  O  O252  1  0.12908166  0.38012269  0.37608155  1
  O  O253  1  0.11087565  0.39345513  0.89368233  1
  O  O254  1  0.11346351  0.86060207  0.36506901  1
  O  O255  1  0.10532808  0.88185816  0.87521267  1
  O  O256  1  0.62890008  0.38072982  0.35610475  1
  O  O257  1  0.63024193  0.33086844  0.91520714  1
  O  O258  1  0.58794944  0.89910887  0.36492237  1
  O  O259  1  0.61512957  0.86542147  0.88145346  1
  O  O260  1  0.39907020  0.13542609  0.10941235  1
  O  O261  1  0.34808611  0.12965305  0.64588315  1
  O  O262  1  0.39279715  0.61340709  0.14551618  1
  O  O263  1  0.39456602  0.63828866  0.62085568  1
  O  O264  1  0.88424970  0.12424379  0.12248806  1
  O  O265  1  0.84639601  0.06103465  0.63923245  1
  O  O266  1  0.89585607  0.61590650  0.11120913  1
  O  O267  1  0.87326569  0.61624099  0.64409382  1
  O  O268  1  0.26187716  0.24601504  0.11510028  1
  O  O269  1  0.20241431  0.25287057  0.63874010  1
  O  O270  1  0.24143306  0.76059789  0.10829498  1
  O  O271  1  0.26724345  0.73133827  0.60937827  1
  O  O272  1  0.74607197  0.26295812  0.13385458  1
  O  O273  1  0.73674729  0.26645103  0.61200390  1
  O  O274  1  0.74636098  0.76064869  0.11137847  1
  O  O275  1  0.75432791  0.75900049  0.63922144  1
  O  O276  1  0.22374766  0.24515366  0.36888823  1
  O  O277  1  0.25549452  0.22752668  0.91159108  1
  O  O278  1  0.23386199  0.75764991  0.37046461  1
  O  O279  1  0.24984877  0.74211893  0.88863293  1
  O  O280  1  0.75353083  0.26969498  0.39471545  1
  O  O281  1  0.76707683  0.23400173  0.87213643  1
  O  O282  1  0.73426398  0.77567841  0.37221799  1
  O  O283  1  0.74431208  0.74399191  0.88525470  1
  O  O284  1  -0.00098973  0.13242000  0.01365967  1
  O  O285  1  0.02170266  0.12312054  0.50861933  1
  O  O286  1  0.01664024  0.63143063  0.01090114  1
  O  O287  1  -0.00014960  0.62658530  0.49593798  1
  O  O288  1  0.50514683  0.11337879  -0.01051064  1
  O  O289  1  0.50068197  0.14137355  0.53048255  1
  O  O290  1  0.51267975  0.61355632  -0.00887655  1
  O  O291  1  0.51518186  0.65358655  0.51780702  1
  O  O292  1  0.48260330  0.37192521  0.48804715  1
  O  O293  1  0.49613241  0.38844218  0.99624528  1
  O  O294  1  0.48985910  0.87260755  0.49980101  1
  O  O295  1  0.49143872  0.87866349  0.98597072  1
  O  O296  1  0.99303696  0.41463945  0.50745941  1
  O  O297  1  0.98454062  0.37177349  0.99172047  1
  O  O298  1  0.99419827  0.86129705  0.47865621  1
  O  O299  1  0.99481531  0.86580896  0.98563947  1
  O  O300  1  0.51003484  0.49946216  0.36817253  1
  O  O301  1  0.50505376  0.49268135  0.88762017  1
  O  O302  1  0.53607030  0.96116501  0.37632870  1
  O  O303  1  0.49195438  0.99444703  0.87648322  1
  O  O304  1  0.99719567  0.51440845  0.37495799  1
  O  O305  1  0.99227323  0.49337828  0.87519910  1
  O  O306  1  1.00048093  0.97722666  0.35579434  1
  O  O307  1  0.98257477  0.99036193  0.86311812  1
  O  O308  1  0.01070754  0.01611661  0.13193189  1
  O  O309  1  0.01780327  0.00676250  0.65235038  1
  O  O310  1  0.01578868  0.51348466  0.13996120  1
  O  O311  1  0.01634726  0.52186860  0.63784698  1
  O  O312  1  0.51081348  0.00818882  0.11511541  1
  O  O313  1  0.49067725  0.02002876  0.63531431  1
  O  O314  1  0.51741931  0.49261970  0.11106708  1
  O  O315  1  0.50627169  0.51924003  0.62902887  1
  O  O316  1  0.26048894  0.38990879  0.25473861  1
  O  O317  1  0.25426499  0.39726574  0.73651941  1
  O  O318  1  0.24238177  0.86165419  0.23306852  1
  O  O319  1  0.23704442  0.82407888  0.72251926  1
  O  O320  1  0.74432887  0.38539305  0.23497778  1
  O  O321  1  0.76108697  0.38050893  0.74570051  1
  O  O322  1  0.74798725  0.88098022  0.22303272  1
  O  O323  1  0.83197672  0.96902150  0.73517099  1
  O  O324  1  0.23616039  0.12025865  0.26908103  1
  O  O325  1  0.25285802  0.12942670  0.77526044  1
  O  O326  1  0.26043329  0.61992862  0.24049684  1
  O  O327  1  0.25065623  0.63270984  0.76455799  1
  O  O328  1  0.73502952  0.10148172  0.25748890  1
  O  O329  1  0.74787571  0.12684658  0.76360048  1
  O  O330  1  0.75280727  0.60920213  0.23455064  1
  O  O331  1  0.76193963  0.63096442  0.76593157  1
  O  O332  1  0.34721535  0.12414606  0.37660180  1
  O  O333  1  0.36292016  0.11559440  0.87919200  1
  O  O334  1  0.37605395  0.62240491  0.35135614  1
  O  O335  1  0.35900419  0.62752429  0.88418807  1
  O  O336  1  0.88133548  0.13229977  0.36658414  1
  O  O337  1  0.86947253  0.10666900  0.87477762  1
  O  O338  1  0.83457946  0.64656048  0.37297875  1
  O  O339  1  0.86591245  0.61860985  0.87732837  1
  O  O340  1  0.11575292  0.39250821  0.12297451  1
  O  O341  1  0.12950816  0.41255310  0.61491251  1
  O  O342  1  0.12703863  0.87689371  0.12878628  1
  O  O343  1  0.12685071  0.88619949  0.62935289  1
  O  O344  1  0.63725465  0.38327878  0.12935529  1
  O  O345  1  0.60921405  0.39107786  0.62385244  1
  O  O346  1  0.62571921  0.88370449  0.11385128  1
  O  O347  1  0.66935973  0.90041651  0.68779906  1
  O  O348  1  0.12356274  0.26528043  0.24771900  1
  O  O349  1  0.16458861  0.27702892  0.80972307  1
  O  O350  1  0.11953639  0.75456722  0.25720668  1
  O  O351  1  0.10363701  0.73184799  0.76429295  1
  O  O352  1  0.62812336  0.26352562  0.25437538  1
  O  O353  1  0.61340094  0.25163026  0.75725539  1
  O  O354  1  0.61123071  0.75101682  0.23670860  1
  O  O355  1  0.61903674  0.74681549  0.76518892  1
  O  O356  1  0.36492810  0.23149856  0.23288998  1
  O  O357  1  0.35841651  0.24511474  0.75160208  1
  O  O358  1  0.37581127  0.73993356  0.24045071  1
  O  O359  1  0.38761928  0.74800547  0.75748840  1
  O  O360  1  0.85528444  0.17607138  0.31448274  1
  O  O361  1  0.90341737  0.23751504  0.75753554  1
  O  O362  1  0.88714910  0.75140818  0.24311287  1
  O  O363  1  0.87956873  0.73428653  0.75243136  1
  O  O364  1  0.41344972  0.52351079  0.49597782  1
  O  O365  1  0.38733205  0.50813839  1.00440030  1
  O  O366  1  0.36430465  1.02332167  0.51620215  1
  O  O367  1  0.38741372  0.98593215  0.99850988  1
  O  O368  1  0.88443483  0.52175817  0.49170593  1
  O  O369  1  0.87177341  0.49370484  0.98721408  1
  O  O370  1  0.88129123  0.98464387  0.48505386  1
  O  O371  1  0.87909940  0.99745133  0.99844216  1
  O  O372  1  0.11569634  -0.00532678  0.01082250  1
  O  O373  1  0.11049490  -0.01256993  0.49655071  1
  O  O374  1  0.12854198  0.51092128  0.01482194  1
  O  O375  1  0.11275968  0.52242359  0.50130020  1
  O  O376  1  0.61025103  -0.00443194  0.00162075  1
  O  O377  1  0.62818291  -0.03233797  0.51949027  1
  O  O378  1  0.62054168  0.50421130  0.00583402  1
  O  O379  1  0.59640479  0.49372822  0.50309731  1
  O  O380  1  0.38922460  0.35648900  0.13574140  1
  O  O381  1  0.37797597  0.37504896  0.60095950  1
  O  O382  1  0.35742621  0.87658318  0.11401388  1
  O  O383  1  0.36394501  0.85385033  0.61934153  1
  O  O384  1  0.86567528  0.37713964  0.10959000  1
  O  O385  1  0.87407179  0.40842372  0.61077671  1
  O  O386  1  0.86483189  0.88076300  0.11706054  1
  O  O387  1  0.90289721  0.88367055  0.60839963  1
  O  O388  1  0.12416305  0.10597346  0.38395297  1
  O  O389  1  0.14186645  0.12653055  0.89277616  1
  O  O390  1  0.12539413  0.63807127  0.38027644  1
  O  O391  1  0.13772973  0.61692588  0.89379353  1
  O  O392  1  0.62001993  0.09026786  0.41905467  1
  O  O393  1  0.64038296  0.11701937  0.87524883  1
  O  O394  1  0.65886749  0.62359951  0.36846627  1
  O  O395  1  0.63320718  0.63012445  0.88034106  1
