# generated using pymatgen
data_V35Zn35O128
_symmetry_space_group_name_H-M   'P 1'
_cell_length_a   16.94365639
_cell_length_b   17.05105465
_cell_length_c   16.83362889
_cell_angle_alpha   89.70184513
_cell_angle_beta   90.27419766
_cell_angle_gamma   90.18684577
_symmetry_Int_Tables_number   1
_chemical_formula_structural   V35Zn35O128
_chemical_formula_sum   'V70 Zn70 O256'
_cell_volume   4863.20977135
_cell_formula_units_Z   2
loop_
 _symmetry_equiv_pos_site_id
 _symmetry_equiv_pos_as_xyz
  1  'x, y, z'
loop_
 _atom_site_type_symbol
 _atom_site_label
 _atom_site_symmetry_multiplicity
 _atom_site_fract_x
 _atom_site_fract_y
 _atom_site_fract_z
 _atom_site_occupancy
  V  V0  1  0.25996770  0.12180101  0.89692305  1
  V  V1  1  0.51306266  0.26520834  0.74508400  1
  V  V2  1  0.24693276  0.90544666  0.63968332  1
  V  V3  1  -0.00646259  0.49278056  0.00151046  1
  V  V4  1  0.14541303  0.75536465  0.36489878  1
  V  V5  1  0.73542316  0.49572052  0.21813507  1
  V  V6  1  0.86179756  0.64203116  0.25748017  1
  V  V7  1  0.74168476  0.14314821  0.37026415  1
  V  V8  1  0.27604165  0.49821562  0.25028587  1
  V  V9  1  0.01787646  -0.01385297  0.50885885  1
  V  V10  1  0.51177211  0.50600868  0.02480380  1
  V  V11  1  0.63545161  0.13479465  0.50996711  1
  V  V12  1  0.11625083  -0.00336250  0.10064138  1
  V  V13  1  0.36980315  0.13142308  0.25641760  1
  V  V14  1  0.76150116  -0.01760650  0.74989194  1
  V  V15  1  0.50563184  0.64412912  0.63841657  1
  V  V16  1  0.75026422  0.90145716  0.12936777  1
  V  V17  1  0.04651561  0.49857481  0.51843330  1
  V  V18  1  0.85414934  0.74962879  0.61073438  1
  V  V19  1  0.23665547  -0.00640558  0.24804321  1
  V  V20  1  0.86958201  0.13284837  0.73595165  1
  V  V21  1  0.37367938  0.24674149  0.11160618  1
  V  V22  1  0.25351748  0.61625872  0.88180636  1
  V  V23  1  0.38847580  0.26171173  0.61582796  1
  V  V24  1  0.23623088  0.49382679  0.74935710  1
  V  V25  1  0.50306585  0.10592801  0.12825786  1
  V  V26  1  0.23783416  0.36221585  0.12527949  1
  V  V27  1  0.86515500  -0.01347483  0.38382613  1
  V  V28  1  0.23444326  0.13531889  0.37944261  1
  V  V29  1  0.50680601  0.00687332  0.49171654  1
  V  V30  1  -0.00071521  0.37397492  0.87141025  1
  V  V31  1  0.46090990  0.07742683  0.66592692  1
  V  V32  1  0.79499366  0.30853306  0.05758455  1
  V  V33  1  0.23810943  0.37789256  0.62743013  1
  V  V34  1  0.11465987  0.75084710  0.87747814  1
  V  V35  1  0.48897119  0.36919430  0.36627029  1
  V  V36  1  0.88202598  0.13082963  0.25921802  1
  V  V37  1  0.23650265  0.25014338  0.50417199  1
  V  V38  1  0.73833125  0.13467004  0.88137836  1
  V  V39  1  0.01071658  0.86943977  0.36296814  1
  V  V40  1  0.49479884  0.49892430  0.49712885  1
  V  V41  1  0.85749799  0.46604641  0.38616569  1
  V  V42  1  0.12578030  0.62277369  0.00615996  1
  V  V43  1  0.62034702  0.63424491  0.49470480  1
  V  V44  1  0.35391693  0.75495222  0.62947742  1
  V  V45  1  0.00647852  0.25761967  0.73373538  1
  V  V46  1  0.37251928  0.00009033  0.37955963  1
  V  V47  1  0.48349181  0.71257827  0.20542119  1
  V  V48  1  0.51441779  0.25082781  0.24638467  1
  V  V49  1  0.11273064  0.49278020  0.14697263  1
  V  V50  1  -0.00542457  0.62691515  0.13209179  1
  V  V51  1  0.75814102  0.49146871  0.74743128  1
  V  V52  1  0.89082146  0.01181532  0.87747072  1
  V  V53  1  0.02344948  0.10680414  0.62882800  1
  V  V54  1  0.88632134  0.76161871  0.11326559  1
  V  V55  1  0.87666085  0.50579071  0.86932220  1
  V  V56  1  -0.00297313  0.13164900  0.10701906  1
  V  V57  1  0.00598129  0.73803048  0.71801724  1
  V  V58  1  0.38047772  0.62159092  0.75675140  1
  V  V59  1  0.88923988  0.89385152  -0.00772809  1
  V  V60  1  0.35441558  0.88649995  0.01875545  1
  V  V61  1  0.51751706  0.84076911  0.37656099  1
  V  V62  1  0.61466022  0.76090303  0.86581327  1
  V  V63  1  0.49620578  0.40728733  0.85741473  1
  V  V64  1  0.64495616  -0.01693541  0.61896320  1
  V  V65  1  0.61941871  0.49850933  0.64577925  1
  V  V66  1  0.50805898  -0.00947225  -0.02157301  1
  V  V67  1  0.13367580  0.25583657  0.89132156  1
  V  V68  1  0.70942918  0.70792939  0.04504581  1
  V  V69  1  0.77231188  0.65449516  0.85545885  1
  Zn  Zn70  1  0.24064107  0.60963024  0.38049753  1
  Zn  Zn71  1  0.36426131  0.13545954  0.77597038  1
  Zn  Zn72  1  0.36896261  0.87184954  0.50256003  1
  Zn  Zn73  1  0.37147950  0.38435014  -0.01223364  1
  Zn  Zn74  1  -0.04821553  0.31177761  0.33180188  1
  Zn  Zn75  1  0.73440730  0.61789718  0.37767406  1
  Zn  Zn76  1  0.19845998  0.16169590  0.16064343  1
  Zn  Zn77  1  0.19194197  0.19304451  0.70042919  1
  Zn  Zn78  1  0.16312708  0.66033042  0.22514310  1
  Zn  Zn79  1  0.19478641  0.69716939  0.71213616  1
  Zn  Zn80  1  0.63820478  0.21993830  0.08560314  1
  Zn  Zn81  1  0.64602067  0.14793629  0.72694798  1
  Zn  Zn82  1  0.65234733  0.67185688  0.21986516  1
  Zn  Zn83  1  0.68721780  0.69625212  0.69480482  1
  Zn  Zn84  1  0.31138567  0.31651253  0.31280377  1
  Zn  Zn85  1  0.32255210  0.30991746  0.80766154  1
  Zn  Zn86  1  0.32277308  0.81138572  0.30222877  1
  Zn  Zn87  1  0.30387506  0.80050678  0.82285100  1
  Zn  Zn88  1  0.78372016  0.30798276  0.27577984  1
  Zn  Zn89  1  0.77901040  0.34276013  0.86631698  1
  Zn  Zn90  1  0.83834062  0.82213931  0.29847851  1
  Zn  Zn91  1  0.87434479  0.82804847  0.78946504  1
  Zn  Zn92  1  0.21625935  0.44018613  0.44669512  1
  Zn  Zn93  1  0.18190406  0.43612946  0.94217721  1
  Zn  Zn94  1  0.19249545  0.93792323  0.44125951  1
  Zn  Zn95  1  0.16770508  0.95333205  0.90072030  1
  Zn  Zn96  1  0.67263525  0.42364847  0.36570920  1
  Zn  Zn97  1  0.68342797  0.44229146  1.02775661  1
  Zn  Zn98  1  0.68348592  0.92232217  0.31045368  1
  Zn  Zn99  1  0.69828335  0.93832452  0.94417895  1
  Zn  Zn100  1  0.31281782  0.05715063  0.05766817  1
  Zn  Zn101  1  0.31032148  0.06730488  0.55760711  1
  Zn  Zn102  1  0.30691194  0.54461434  0.06409564  1
  Zn  Zn103  1  0.31904411  0.56074730  0.56331580  1
  Zn  Zn104  1  0.78432522  0.10699025  0.08953186  1
  Zn  Zn105  1  0.81820512  0.05723491  0.55614257  1
  Zn  Zn106  1  0.81587559  0.56590530  0.05792267  1
  Zn  Zn107  1  0.80280863  0.55547957  0.55352691  1
  Zn  Zn108  1  0.44344593  0.43402035  0.16605581  1
  Zn  Zn109  1  0.42719140  0.44537684  0.67615923  1
  Zn  Zn110  1  0.42723210  0.92639173  0.19914962  1
  Zn  Zn111  1  0.38943502  0.91572326  0.74215808  1
  Zn  Zn112  1  0.91667154  0.43760087  0.18835675  1
  Zn  Zn113  1  0.94501679  0.44542503  0.68241112  1
  Zn  Zn114  1  0.93979164  0.95140506  0.19183584  1
  Zn  Zn115  1  1.06717014  0.91933203  0.72635325  1
  Zn  Zn116  1  0.05881053  0.05875280  0.32226261  1
  Zn  Zn117  1  0.07650138  0.08365481  0.81485694  1
  Zn  Zn118  1  0.03471987  0.56918128  0.33991430  1
  Zn  Zn119  1  0.06227674  0.56472701  0.81085734  1
  Zn  Zn120  1  0.56501460  0.06783200  0.31312927  1
  Zn  Zn121  1  0.56872386  -0.06809082  0.80484758  1
  Zn  Zn122  1  0.54313964  0.55417922  0.30972968  1
  Zn  Zn123  1  0.61194834  0.55061065  0.86414332  1
  Zn  Zn124  1  0.44165606  0.18873768  0.44044228  1
  Zn  Zn125  1  0.46826191  0.18466554  0.94258595  1
  Zn  Zn126  1  0.41342679  0.67205541  0.45021201  1
  Zn  Zn127  1  0.46689760  0.71020989  0.99205532  1
  Zn  Zn128  1  0.93830804  0.16022810  0.44331320  1
  Zn  Zn129  1  0.92475033  0.19921514  0.93087027  1
  Zn  Zn130  1  1.00667192  0.69317325  0.47522243  1
  Zn  Zn131  1  0.93824485  0.68578335  0.94594048  1
  Zn  Zn132  1  0.04765676  0.31157390  0.07021416  1
  Zn  Zn133  1  0.02636410  0.30036023  0.52144190  1
  Zn  Zn134  1  0.07071495  0.81616396  0.06158966  1
  Zn  Zn135  1  0.10098661  0.81694238  0.55595939  1
  Zn  Zn136  1  0.59252314  0.32605493  -0.02995889  1
  Zn  Zn137  1  0.62087699  0.34502157  0.52713751  1
  Zn  Zn138  1  0.56712084  0.82934389  0.06613307  1
  Zn  Zn139  1  0.55427570  0.81625894  0.55842745  1
  O  O140  1  0.10528592  0.11504754  0.12452779  1
  O  O141  1  0.12089777  0.12317319  0.63863848  1
  O  O142  1  0.11298000  0.61195188  0.12870897  1
  O  O143  1  0.14464158  0.62616784  0.61686239  1
  O  O144  1  0.60130470  0.12107151  0.13408358  1
  O  O145  1  0.64073767  0.10554798  0.61349308  1
  O  O146  1  0.65354522  0.65159882  0.10509243  1
  O  O147  1  0.61283354  0.63016302  0.63032762  1
  O  O148  1  0.39026369  0.38212293  0.36988164  1
  O  O149  1  0.39099116  0.37350181  0.87360573  1
  O  O150  1  0.35337933  0.89744176  0.38470423  1
  O  O151  1  0.37680481  0.83150130  0.91163115  1
  O  O152  1  0.84858397  0.36723187  0.36133774  1
  O  O153  1  0.88980497  0.39384734  0.86953573  1
  O  O154  1  0.89455187  0.88231329  0.37820249  1
  O  O155  1  0.88223179  0.89655871  0.88394035  1
  O  O156  1  0.25245514  0.01884094  0.37407722  1
  O  O157  1  0.25885618  0.02324295  0.88880487  1
  O  O158  1  0.24543871  0.48093968  0.34965263  1
  O  O159  1  0.24222021  0.50471784  0.86372894  1
  O  O160  1  0.76638308  -0.02726411  0.38494112  1
  O  O161  1  0.75602096  0.00486960  0.85775258  1
  O  O162  1  0.76245874  0.50778141  0.35093511  1
  O  O163  1  0.76649161  0.51643837  0.86108412  1
  O  O164  1  0.23325184  0.49249608  0.14285522  1
  O  O165  1  0.25562567  0.48615421  0.63252573  1
  O  O166  1  0.22920765  1.02054965  0.14002673  1
  O  O167  1  0.25865541  1.00412553  0.63816037  1
  O  O168  1  0.73640440  0.50150371  0.11253391  1
  O  O169  1  0.73978502  0.51023145  0.64036731  1
  O  O170  1  0.76303447  0.99980406  0.12847939  1
  O  O171  1  0.75124747  0.99259977  0.62873862  1
  O  O172  1  -0.01668121  0.36631105  0.24075706  1
  O  O173  1  -0.00695508  0.36149775  0.75190973  1
  O  O174  1  0.00474056  0.88386499  0.26424478  1
  O  O175  1  -0.01032112  0.84113234  0.75152486  1
  O  O176  1  0.48424770  0.35139297  0.24606755  1
  O  O177  1  0.48860681  0.37234631  0.74958775  1
  O  O178  1  0.48097072  0.88157005  0.29068598  1
  O  O179  1  0.48953141  0.87568196  0.75229135  1
  O  O180  1  0.48869384  0.13628571  0.25290266  1
  O  O181  1  0.51788559  0.14166332  0.71836579  1
  O  O182  1  0.48881845  0.61322770  0.22713609  1
  O  O183  1  0.48283506  0.63218036  0.74859172  1
  O  O184  1  0.98289901  0.13133729  0.28070442  1
  O  O185  1  0.99737246  0.13149103  0.73822222  1
  O  O186  1  0.98097706  0.61739854  0.23552309  1
  O  O187  1  1.01178479  0.64006353  0.74499533  1
  O  O188  1  0.38518617  0.25055964  0.01279665  1
  O  O189  1  0.37106307  0.24682121  0.51128568  1
  O  O190  1  0.36807650  0.77688606  -0.02276438  1
  O  O191  1  0.37425692  0.75359956  0.52694575  1
  O  O192  1  0.86919439  0.26459882  0.00552089  1
  O  O193  1  0.81438410  0.27375058  0.57078194  1
  O  O194  1  0.88359877  0.76909960  0.00672231  1
  O  O195  1  0.89272361  0.69454939  0.51721541  1
  O  O196  1  0.13901768  0.25288860  0.50522162  1
  O  O197  1  0.11865490  0.26519149  0.99041517  1
  O  O198  1  0.11508383  0.73885002  0.47420588  1
  O  O199  1  0.12287451  0.72723927  1.00412408  1
  O  O200  1  0.62393796  0.23170696  0.51780019  1
  O  O201  1  0.56693987  0.22189186  0.99332669  1
  O  O202  1  0.61167957  0.73241895  0.50600602  1
  O  O203  1  0.64583183  0.76738065  0.99020309  1
  O  O204  1  0.48044216  0.23200183  0.13876014  1
  O  O205  1  0.48846547  0.26862571  0.62450516  1
  O  O206  1  0.49619779  0.74208191  0.10207292  1
  O  O207  1  0.49454041  0.74421939  0.63261032  1
  O  O208  1  1.00105082  0.22999417  0.13147377  1
  O  O209  1  1.01018789  0.24649265  0.63100394  1
  O  O210  1  0.99433700  0.74124016  0.11710357  1
  O  O211  1  1.03028425  0.74261158  0.61970028  1
  O  O212  1  -0.02113976  0.25896254  0.42586526  1
  O  O213  1  0.00371274  0.26069842  0.87008352  1
  O  O214  1  0.00047104  0.76899963  0.37737233  1
  O  O215  1  0.01349746  0.74088716  0.88156768  1
  O  O216  1  0.50378731  0.26232044  0.36483959  1
  O  O217  1  0.49770229  0.23981419  0.84163760  1
  O  O218  1  0.47840773  0.74820000  0.39314626  1
  O  O219  1  0.52040757  0.74154389  0.89176465  1
  O  O220  1  0.25024218  0.13764796  0.49008600  1
  O  O221  1  0.25083112  0.13556580  1.00019417  1
  O  O222  1  0.19279799  0.63017598  0.56079630  1
  O  O223  1  0.24174516  0.60381114  0.98970237  1
  O  O224  1  0.74317790  0.12157635  0.48997580  1
  O  O225  1  0.74073342  0.11024842  0.98014573  1
  O  O226  1  0.72582983  0.62019240  0.49499259  1
  O  O227  1  0.76735848  0.64499437  0.98554517  1
  O  O228  1  0.25665058  0.39197275  0.02222960  1
  O  O229  1  0.25528077  0.35969491  0.51293094  1
  O  O230  1  0.25814951  0.89577195  0.00090931  1
  O  O231  1  0.25233577  0.89071932  0.52935856  1
  O  O232  1  0.76850351  0.37918968  -0.02338181  1
  O  O233  1  0.70194837  0.38671212  0.46446962  1
  O  O234  1  0.77648447  0.88832097  0.01635442  1
  O  O235  1  0.75872782  0.80392048  0.46329010  1
  O  O236  1  0.10348865  0.50012990  0.24522922  1
  O  O237  1  0.13743340  0.50256768  0.74551522  1
  O  O238  1  0.13710564  1.00271507  0.26227719  1
  O  O239  1  0.12287254  0.98483830  0.79623650  1
  O  O240  1  0.65366711  0.55046280  0.24238159  1
  O  O241  1  0.64687001  0.51322285  0.75385756  1
  O  O242  1  0.62246859  0.99556041  0.25584376  1
  O  O243  1  0.64678202  0.99172489  0.73235652  1
  O  O244  1  0.35904952  0.01462324  0.26101941  1
  O  O245  1  0.40221250  0.03220012  0.73730068  1
  O  O246  1  0.37426057  0.49275491  0.23937527  1
  O  O247  1  0.36257472  0.51839194  0.74325369  1
  O  O248  1  0.88441759  0.00910774  0.27743504  1
  O  O249  1  0.86940464  0.01418312  0.76027116  1
  O  O250  1  0.83972958  0.53203019  0.22121251  1
  O  O251  1  0.87034415  0.50206108  0.75194977  1
  O  O252  1  0.12286684  0.30305020  0.30253523  1
  O  O253  1  0.10687983  0.37524986  0.87583426  1
  O  O254  1  0.12244081  0.86647753  0.38026645  1
  O  O255  1  0.13458247  0.84429005  0.90113873  1
  O  O256  1  0.56319551  0.44006904  0.33245833  1
  O  O257  1  0.59380402  0.37492124  0.86652966  1
  O  O258  1  0.61787797  0.85015847  0.37432706  1
  O  O259  1  0.63682468  0.86571802  0.87371452  1
  O  O260  1  0.36922187  0.13214617  0.13689750  1
  O  O261  1  0.39018306  0.13462272  0.61468961  1
  O  O262  1  0.33201741  0.66572349  0.11478003  1
  O  O263  1  0.38054263  0.63673097  0.63708922  1
  O  O264  1  0.89032346  0.11334361  0.15102427  1
  O  O265  1  0.88567013  0.11661679  0.63501744  1
  O  O266  1  0.87973681  0.64508352  0.11871991  1
  O  O267  1  0.88583075  0.63787232  0.58196744  1
  O  O268  1  0.25267213  0.25646247  0.12577311  1
  O  O269  1  0.25554100  0.25318951  0.61814887  1
  O  O270  1  0.27535394  0.71088809  0.12790957  1
  O  O271  1  0.25195167  0.75433493  0.63014075  1
  O  O272  1  0.75346254  0.21843226  0.10397879  1
  O  O273  1  0.83187784  0.33137656  0.61497554  1
  O  O274  1  0.77071088  0.76120142  0.11339698  1
  O  O275  1  0.75342995  0.74635873  0.61945580  1
  O  O276  1  0.25460184  0.24506082  0.38882964  1
  O  O277  1  0.23236267  0.27688561  0.87719819  1
  O  O278  1  0.24763488  0.75382037  0.37098797  1
  O  O279  1  0.23201561  0.72163989  0.86957754  1
  O  O280  1  0.73898623  0.24108514  0.36413613  1
  O  O281  1  0.75319442  0.23436042  0.87339575  1
  O  O282  1  0.76525206  0.76776015  0.39970526  1
  O  O283  1  0.79225532  0.75063281  0.85203373  1
  O  O284  1  -0.01759326  0.13215903  0.00860574  1
  O  O285  1  0.00242633  0.11210146  0.52467659  1
  O  O286  1  0.00654979  0.61384067  0.01247226  1
  O  O287  1  0.01430404  0.58002443  0.45798609  1
  O  O288  1  0.48595998  0.09497459  0.02198398  1
  O  O289  1  0.51874938  0.11776775  0.49380705  1
  O  O290  1  0.48242677  0.60047800  0.00494531  1
  O  O291  1  0.49892642  0.62062307  0.52818236  1
  O  O292  1  0.51598028  0.39137302  0.47303784  1
  O  O293  1  0.49529782  0.40360421  0.97707500  1
  O  O294  1  0.49497257  0.88514909  0.48073898  1
  O  O295  1  0.48960608  0.89043372  1.00949744  1
  O  O296  1  1.02414019  0.40797779  0.48124645  1
  O  O297  1  0.99946824  0.38787340  0.99449882  1
  O  O298  1  1.01587025  0.88488053  0.50546774  1
  O  O299  1  0.98741614  0.88136265  1.00807529  1
  O  O300  1  0.46668875  0.53458963  0.40794100  1
  O  O301  1  0.50238850  0.50584895  0.84847843  1
  O  O302  1  0.48638877  1.01082537  0.38258515  1
  O  O303  1  0.50150544  0.99616947  0.87816995  1
  O  O304  1  0.94454200  0.49276767  0.34207043  1
  O  O305  1  0.99672012  0.49722189  0.87968458  1
  O  O306  1  1.00265084  0.98624486  0.39238501  1
  O  O307  1  0.98674357  1.02507040  0.87177285  1
  O  O308  1  0.00933046  0.01350069  0.12660290  1
  O  O309  1  0.01553976  0.00175086  0.62624342  1
  O  O310  1  -0.00515137  0.50337556  0.11911534  1
  O  O311  1  0.01396510  0.50380562  0.61535842  1
  O  O312  1  0.49046102  0.01042374  0.15305584  1
  O  O313  1  0.51224345  0.00393835  0.61397459  1
  O  O314  1  0.53854343  0.48387002  0.12030788  1
  O  O315  1  0.51708091  0.51999787  0.65704722  1
  O  O316  1  0.25500298  0.38039148  0.23237670  1
  O  O317  1  0.25487559  0.38727407  0.74291115  1
  O  O318  1  0.25627001  0.89721946  0.25253628  1
  O  O319  1  0.27676167  0.88620491  0.74818458  1
  O  O320  1  0.71739879  0.39865345  0.24876551  1
  O  O321  1  0.75438383  0.39391901  0.76204677  1
  O  O322  1  0.76021909  0.87511802  0.23647368  1
  O  O323  1  0.77809573  0.88700374  0.74960050  1
  O  O324  1  0.25159032  0.12604202  0.26380397  1
  O  O325  1  0.25079811  0.14480268  0.78281791  1
  O  O326  1  0.25871049  0.60103765  0.25503990  1
  O  O327  1  0.25114585  0.60956133  0.75924499  1
  O  O328  1  0.76241153  0.11471445  0.27311190  1
  O  O329  1  0.76510141  0.12351744  0.74326642  1
  O  O330  1  0.75686737  0.66358342  0.27087053  1
  O  O331  1  0.76175908  0.62762674  0.75621794  1
  O  O332  1  0.36780608  0.12114924  0.37247015  1
  O  O333  1  0.36541683  0.14601562  0.89148650  1
  O  O334  1  0.32043450  0.60682295  0.45852325  1
  O  O335  1  0.35654689  0.62509212  0.86748206  1
  O  O336  1  0.85739486  0.11171121  0.38155058  1
  O  O337  1  0.86329453  0.12024012  0.86639258  1
  O  O338  1  0.88084905  0.63862233  0.35335858  1
  O  O339  1  0.87720310  0.61818680  0.87546711  1
  O  O340  1  0.13278448  0.37742412  0.12416711  1
  O  O341  1  0.14264192  0.36816716  0.62891950  1
  O  O342  1  0.11902168  0.89801826  0.12221949  1
  O  O343  1  0.14405526  0.88114382  0.64347431  1
  O  O344  1  0.66395948  0.33329382  0.06573941  1
  O  O345  1  0.61758198  0.40148570  0.62987582  1
  O  O346  1  0.65259322  0.88095011  0.11938915  1
  O  O347  1  0.62600421  0.88646519  0.61263704  1
  O  O348  1  0.10809799  0.25049189  0.25470908  1
  O  O349  1  0.10708939  0.24832970  0.76360898  1
  O  O350  1  0.12912371  0.76175719  0.26201089  1
  O  O351  1  0.11574463  0.75355153  0.76695871  1
  O  O352  1  0.60986726  0.25160582  0.23469251  1
  O  O353  1  0.61151670  0.25987156  0.72917294  1
  O  O354  1  0.57183205  0.74645181  0.24638773  1
  O  O355  1  0.62000568  0.75460886  0.76445433  1
  O  O356  1  0.36839475  0.23665235  0.25016934  1
  O  O357  1  0.38479274  0.24178689  0.73154053  1
  O  O358  1  0.39651642  0.75005663  0.24383280  1
  O  O359  1  0.35927026  0.73171413  0.74342443  1
  O  O360  1  0.86895602  0.23240858  0.26249723  1
  O  O361  1  0.89435311  0.23220926  0.75022603  1
  O  O362  1  0.88309871  0.74539549  0.22922051  1
  O  O363  1  0.89359443  0.73856233  0.71335755  1
  O  O364  1  0.41061575  0.48561735  0.55308177  1
  O  O365  1  0.39638522  0.48274945  1.05124133  1
  O  O366  1  0.38871713  1.00588668  0.49621025  1
  O  O367  1  0.38381836  0.98866351  1.00240112  1
  O  O368  1  0.86015995  0.48491704  0.48582303  1
  O  O369  1  0.88698067  0.50838510  0.98833323  1
  O  O370  1  0.89371811  1.00239655  0.48934348  1
  O  O371  1  0.87939248  1.00038736  0.98598288  1
  O  O372  1  0.12175813  0.00155498  0.00190429  1
  O  O373  1  0.11532638  0.00536882  0.49692663  1
  O  O374  1  0.11263540  0.50611373  0.01366613  1
  O  O375  1  0.14926778  0.50327912  0.50781083  1
  O  O376  1  0.60844411  -0.00847986  -0.00558769  1
  O  O377  1  0.61644029  0.00396620  0.50901954  1
  O  O378  1  0.61007172  0.51177176  -0.02374070  1
  O  O379  1  0.60224942  0.51847266  0.52718710  1
  O  O380  1  0.36544474  0.34936448  0.12918171  1
  O  O381  1  0.36144205  0.36033068  0.63074366  1
  O  O382  1  0.36453140  0.87416760  0.12146059  1
  O  O383  1  0.36411129  0.86377965  0.62988414  1
  O  O384  1  0.83729651  0.36431586  0.13235231  1
  O  O385  1  0.90035101  0.37082125  0.59645974  1
  O  O386  1  0.87930228  0.87130811  0.12414628  1
  O  O387  1  0.87722732  0.83881418  0.58286104  1
  O  O388  1  0.13664809  0.13243334  0.37408870  1
  O  O389  1  0.13921662  0.14980169  0.88565690  1
  O  O390  1  0.13149696  0.63936750  0.34994598  1
  O  O391  1  0.12879783  0.62381943  0.88929332  1
  O  O392  1  0.63734890  0.11994946  0.38898894  1
  O  O393  1  0.64513140  0.12136384  0.84425836  1
  O  O394  1  0.60941377  0.61778975  0.39184400  1
  O  O395  1  0.66213959  0.65625456  0.87618155  1
