# generated using pymatgen
data_V35Zn35O128
_symmetry_space_group_name_H-M   'P 1'
_cell_length_a   16.89697394
_cell_length_b   16.93551086
_cell_length_c   16.96421239
_cell_angle_alpha   90.60703881
_cell_angle_beta   89.69537579
_cell_angle_gamma   89.92296340
_symmetry_Int_Tables_number   1
_chemical_formula_structural   V35Zn35O128
_chemical_formula_sum   'V70 Zn70 O256'
_cell_volume   4854.11428691
_cell_formula_units_Z   2
loop_
 _symmetry_equiv_pos_site_id
 _symmetry_equiv_pos_as_xyz
  1  'x, y, z'
loop_
 _atom_site_type_symbol
 _atom_site_label
 _atom_site_symmetry_multiplicity
 _atom_site_fract_x
 _atom_site_fract_y
 _atom_site_fract_z
 _atom_site_occupancy
  V  V0  1  0.00591656  -0.01818745  0.50614518  1
  V  V1  1  0.60938919  0.53962763  0.59255374  1
  V  V2  1  0.24375031  0.87253444  0.12859077  1
  V  V3  1  0.38188441  0.49809244  0.88396925  1
  V  V4  1  0.51193661  0.87221768  0.37979471  1
  V  V5  1  0.23921979  0.13322207  0.89062129  1
  V  V6  1  0.23089981  0.60773907  0.37859553  1
  V  V7  1  0.74733020  0.50278624  0.26379644  1
  V  V8  1  0.64374099  0.37441213  0.74562575  1
  V  V9  1  0.75519514  0.24912016  0.51233890  1
  V  V10  1  0.86136992  0.65830492  0.74947129  1
  V  V11  1  0.74756876  0.12832005  0.37742802  1
  V  V12  1  0.88524484  0.61931630  0.26519424  1
  V  V13  1  0.25612885  0.63965568  0.87830227  1
  V  V14  1  0.00347235  0.62485261  0.62098360  1
  V  V15  1  0.33896933  0.65548397  0.24652329  1
  V  V16  1  0.13003595  -0.00038944  0.11907819  1
  V  V17  1  0.23835174  0.50364068  0.74045204  1
  V  V18  1  0.88028894  0.37104696  -0.01501160  1
  V  V19  1  0.88171395  0.39115516  0.50663781  1
  V  V20  1  0.25189835  0.11578646  0.36676724  1
  V  V21  1  0.62264573  0.89182199  0.74930380  1
  V  V22  1  0.36984232  0.12826851  0.75354515  1
  V  V23  1  0.11133208  0.75165109  0.87535418  1
  V  V24  1  0.50643761  -0.00394460  -0.00697658  1
  V  V25  1  0.11647924  0.24370485  0.36455887  1
  V  V26  1  0.50588124  0.12665893  0.12126313  1
  V  V27  1  0.88904681  0.12607082  0.75862495  1
  V  V28  1  0.49766006  0.25079660  0.75253318  1
  V  V29  1  0.37580915  0.25714815  0.12109841  1
  V  V30  1  0.62845726  0.86125044  0.25263105  1
  V  V31  1  0.74341136  0.73427128  0.47998681  1
  V  V32  1  0.38277950  0.62289701  0.73782147  1
  V  V33  1  0.50406272  0.00592297  0.51267405  1
  V  V34  1  0.36554456  0.00024799  0.87320117  1
  V  V35  1  0.88580571  -0.01391068  0.37745437  1
  V  V36  1  0.12130515  0.11553302  0.51157522  1
  V  V37  1  0.88951080  0.12415436  0.25239318  1
  V  V38  1  0.39373211  0.38201963  0.49164221  1
  V  V39  1  0.38134127  0.75454108  0.61762200  1
  V  V40  1  0.89428924  0.23759838  0.62123786  1
  V  V41  1  0.00205525  0.39155993  0.37637127  1
  V  V42  1  0.38203089  -0.00540948  0.37162564  1
  V  V43  1  0.61145062  0.36113365  0.26192258  1
  V  V44  1  0.87726010  0.24753194  0.12883911  1
  V  V45  1  0.24248351  0.27061745  0.00913397  1
  V  V46  1  -0.00026260  0.89135254  0.88779183  1
  V  V47  1  0.37694378  0.12329135  0.24581359  1
  V  V48  1  0.85625005  0.87726498  0.00532045  1
  V  V49  1  0.63124061  0.49381068  0.12023383  1
  V  V50  1  0.35835764  0.87173746  -0.00408799  1
  V  V51  1  0.00629080  0.76078211  0.24649317  1
  V  V52  1  0.87485193  0.73478999  0.10920931  1
  V  V53  1  0.38216365  0.24395564  0.62607168  1
  V  V54  1  0.86652564  0.50674963  0.84891850  1
  V  V55  1  0.75128475  0.23045404  0.00517032  1
  V  V56  1  0.75168026  0.88422802  0.61761857  1
  V  V57  1  0.00488661  0.11668665  0.10032043  1
  V  V58  1  0.62975031  0.12051324  0.52555406  1
  V  V59  1  0.74555272  -0.00189936  0.25081731  1
  V  V60  1  0.12322050  0.88959014  0.75173433  1
  V  V61  1  0.63288111  0.23787095  0.88357810  1
  V  V62  1  0.23546052  0.74576094  0.50855955  1
  V  V63  1  0.24885605  0.89128722  0.63084893  1
  V  V64  1  0.62551897  -0.00456791  0.12769545  1
  V  V65  1  0.50274335  0.37805561  0.88849763  1
  V  V66  1  0.50761356  0.75533625  0.74901445  1
  V  V67  1  0.02316358  0.26557955  0.75306463  1
  V  V68  1  0.25568776  0.24435498  0.50002695  1
  V  V69  1  0.11128455  0.61373166  -0.00502326  1
  Zn  Zn70  1  0.55563729  0.82044197  0.92624870  1
  Zn  Zn71  1  0.87193873  0.02827771  0.89350395  1
  Zn  Zn72  1  0.25233014  0.37523542  0.62452160  1
  Zn  Zn73  1  0.09733358  0.76213256  0.39223433  1
  Zn  Zn74  1  0.74379078  0.02466160  0.75147935  1
  Zn  Zn75  1  0.87540127  0.76138324  0.60651923  1
  Zn  Zn76  1  0.18836565  0.18350388  0.18208782  1
  Zn  Zn77  1  0.19460784  0.18046354  0.68836626  1
  Zn  Zn78  1  0.18620723  0.67696374  0.17282013  1
  Zn  Zn79  1  0.18516451  0.69203734  0.69491011  1
  Zn  Zn80  1  0.68969801  0.18268565  0.19080822  1
  Zn  Zn81  1  0.69974090  0.19986954  0.69832424  1
  Zn  Zn82  1  0.70402017  0.68081858  0.18163842  1
  Zn  Zn83  1  0.69043417  0.69673842  0.67363023  1
  Zn  Zn84  1  0.32122231  0.30326480  0.31511969  1
  Zn  Zn85  1  0.29297513  0.32480972  0.82250704  1
  Zn  Zn86  1  0.23449027  0.81812710  0.30588565  1
  Zn  Zn87  1  0.31496364  0.81651190  0.80255715  1
  Zn  Zn88  1  0.77025945  0.34644108  0.36270933  1
  Zn  Zn89  1  0.82236362  0.30035920  0.81362060  1
  Zn  Zn90  1  0.81614194  0.80254934  0.30717985  1
  Zn  Zn91  1  0.81408680  0.86092716  0.80957843  1
  Zn  Zn92  1  0.18651423  0.42160510  0.44316212  1
  Zn  Zn93  1  0.18931546  0.43766514  0.92907238  1
  Zn  Zn94  1  0.19266393  0.92972488  0.44126704  1
  Zn  Zn95  1  0.17853008  0.94889996  0.94220470  1
  Zn  Zn96  1  0.64811907  0.47261842  0.41893634  1
  Zn  Zn97  1  0.70076356  0.42409513  0.94163325  1
  Zn  Zn98  1  0.68900633  0.94181046  0.43634631  1
  Zn  Zn99  1  0.69383055  0.94624808  0.92722614  1
  Zn  Zn100  1  0.31417647  0.06236911  0.05972462  1
  Zn  Zn101  1  0.31834714  0.06570476  0.55842501  1
  Zn  Zn102  1  0.32072375  0.57770818  0.05522753  1
  Zn  Zn103  1  0.31440130  0.56479540  0.55575929  1
  Zn  Zn104  1  0.81295045  0.05991237  0.06664808  1
  Zn  Zn105  1  0.82087118  0.05500371  0.56711092  1
  Zn  Zn106  1  0.84414015  0.52560651  0.10476950  1
  Zn  Zn107  1  0.79939376  0.57001009  0.57794902  1
  Zn  Zn108  1  0.45168980  0.43232538  0.19663236  1
  Zn  Zn109  1  0.44638139  0.42726966  0.67739601  1
  Zn  Zn110  1  0.43611981  0.92542430  0.18679489  1
  Zn  Zn111  1  0.43396384  0.93698286  0.69036931  1
  Zn  Zn112  1  0.89618837  0.40147269  0.23551485  1
  Zn  Zn113  1  0.93393996  0.43696221  0.68077409  1
  Zn  Zn114  1  0.93972229  0.93697298  0.17988309  1
  Zn  Zn115  1  0.94271665  0.93495995  0.69020462  1
  Zn  Zn116  1  0.07067119  0.04908111  0.31195652  1
  Zn  Zn117  1  0.05965494  0.07165377  0.81047885  1
  Zn  Zn118  1  0.06165255  0.57774467  0.31275651  1
  Zn  Zn119  1  0.03675943  0.55088236  0.79003055  1
  Zn  Zn120  1  0.55588584  0.08321099  0.32041153  1
  Zn  Zn121  1  0.55428820  0.06620621  0.81263285  1
  Zn  Zn122  1  0.53734175  0.60425358  0.20738918  1
  Zn  Zn123  1  0.55114780  0.54082582  0.76615078  1
  Zn  Zn124  1  0.44668777  0.18641206  0.43700329  1
  Zn  Zn125  1  0.43601314  0.18705682  0.94105495  1
  Zn  Zn126  1  0.38334426  0.73069038  0.39801299  1
  Zn  Zn127  1  0.44270978  0.69336986  0.93165847  1
  Zn  Zn128  1  0.93987708  0.17446461  0.43803530  1
  Zn  Zn129  1  0.96065047  0.21382821  0.93665795  1
  Zn  Zn130  1  0.93059133  0.69157523  0.44101909  1
  Zn  Zn131  1  0.93037477  0.68529672  0.92694091  1
  Zn  Zn132  1  0.05399748  0.31548347  0.07469418  1
  Zn  Zn133  1  0.06401265  0.30863208  0.55278012  1
  Zn  Zn134  1  0.06416972  0.80499423  0.06306695  1
  Zn  Zn135  1  0.05824591  0.80995085  0.57850511  1
  Zn  Zn136  1  0.56909374  0.31563235  0.06868122  1
  Zn  Zn137  1  0.56864404  0.30862123  0.56326606  1
  Zn  Zn138  1  0.49626317  0.77830559  0.08327608  1
  Zn  Zn139  1  0.57085532  0.81559777  0.56247908  1
  O  O140  1  0.10860281  0.12295358  0.12376068  1
  O  O141  1  0.13865479  0.11633194  0.60899369  1
  O  O142  1  0.12427271  0.62553543  0.09400891  1
  O  O143  1  0.10403982  0.63849076  0.64012249  1
  O  O144  1  0.61196237  0.11590573  0.12828024  1
  O  O145  1  0.63948096  0.12595480  0.62370921  1
  O  O146  1  0.62807591  0.60752617  0.13987307  1
  O  O147  1  0.60942244  0.63874846  0.61602459  1
  O  O148  1  0.37811795  0.35942917  0.39397838  1
  O  O149  1  0.38581148  0.38965450  0.87254888  1
  O  O150  1  0.39183868  0.89415158  0.37522765  1
  O  O151  1  0.36490404  0.89294558  0.87762968  1
  O  O152  1  0.88910758  0.37915887  0.39477416  1
  O  O153  1  0.87512999  0.37700221  0.88090871  1
  O  O154  1  0.87039586  0.88964473  0.36489472  1
  O  O155  1  0.89292559  0.86905162  0.89048240  1
  O  O156  1  0.27110424  0.00549972  0.38826028  1
  O  O157  1  0.26069956  0.01493342  0.88106116  1
  O  O158  1  0.22596070  0.50860650  0.38669330  1
  O  O159  1  0.27274727  0.51121187  0.85906643  1
  O  O160  1  0.76423363  0.00930547  0.37183494  1
  O  O161  1  0.77427165  -0.02222852  0.85242413  1
  O  O162  1  0.74284263  0.51277878  0.36435298  1
  O  O163  1  0.77552381  0.49632229  0.89833341  1
  O  O164  1  0.28309161  0.43944938  0.21782142  1
  O  O165  1  0.25033855  0.51621396  0.63911563  1
  O  O166  1  0.23534933  1.00265385  0.11603840  1
  O  O167  1  0.25993110  0.98918470  0.62135612  1
  O  O168  1  0.73840356  0.49806065  0.13961451  1
  O  O169  1  0.70459614  0.50816595  0.60706942  1
  O  O170  1  0.73792381  1.01076337  0.13915078  1
  O  O171  1  0.75756593  0.99191630  0.63901661  1
  O  O172  1  -0.00700529  0.36619036  0.27816791  1
  O  O173  1  0.00145600  0.36294985  0.73414319  1
  O  O174  1  -0.00970758  0.86084482  0.24647139  1
  O  O175  1  0.01565355  0.88031251  0.76335955  1
  O  O176  1  0.51217017  0.36844139  0.27233857  1
  O  O177  1  0.50727163  0.36159412  0.76112655  1
  O  O178  1  0.52117224  0.88804714  0.27057198  1
  O  O179  1  0.51316511  0.86993440  0.74040936  1
  O  O180  1  0.48987305  0.11550245  0.22754417  1
  O  O181  1  0.48461268  0.14142207  0.76232083  1
  O  O182  1  0.43773397  0.64621387  0.22854542  1
  O  O183  1  0.48912975  0.64062549  0.75230371  1
  O  O184  1  0.98832877  0.12010748  0.25424953  1
  O  O185  1  0.99782735  0.14348940  0.74616734  1
  O  O186  1  0.98965892  0.63016089  0.24132611  1
  O  O187  1  0.97371185  0.63216183  0.74296220  1
  O  O188  1  0.36965873  0.24528326  0.01636497  1
  O  O189  1  0.37362423  0.23856574  0.50877491  1
  O  O190  1  0.37615093  0.77268556  -0.00516392  1
  O  O191  1  0.37527126  0.74543436  0.51773834  1
  O  O192  1  0.86488716  0.24039774  0.01099608  1
  O  O193  1  0.87213674  0.23441564  0.51031557  1
  O  O194  1  0.88234499  0.76122243  0.00315663  1
  O  O195  1  0.85345878  0.75836978  0.49249101  1
  O  O196  1  0.13623118  0.23254544  0.49470223  1
  O  O197  1  0.14283923  0.26204999  1.02214740  1
  O  O198  1  0.13390627  0.75096168  0.50695737  1
  O  O199  1  0.12606859  0.74480220  0.98021388  1
  O  O200  1  0.64619204  0.23544570  0.51026825  1
  O  O201  1  0.63861316  0.25320455  0.99492968  1
  O  O202  1  0.64384472  0.76339212  0.49589779  1
  O  O203  1  0.53520828  0.72976773  0.99433979  1
  O  O204  1  0.49402577  0.23212562  0.11290129  1
  O  O205  1  0.49132250  0.25017308  0.63855700  1
  O  O206  1  0.45484247  0.81257201  0.17446770  1
  O  O207  1  0.48670667  0.76338612  0.63133268  1
  O  O208  1  0.98547260  0.22900539  0.12386223  1
  O  O209  1  0.99639034  0.24456157  0.61956203  1
  O  O210  1  0.98631577  0.75371834  0.13252280  1
  O  O211  1  0.98553641  0.74633518  0.63103890  1
  O  O212  1  0.01609185  0.23542689  0.37826591  1
  O  O213  1  0.02121052  0.25798442  0.85319549  1
  O  O214  1  -0.00843902  0.74483844  0.35476576  1
  O  O215  1  0.01021814  0.75964002  0.87090525  1
  O  O216  1  0.52081300  0.19001977  0.35649025  1
  O  O217  1  0.50240577  0.26060999  0.87529384  1
  O  O218  1  0.48786372  0.77537633  0.38465885  1
  O  O219  1  0.48304573  0.76632093  0.84835701  1
  O  O220  1  0.24529619  0.12714063  0.48971653  1
  O  O221  1  0.24809924  0.12966223  0.99319502  1
  O  O222  1  0.25160909  0.63687111  0.49132380  1
  O  O223  1  0.24664125  0.62172878  0.97858037  1
  O  O224  1  0.74896656  0.12470076  0.49755802  1
  O  O225  1  0.75408258  0.12960880  0.99435663  1
  O  O226  1  0.74738909  0.63511781  0.49745702  1
  O  O227  1  0.71241529  0.64960979  0.99483667  1
  O  O228  1  0.25575371  0.36913214  0.00434817  1
  O  O229  1  0.26341644  0.35528550  0.50200455  1
  O  O230  1  0.25522349  0.87941669  -0.00588844  1
  O  O231  1  0.24319376  0.86357227  0.52581624  1
  O  O232  1  0.77057423  0.34813014  -0.00117389  1
  O  O233  1  0.77079590  0.35076898  0.48951994  1
  O  O234  1  0.75767453  0.86944335  -0.00801842  1
  O  O235  1  0.74947122  0.89178091  0.51654046  1
  O  O236  1  0.11791976  0.49771327  0.22286208  1
  O  O237  1  0.14062286  0.50986724  0.76106749  1
  O  O238  1  0.11743421  1.00257698  0.22334075  1
  O  O239  1  0.12938014  0.98898665  0.76233033  1
  O  O240  1  0.64449555  0.47920892  0.25053424  1
  O  O241  1  0.64286626  0.47325603  0.76762325  1
  O  O242  1  0.63404869  1.00923535  0.24821732  1
  O  O243  1  0.62327732  0.99611029  0.75399792  1
  O  O244  1  0.38633322  0.00671922  0.26354321  1
  O  O245  1  0.38533818  0.01136428  0.76626112  1
  O  O246  1  0.34960541  0.46891349  0.25325288  1
  O  O247  1  0.38376975  0.51782177  0.74886026  1
  O  O248  1  0.86793544  0.00710499  0.25475304  1
  O  O249  1  0.89375046  0.02351027  0.74990903  1
  O  O250  1  0.87770606  0.51633020  0.22346312  1
  O  O251  1  0.85494038  0.49071997  0.74990950  1
  O  O252  1  0.11169700  0.35254118  0.38840538  1
  O  O253  1  0.18437501  0.35962807  0.85142997  1
  O  O254  1  0.14843312  0.85979967  0.36535362  1
  O  O255  1  0.11820681  0.87262049  0.87299414  1
  O  O256  1  0.65071758  0.37350985  0.36202581  1
  O  O257  1  0.61613578  0.36295441  0.87263820  1
  O  O258  1  0.62198322  0.87750798  0.36721878  1
  O  O259  1  0.62588327  0.87614593  0.85920292  1
  O  O260  1  0.38251365  0.12486581  0.13050309  1
  O  O261  1  0.36773616  0.13346946  0.64019542  1
  O  O262  1  0.30137462  0.62468574  0.14981796  1
  O  O263  1  0.37594350  0.63588152  0.63330404  1
  O  O264  1  0.88667245  0.11954844  0.13564567  1
  O  O265  1  0.88125605  0.13422194  0.63092118  1
  O  O266  1  0.87861041  0.63467891  0.09993638  1
  O  O267  1  0.87304600  0.63957913  0.63693070  1
  O  O268  1  0.26467537  0.24599232  0.11907469  1
  O  O269  1  0.26194781  0.24850615  0.61527584  1
  O  O270  1  0.23610950  0.77379702  0.12232055  1
  O  O271  1  0.25912515  0.74790542  0.61876123  1
  O  O272  1  0.76146000  0.23187513  0.11431041  1
  O  O273  1  0.76753960  0.24721050  0.61453626  1
  O  O274  1  0.77563564  0.75117447  0.12905843  1
  O  O275  1  0.75139359  0.76896080  0.60830310  1
  O  O276  1  0.24528693  0.23635857  0.38266106  1
  O  O277  1  0.26280640  0.24049027  0.89939189  1
  O  O278  1  0.26637620  0.76265840  0.40987896  1
  O  O279  1  0.26389654  0.73960428  0.87260294  1
  O  O280  1  0.76430462  0.23062135  0.39054412  1
  O  O281  1  0.73819530  0.24367559  0.88396512  1
  O  O282  1  0.74920036  0.74800001  0.37785307  1
  O  O283  1  0.71976476  0.70551158  0.95039955  1
  O  O284  1  -0.00541554  0.12481020  0.00223305  1
  O  O285  1  0.01800932  0.11465572  0.49946355  1
  O  O286  1  0.01265823  0.62637562  -0.02097208  1
  O  O287  1  -0.00926891  0.63481892  0.51922188  1
  O  O288  1  0.49206293  0.10834057  0.01137160  1
  O  O289  1  0.52226609  0.12083190  0.50971245  1
  O  O290  1  0.58146067  0.60716349  -0.07596261  1
  O  O291  1  0.51127320  0.59357893  0.37253859  1
  O  O292  1  0.49376968  0.36435464  0.50198078  1
  O  O293  1  0.50526229  0.37362131  0.98677305  1
  O  O294  1  0.51650860  0.89634493  0.48970135  1
  O  O295  1  0.48373079  0.89120709  0.99895464  1
  O  O296  1  0.98996255  0.37277205  0.49271785  1
  O  O297  1  0.97766481  0.33285034  0.99303737  1
  O  O298  1  1.01749908  0.88284430  0.49517549  1
  O  O299  1  1.00627593  0.87636613  0.98723166  1
  O  O300  1  0.48152125  0.52743577  0.35149806  1
  O  O301  1  0.49321472  0.48799612  0.86442737  1
  O  O302  1  0.49721794  1.00093533  0.38421045  1
  O  O303  1  0.49112932  1.00655428  0.88885373  1
  O  O304  1  1.02140961  0.48915266  0.37562235  1
  O  O305  1  0.96873226  0.50008714  0.86650877  1
  O  O306  1  0.99068980  0.99808998  0.37738000  1
  O  O307  1  0.99555812  0.99311879  0.87622395  1
  O  O308  1  0.00039941  0.01341638  0.12021687  1
  O  O309  1  -0.00407583  -0.00862142  0.60491045  1
  O  O310  1  0.07174961  0.45984852  0.17362875  1
  O  O311  1  -0.00764298  0.52196943  0.63531462  1
  O  O312  1  0.50590550  0.00499069  0.11385793  1
  O  O313  1  0.48965046  -0.00325808  0.61026664  1
  O  O314  1  0.52111141  0.50384709  0.14614757  1
  O  O315  1  0.52843268  0.50210011  0.65472750  1
  O  O316  1  0.24982199  0.37804280  0.25272515  1
  O  O317  1  0.26767171  0.40107422  0.73698762  1
  O  O318  1  0.25572917  0.89421225  0.22508344  1
  O  O319  1  0.24237136  0.87865708  0.74047949  1
  O  O320  1  0.78404445  0.39906033  0.26232027  1
  O  O321  1  0.74063847  0.34718568  0.75258356  1
  O  O322  1  0.73776272  0.88805463  0.25975890  1
  O  O323  1  0.72742109  0.86693249  0.73993208  1
  O  O324  1  0.25904536  0.12175392  0.25893612  1
  O  O325  1  0.26358944  0.13702577  0.76934764  1
  O  O326  1  0.22698276  0.62155990  0.27209987  1
  O  O327  1  0.26541398  0.62229490  0.75807961  1
  O  O328  1  0.75567476  0.11748291  0.26471277  1
  O  O329  1  0.77790667  0.13571248  0.75053496  1
  O  O330  1  0.77108313  0.61321858  0.24775094  1
  O  O331  1  0.76043614  0.63662637  0.74053513  1
  O  O332  1  0.36865957  0.12059567  0.36375755  1
  O  O333  1  0.36831532  0.11786200  0.87371731  1
  O  O334  1  0.34181374  0.62883962  0.35734727  1
  O  O335  1  0.37568308  0.62113746  0.86796371  1
  O  O336  1  0.87176039  0.11410205  0.36425902  1
  O  O337  1  0.89073021  0.13958998  0.86379989  1
  O  O338  1  0.88662852  0.61155954  0.36276378  1
  O  O339  1  0.86674742  0.61997616  0.85590418  1
  O  O340  1  0.11116193  0.40221640  0.13201993  1
  O  O341  1  0.13187903  0.39778942  0.59652609  1
  O  O342  1  0.13286266  0.88773748  0.11184652  1
  O  O343  1  0.13413324  0.87426914  0.64357605  1
  O  O344  1  0.61942452  0.38160679  0.14651709  1
  O  O345  1  0.62461584  0.36046031  0.64682226  1
  O  O346  1  0.61923342  0.89206434  0.14673684  1
  O  O347  1  0.63388196  0.87992408  0.63790152  1
  O  O348  1  0.13360697  0.24289872  0.26644774  1
  O  O349  1  0.12099071  0.25710137  0.72366007  1
  O  O350  1  0.10787973  0.74516534  0.23840252  1
  O  O351  1  0.14033944  0.76761706  0.77198405  1
  O  O352  1  0.63620409  0.26377605  0.24713157  1
  O  O353  1  0.61730527  0.24956737  0.76741633  1
  O  O354  1  0.63379866  0.76397239  0.23916746  1
  O  O355  1  0.60849607  0.75083658  0.74643549  1
  O  O356  1  0.37199616  0.23362190  0.23611417  1
  O  O357  1  0.37827082  0.24944976  0.74593783  1
  O  O358  1  0.32327923  0.75392176  0.26152820  1
  O  O359  1  0.37956583  0.74195058  0.73737226  1
  O  O360  1  0.86681794  0.22791946  0.23617902  1
  O  O361  1  0.89146732  0.24641507  0.73518115  1
  O  O362  1  0.88149666  0.73170709  0.23851136  1
  O  O363  1  0.86097034  0.75721260  0.76587798  1
  O  O364  1  0.37545951  0.48065906  0.50685944  1
  O  O365  1  0.37965802  0.51334803  0.98383201  1
  O  O366  1  0.39699568  1.02006844  0.48617257  1
  O  O367  1  0.38076437  0.99699779  0.98590607  1
  O  O368  1  0.86505698  0.48689885  0.52042141  1
  O  O369  1  0.88719594  0.46561066  1.01925359  1
  O  O370  1  0.89112030  1.00298512  0.48598733  1
  O  O371  1  0.86748083  0.98411631  0.99977676  1
  O  O372  1  0.11634381  0.00819339  0.01449355  1
  O  O373  1  0.11827741  0.00695744  0.48956628  1
  O  O374  1  0.12761055  0.51403924  -0.02145115  1
  O  O375  1  0.12924316  0.45780568  0.54418751  1
  O  O376  1  0.61372016  -0.01135636  0.00553364  1
  O  O377  1  0.62048236  0.01403625  0.50286579  1
  O  O378  1  0.63435131  0.47951624  0.02137836  1
  O  O379  1  0.58549773  0.52176565  0.49385998  1
  O  O380  1  0.39187121  0.35408943  0.13356213  1
  O  O381  1  0.37664670  0.36029062  0.61302176  1
  O  O382  1  0.35378933  0.89747333  0.10131615  1
  O  O383  1  0.35981650  0.86271066  0.63732078  1
  O  O384  1  0.88278843  0.34766232  0.13007903  1
  O  O385  1  0.88186657  0.35546304  0.60822510  1
  O  O386  1  0.87574048  0.87153980  0.10719518  1
  O  O387  1  0.85707064  0.87426998  0.64479968  1
  O  O388  1  0.13573668  0.12561374  0.37889984  1
  O  O389  1  0.14168155  0.12602038  0.87206710  1
  O  O390  1  0.13018010  0.64220840  0.38279901  1
  O  O391  1  0.14165543  0.64208959  0.87061711  1
  O  O392  1  0.64807284  0.11700130  0.38783960  1
  O  O393  1  0.61496504  0.13993014  0.87911723  1
  O  O394  1  0.57024179  0.62192471  0.32623446  1
  O  O395  1  0.61983878  0.61065558  0.86155770  1
