# generated using pymatgen
data_V35Zn35O128
_symmetry_space_group_name_H-M   'P 1'
_cell_length_a   16.85741150
_cell_length_b   16.95823377
_cell_length_c   16.91336478
_cell_angle_alpha   89.89780733
_cell_angle_beta   90.08878960
_cell_angle_gamma   90.00632582
_symmetry_Int_Tables_number   1
_chemical_formula_structural   V35Zn35O128
_chemical_formula_sum   'V70 Zn70 O256'
_cell_volume   4835.04262440
_cell_formula_units_Z   2
loop_
 _symmetry_equiv_pos_site_id
 _symmetry_equiv_pos_as_xyz
  1  'x, y, z'
loop_
 _atom_site_type_symbol
 _atom_site_label
 _atom_site_symmetry_multiplicity
 _atom_site_fract_x
 _atom_site_fract_y
 _atom_site_fract_z
 _atom_site_occupancy
  V  V0  1  0.76325013  0.87960191  0.63301682  1
  V  V1  1  0.61846238  0.60777214  0.49413292  1
  V  V2  1  0.87189118  0.86649705  0.00297115  1
  V  V3  1  0.51211583  0.87798530  0.87458437  1
  V  V4  1  0.25096539  -0.00985003  0.75478708  1
  V  V5  1  0.00231441  0.12750043  0.63050403  1
  V  V6  1  0.38793855  0.61287432  0.24150890  1
  V  V7  1  0.37590080  0.74821474  0.12575022  1
  V  V8  1  0.12626399  0.24829689  0.87638080  1
  V  V9  1  0.12548386  0.60929741  -0.00126767  1
  V  V10  1  0.00263881  -0.00384708  0.00066031  1
  V  V11  1  0.24708872  0.62602601  0.37777891  1
  V  V12  1  0.13188829  -0.00960615  0.62842806  1
  V  V13  1  -0.00455159  0.72952213  0.72053862  1
  V  V14  1  0.49444203  0.60142879  0.61790566  1
  V  V15  1  0.25297472  0.25900681  0.01192678  1
  V  V16  1  0.25012437  0.00039236  0.22670145  1
  V  V17  1  0.38938406  0.23861400  0.13779485  1
  V  V18  1  0.85978189  0.24435192  0.11264043  1
  V  V19  1  -0.00376650  0.25461461  0.25239518  1
  V  V20  1  0.87228757  -0.00329971  0.87041785  1
  V  V21  1  0.40712804  0.39057541  0.00342445  1
  V  V22  1  0.12778312  0.11746977  0.00487721  1
  V  V23  1  0.37983818  0.49038706  0.38624769  1
  V  V24  1  0.13791354  0.37955125  0.74645402  1
  V  V25  1  0.62752944  0.38953386  0.75371888  1
  V  V26  1  0.24490603  0.49662762  0.23332097  1
  V  V27  1  0.49770015  0.75287322  0.73645360  1
  V  V28  1  0.84493893  0.61927644  0.75950971  1
  V  V29  1  0.00586234  0.85950126  0.86988267  1
  V  V30  1  0.86685344  0.60155621  0.25120822  1
  V  V31  1  0.76116246  0.73570988  0.49584879  1
  V  V32  1  0.76290673  0.24717745  0.49925248  1
  V  V33  1  -0.00321336  0.48056963  0.48493555  1
  V  V34  1  0.87235498  0.11278892  0.26017462  1
  V  V35  1  -0.00771461  -0.00512469  0.49314320  1
  V  V36  1  0.00132190  0.12151985  0.12390820  1
  V  V37  1  0.63078370  0.73848495  0.86924516  1
  V  V38  1  0.11747049  0.63377640  0.49526255  1
  V  V39  1  0.61782904  0.76119906  0.38144993  1
  V  V40  1  0.75232295  -0.00873859  0.27148506  1
  V  V41  1  0.49448769  0.12570363  0.61806879  1
  V  V42  1  -0.00385249  0.25648070  0.74976293  1
  V  V43  1  0.12391667  0.25936145  0.37657926  1
  V  V44  1  0.37109728  0.26029327  0.63990354  1
  V  V45  1  0.37290578  0.87362985  0.00505046  1
  V  V46  1  0.50501117  -0.00011948  0.01059057  1
  V  V47  1  0.62959158  0.39144000  0.25170350  1
  V  V48  1  -0.02063877  0.75414768  0.24795635  1
  V  V49  1  0.25967221  0.52785665  0.75880751  1
  V  V50  1  0.50058873  0.25398519  0.77242238  1
  V  V51  1  0.87578843  0.12409247  0.75296615  1
  V  V52  1  0.74943656  0.14120702  0.88010570  1
  V  V53  1  0.25404830  0.26998867  0.50642628  1
  V  V54  1  0.74453947  0.38357662  0.10889402  1
  V  V55  1  0.49947081  0.77025361  0.25491092  1
  V  V56  1  0.50185517  0.36252416  0.37532726  1
  V  V57  1  0.74451478  0.74139611  0.00090635  1
  V  V58  1  0.56447298  0.56940340  0.07056012  1
  V  V59  1  0.24306162  0.75014786  -0.01771678  1
  V  V60  1  0.12947183  0.13059627  0.50396894  1
  V  V61  1  0.12661451  0.87005182  0.24700732  1
  V  V62  1  -0.00772439  0.38609227  0.88732502  1
  V  V63  1  -0.00816532  0.60702363  0.11814076  1
  V  V64  1  0.37778714  -0.00239445  0.87162816  1
  V  V65  1  0.63021680  0.13197118  0.00642450  1
  V  V66  1  0.12620921  0.37745413  0.23376242  1
  V  V67  1  0.25687677  0.12278715  0.87271185  1
  V  V68  1  0.26038547  0.11617259  0.37654510  1
  V  V69  1  0.63857644  -0.01437214  0.12678272  1
  Zn  Zn70  1  0.33575959  0.73021027  0.59952047  1
  Zn  Zn71  1  0.72186610  0.01465316  0.74096907  1
  Zn  Zn72  1  0.13248364  0.49622721  0.61458581  1
  Zn  Zn73  1  0.44391021  0.03768495  0.43311194  1
  Zn  Zn74  1  0.12886245  0.85900173  0.74933405  1
  Zn  Zn75  1  0.76241331  0.86480617  0.13905407  1
  Zn  Zn76  1  0.18997393  0.18404322  0.19332167  1
  Zn  Zn77  1  0.19181483  0.18889969  0.68999455  1
  Zn  Zn78  1  0.18343618  0.67765359  0.17733658  1
  Zn  Zn79  1  0.17269266  0.68668736  0.67649879  1
  Zn  Zn80  1  0.67658056  0.17946225  0.19660389  1
  Zn  Zn81  1  0.63839290  0.24514800  0.65038537  1
  Zn  Zn82  1  0.67957549  0.69761339  0.19479713  1
  Zn  Zn83  1  0.68054483  0.68978605  0.67300800  1
  Zn  Zn84  1  0.30855645  0.31253464  0.31310445  1
  Zn  Zn85  1  0.31728982  0.31931518  0.82940959  1
  Zn  Zn86  1  0.27814803  0.78953373  0.27112969  1
  Zn  Zn87  1  0.28716743  0.74584666  0.77511954  1
  Zn  Zn88  1  0.78718093  0.29260484  0.28616825  1
  Zn  Zn89  1  0.80903051  0.32478221  0.81261154  1
  Zn  Zn90  1  0.80776445  0.80414148  0.32255560  1
  Zn  Zn91  1  0.81755987  0.80392830  0.80932289  1
  Zn  Zn92  1  0.18406095  0.44666485  0.42439501  1
  Zn  Zn93  1  0.18878822  0.43703157  0.93128408  1
  Zn  Zn94  1  0.14681985  0.95606321  0.41251669  1
  Zn  Zn95  1  0.18831144  0.93137639  0.93942926  1
  Zn  Zn96  1  0.67260150  0.41541110  0.45396425  1
  Zn  Zn97  1  0.62034790  0.41128545  0.96162029  1
  Zn  Zn98  1  0.68833233  0.92635272  0.45844712  1
  Zn  Zn99  1  0.69131461  0.94318669  0.93394754  1
  Zn  Zn100  1  0.31759660  0.06576949  0.05965654  1
  Zn  Zn101  1  0.31376004  0.06987680  0.57428614  1
  Zn  Zn102  1  0.31393378  0.56486625  0.05545453  1
  Zn  Zn103  1  0.30838629  0.54963920  0.56844571  1
  Zn  Zn104  1  0.81562291  0.05926022  0.06279203  1
  Zn  Zn105  1  0.81732895  0.05856464  0.56921652  1
  Zn  Zn106  1  0.76482204  0.59202399  0.10625198  1
  Zn  Zn107  1  0.83731528  0.59338678  0.54641771  1
  Zn  Zn108  1  0.44429199  0.42838899  0.18046865  1
  Zn  Zn109  1  0.42198849  0.43357307  0.71015550  1
  Zn  Zn110  1  0.43505926  0.94595446  0.19047002  1
  Zn  Zn111  1  0.53401264  0.95636792  0.70570950  1
  Zn  Zn112  1  0.92993866  0.42959557  0.17378743  1
  Zn  Zn113  1  0.95020260  0.53708379  0.66995616  1
  Zn  Zn114  1  0.94407468  0.93372956  0.18816080  1
  Zn  Zn115  1  0.93999130  0.93407286  0.68356706  1
  Zn  Zn116  1  0.06979070  0.06916597  0.30785181  1
  Zn  Zn117  1  0.06408231  0.06007279  0.81590005  1
  Zn  Zn118  1  0.05619321  0.56415592  0.30894114  1
  Zn  Zn119  1  0.06703499  0.56499670  0.81831013  1
  Zn  Zn120  1  0.56457084  0.07096392  0.30151050  1
  Zn  Zn121  1  0.56487682  0.09509502  0.80744441  1
  Zn  Zn122  1  0.56705628  0.55618164  0.31461371  1
  Zn  Zn123  1  0.57543018  0.57124650  0.79283395  1
  Zn  Zn124  1  0.43509687  0.20567705  0.44421172  1
  Zn  Zn125  1  0.43689772  0.18348561  0.95180690  1
  Zn  Zn126  1  0.43986094  0.67593753  0.43047483  1
  Zn  Zn127  1  0.44966886  0.69428918  0.94593920  1
  Zn  Zn128  1  0.94331689  0.18426705  0.43781879  1
  Zn  Zn129  1  0.93891355  0.18730724  0.93540809  1
  Zn  Zn130  1  0.94284709  0.67400103  0.41599889  1
  Zn  Zn131  1  0.93551414  0.67619604  0.93798014  1
  Zn  Zn132  1  0.05836363  0.30609835  0.06264487  1
  Zn  Zn133  1  0.05818345  0.32146636  0.56634630  1
  Zn  Zn134  1  0.06422107  0.80854059  0.07633230  1
  Zn  Zn135  1  0.06169328  0.81022054  0.54824779  1
  Zn  Zn136  1  0.56223465  0.30709213  0.08293756  1
  Zn  Zn137  1  0.50904526  0.36553738  0.58916457  1
  Zn  Zn138  1  0.56421496  0.80421217  0.06359068  1
  Zn  Zn139  1  0.57742939  0.82040967  0.56336863  1
  O  O140  1  0.11249936  0.13210608  0.11615960  1
  O  O141  1  0.12037667  0.12301751  0.62173670  1
  O  O142  1  0.11133944  0.62291779  0.11293131  1
  O  O143  1  0.13219207  0.61866045  0.59843766  1
  O  O144  1  0.64098884  0.10503577  0.10895990  1
  O  O145  1  0.59557605  0.14401347  0.62292562  1
  O  O146  1  0.64221284  0.61644142  0.12344090  1
  O  O147  1  0.60535705  0.62978185  0.60689972  1
  O  O148  1  0.38397065  0.38524608  0.36166240  1
  O  O149  1  0.37578973  0.37154684  0.90816743  1
  O  O150  1  0.33788711  0.81912643  0.45177510  1
  O  O151  1  0.38908846  0.88402531  0.89277677  1
  O  O152  1  0.83533986  0.41636548  0.37179969  1
  O  O153  1  0.89334941  0.36675180  0.87246412  1
  O  O154  1  0.84564232  0.85947744  0.41942791  1
  O  O155  1  0.88632925  0.88033755  0.87884744  1
  O  O156  1  0.24453098  0.01812011  0.39313380  1
  O  O157  1  0.25594296  0.00485186  0.87550653  1
  O  O158  1  0.26432135  0.50229567  0.35903329  1
  O  O159  1  0.24464460  0.49931293  0.85661014  1
  O  O160  1  0.73788147  -0.00946290  0.36897120  1
  O  O161  1  0.76389969  0.00058540  0.86417465  1
  O  O162  1  0.78241541  0.45997865  0.39858630  1
  O  O163  1  0.76699003  0.49635821  0.90062495  1
  O  O164  1  0.25082198  0.50261939  0.13536726  1
  O  O165  1  0.24307143  0.50470250  0.64886521  1
  O  O166  1  0.24120613  1.01247842  0.12777510  1
  O  O167  1  0.23911286  1.00717101  0.63859437  1
  O  O168  1  0.76346531  0.47968633  0.10209270  1
  O  O169  1  0.75113405  0.47881888  0.60677217  1
  O  O170  1  0.74662896  0.98716518  0.12215295  1
  O  O171  1  0.76040859  0.99014447  0.63641885  1
  O  O172  1  0.00785284  0.36201988  0.24015542  1
  O  O173  1  0.01144669  0.35771460  0.76174313  1
  O  O174  1  -0.00153903  0.85869882  0.25384400  1
  O  O175  1  -0.00356761  0.86412220  0.76042068  1
  O  O176  1  0.52070872  0.37883960  0.25480278  1
  O  O177  1  0.50062186  0.36201391  0.75062269  1
  O  O178  1  0.48804738  0.86741980  0.25844536  1
  O  O179  1  0.49845266  0.86819420  0.76801995  1
  O  O180  1  0.58412624  0.16613758  0.25946422  1
  O  O181  1  0.48777637  0.14810751  0.74316071  1
  O  O182  1  0.48755989  0.62078987  0.25310760  1
  O  O183  1  0.50883767  0.64059853  0.72226642  1
  O  O184  1  0.99490717  0.12883111  0.24043511  1
  O  O185  1  0.99903746  0.13375818  0.74931755  1
  O  O186  1  0.98470243  0.62092098  0.23602052  1
  O  O187  1  1.00803393  0.62539674  0.73754169  1
  O  O188  1  0.36233748  0.25083001  0.01123554  1
  O  O189  1  0.35673994  0.26172641  0.50674393  1
  O  O190  1  0.36571336  0.75248951  0.00594999  1
  O  O191  1  0.38260453  0.75418785  0.49707396  1
  O  O192  1  0.87483360  0.23575366  0.01407950  1
  O  O193  1  0.87120569  0.25202006  0.50548579  1
  O  O194  1  0.86401207  0.76236589  -0.01059316  1
  O  O195  1  0.85914501  0.71027485  0.49143163  1
  O  O196  1  0.13005617  0.24682193  0.49728651  1
  O  O197  1  0.13102698  0.23769609  0.99385699  1
  O  O198  1  0.12524923  0.73504873  0.49389501  1
  O  O199  1  0.14337241  0.76061714  1.00597663  1
  O  O200  1  0.66340965  0.22928649  0.48042292  1
  O  O201  1  0.61976735  0.22892869  1.01413326  1
  O  O202  1  0.62060869  0.74070828  0.48870160  1
  O  O203  1  0.63573016  0.75615788  0.98502214  1
  O  O204  1  0.49059873  0.24045896  0.13648319  1
  O  O205  1  0.48001540  0.24646604  0.62813019  1
  O  O206  1  0.49447627  0.75560732  0.14495671  1
  O  O207  1  0.50132860  0.77659542  0.63693285  1
  O  O208  1  0.98881231  0.23922613  0.13236715  1
  O  O209  1  1.00840059  0.24246863  0.64198852  1
  O  O210  1  1.00600179  0.73618740  0.14466640  1
  O  O211  1  0.99536451  0.75091518  0.62321115  1
  O  O212  1  0.01010832  0.24138100  0.36165805  1
  O  O213  1  0.01193699  0.24501878  0.86748056  1
  O  O214  1  0.01124878  0.72758867  0.34172837  1
  O  O215  1  0.00022930  0.76197443  0.88336186  1
  O  O216  1  0.48687916  0.26371813  0.36401734  1
  O  O217  1  0.48854270  0.24510067  0.87147146  1
  O  O218  1  0.50404156  0.74673067  0.36427008  1
  O  O219  1  0.51269034  0.76330585  0.87678748  1
  O  O220  1  0.24156128  0.13628847  0.49927781  1
  O  O221  1  0.24091416  0.12896677  0.99306301  1
  O  O222  1  0.24912757  0.61661159  0.48287346  1
  O  O223  1  0.23959602  0.64164131  1.00974442  1
  O  O224  1  0.77810463  0.14247725  0.49744542  1
  O  O225  1  0.74546747  0.11551493  0.98763061  1
  O  O226  1  0.72982833  0.63187295  0.50934149  1
  O  O227  1  0.75814442  0.64415335  0.99999017  1
  O  O228  1  0.23899101  0.35695742  -0.00065582  1
  O  O229  1  0.23700236  0.36655792  0.49580404  1
  O  O230  1  0.26164066  0.86300747  -0.00383791  1
  O  O231  1  0.27694496  0.84132822  0.48792960  1
  O  O232  1  0.71574540  0.36158765  0.01430616  1
  O  O233  1  0.75375048  0.35061177  0.51054466  1
  O  O234  1  0.76691993  0.87563898  -0.00648118  1
  O  O235  1  0.78522425  0.85126896  0.47504477  1
  O  O236  1  0.13235770  0.48692339  0.25031122  1
  O  O237  1  0.12862135  0.48472460  0.75268119  1
  O  O238  1  0.14063352  0.99475693  0.25923295  1
  O  O239  1  0.12854569  1.00127139  0.73879663  1
  O  O240  1  0.64089001  0.49131566  0.25910266  1
  O  O241  1  0.62117385  0.48994201  0.73511628  1
  O  O242  1  0.64594474  1.00187286  0.23521547  1
  O  O243  1  0.61448778  1.00439294  0.76466176  1
  O  O244  1  0.35154661  -0.00150582  0.24495551  1
  O  O245  1  0.36717141  -0.00357082  0.76996485  1
  O  O246  1  0.36685011  0.50484702  0.24345094  1
  O  O247  1  0.36074105  0.51466075  0.75137220  1
  O  O248  1  0.87011180  0.00501500  0.24882943  1
  O  O249  1  0.88956719  0.01107995  0.76046917  1
  O  O250  1  0.87151973  0.50199613  0.23981596  1
  O  O251  1  0.87012838  0.51875753  0.75508351  1
  O  O252  1  0.12990836  0.36190030  0.36136296  1
  O  O253  1  0.11747469  0.36196976  0.86855099  1
  O  O254  1  0.11971058  0.86942257  0.35258870  1
  O  O255  1  0.10826518  0.88276613  0.87116545  1
  O  O256  1  0.61424350  0.37735337  0.36509845  1
  O  O257  1  0.61413234  0.38737547  0.85439809  1
  O  O258  1  0.62007565  0.86009368  0.38915978  1
  O  O259  1  0.61404631  0.87584296  0.88006352  1
  O  O260  1  0.37526206  0.13835067  0.12137116  1
  O  O261  1  0.37507357  0.14847443  0.62737433  1
  O  O262  1  0.37399979  0.63014327  0.13788552  1
  O  O263  1  0.39054235  0.62909163  0.60764760  1
  O  O264  1  0.88273432  0.12791525  0.13218402  1
  O  O265  1  0.89177887  0.11819053  0.64049279  1
  O  O266  1  0.88853352  0.62066739  0.12063126  1
  O  O267  1  0.87235483  0.62415676  0.64892986  1
  O  O268  1  0.24543949  0.24355272  0.11248475  1
  O  O269  1  0.25587325  0.25243097  0.61702532  1
  O  O270  1  0.27269289  0.74935911  0.13618019  1
  O  O271  1  0.25642095  0.76492500  0.66533071  1
  O  O272  1  0.75913931  0.23558481  0.12734582  1
  O  O273  1  0.75081011  0.24175848  0.60360414  1
  O  O274  1  0.73721484  0.75895925  0.10595504  1
  O  O275  1  0.74176635  0.76436456  0.59928555  1
  O  O276  1  0.24494786  0.24346295  0.38787057  1
  O  O277  1  0.24450894  0.24035755  0.88693251  1
  O  O278  1  0.26064716  0.72374511  0.36186725  1
  O  O279  1  0.25180948  0.74873803  0.88379237  1
  O  O280  1  0.77721640  0.25923346  0.39626981  1
  O  O281  1  0.76079939  0.23803189  0.87909636  1
  O  O282  1  0.72939411  0.74178623  0.38456300  1
  O  O283  1  0.73662138  0.75878564  0.88082941  1
  O  O284  1  0.00779291  0.11670494  0.00382439  1
  O  O285  1  0.01174277  0.12611263  0.51258570  1
  O  O286  1  0.00925456  0.62916969  0.01069065  1
  O  O287  1  0.01560255  0.62000495  0.48684300  1
  O  O288  1  0.51846751  0.10916186  -0.00811009  1
  O  O289  1  0.47883303  0.12439451  0.51021984  1
  O  O290  1  0.50478805  0.64133067  0.02719496  1
  O  O291  1  0.50557933  0.61766328  0.50646509  1
  O  O292  1  0.50672379  0.37208503  0.47591026  1
  O  O293  1  0.51088169  0.37507365  1.00283895  1
  O  O294  1  0.48093960  0.91116287  0.51319962  1
  O  O295  1  0.49828204  0.87942353  0.99438589  1
  O  O296  1  1.00120182  0.37718997  0.48839122  1
  O  O297  1  1.00577427  0.36841496  0.98665837  1
  O  O298  1  1.00462135  0.89580712  0.50423244  1
  O  O299  1  0.99257817  0.87904733  0.99132386  1
  O  O300  1  0.48346640  0.49387452  0.36920872  1
  O  O301  1  0.47196136  0.54410462  0.86786441  1
  O  O302  1  0.51475264  0.99860113  0.36060974  1
  O  O303  1  0.49538342  0.98989631  0.88649512  1
  O  O304  1  1.00518308  0.49680619  0.38311249  1
  O  O305  1  1.00543307  0.48419646  0.87423642  1
  O  O306  1  1.02217539  1.01194705  0.39590043  1
  O  O307  1  0.99260651  0.99626984  0.88487453  1
  O  O308  1  -0.01034609  0.01128153  0.11144675  1
  O  O309  1  0.01337414  0.00940921  0.62091776  1
  O  O310  1  -0.00183838  0.50638879  0.12119016  1
  O  O311  1  0.01777951  0.48613977  0.60195407  1
  O  O312  1  0.51605955  -0.00614452  0.11907481  1
  O  O313  1  0.48612894  0.02551313  0.63600152  1
  O  O314  1  0.51052176  0.50755745  0.13047211  1
  O  O315  1  0.49004176  0.50313804  0.62832009  1
  O  O316  1  0.23768744  0.38488943  0.24849119  1
  O  O317  1  0.23775525  0.36922984  0.76160503  1
  O  O318  1  0.24057885  0.89102340  0.24202710  1
  O  O319  1  0.24210314  0.89049329  0.76430082  1
  O  O320  1  0.74666987  0.38290583  0.23205126  1
  O  O321  1  0.72869169  0.36462341  0.74929512  1
  O  O322  1  0.76498604  0.88701782  0.25280876  1
  O  O323  1  0.74961352  0.86287802  0.73224737  1
  O  O324  1  0.24265774  0.11358501  0.26853612  1
  O  O325  1  0.24367232  0.11596328  0.76758615  1
  O  O326  1  0.25293440  0.60883485  0.25315300  1
  O  O327  1  0.24060409  0.62891653  0.75919910  1
  O  O328  1  0.76526512  0.10768806  0.25097946  1
  O  O329  1  0.76569946  0.12451742  0.76625284  1
  O  O330  1  0.76928740  0.62890376  0.22093776  1
  O  O331  1  0.74432853  0.63512516  0.74931546  1
  O  O332  1  0.36194187  0.12358161  0.38959121  1
  O  O333  1  0.36506354  0.11074439  0.89229561  1
  O  O334  1  0.36946790  0.60851393  0.36113845  1
  O  O335  1  0.41876570  0.59708825  0.87642652  1
  O  O336  1  0.88625092  0.12342144  0.35794063  1
  O  O337  1  0.86957820  0.11628759  0.87359193  1
  O  O338  1  0.86770529  0.61528290  0.35083744  1
  O  O339  1  0.86823141  0.63337535  0.86080323  1
  O  O340  1  0.12442651  0.36730601  0.13557430  1
  O  O341  1  0.12725886  0.36652973  0.64556604  1
  O  O342  1  0.09942889  0.89047246  0.14661509  1
  O  O343  1  0.12405463  0.88981940  0.62486012  1
  O  O344  1  0.63445505  0.37327508  0.14118610  1
  O  O345  1  0.61175269  0.35526974  0.63744002  1
  O  O346  1  0.63017477  0.88395143  0.12121299  1
  O  O347  1  0.66408542  0.89327303  0.56932922  1
  O  O348  1  0.11961710  0.25762565  0.25451134  1
  O  O349  1  0.12163280  0.25136328  0.76145378  1
  O  O350  1  0.14731693  0.76751867  0.23924100  1
  O  O351  1  0.09995526  0.74893860  0.74392759  1
  O  O352  1  0.67287304  0.27487432  0.26603066  1
  O  O353  1  0.60491839  0.25183351  0.76127801  1
  O  O354  1  0.60991289  0.75223506  0.26403548  1
  O  O355  1  0.61341759  0.75169037  0.76144874  1
  O  O356  1  0.35932649  0.25267240  0.23352635  1
  O  O357  1  0.37392256  0.26231464  0.74507722  1
  O  O358  1  0.38567715  0.73714986  0.24751464  1
  O  O359  1  0.40129944  0.74465370  0.76261360  1
  O  O360  1  0.87940834  0.23546857  0.24204774  1
  O  O361  1  0.89091898  0.24098709  0.75833298  1
  O  O362  1  0.87642343  0.74690877  0.25065040  1
  O  O363  1  0.89305745  0.73765372  0.75338741  1
  O  O364  1  0.36776561  0.49417729  0.48450658  1
  O  O365  1  0.38430287  0.48854332  1.01311322  1
  O  O366  1  0.36831797  0.98637686  0.50716746  1
  O  O367  1  0.38545342  0.99195394  1.00085632  1
  O  O368  1  0.89816444  0.50989006  0.50373176  1
  O  O369  1  0.82835952  0.50018886  0.93830552  1
  O  O370  1  0.89352098  1.01264124  0.49835880  1
  O  O371  1  0.88300986  0.99072074  0.98916334  1
  O  O372  1  0.11616564  0.00791355  -0.00580791  1
  O  O373  1  0.12581813  0.01221889  0.51630543  1
  O  O374  1  0.13793243  0.51094412  0.00204374  1
  O  O375  1  0.11819097  0.50506491  0.49376471  1
  O  O376  1  0.62234991  -0.00036640  0.00884225  1
  O  O377  1  0.64606420  0.03833340  0.50455414  1
  O  O378  1  0.61044827  0.51717082  -0.00307248  1
  O  O379  1  0.62914507  0.50879384  0.49466701  1
  O  O380  1  0.38463241  0.35829574  0.10793883  1
  O  O381  1  0.38843786  0.36362479  0.62104260  1
  O  O382  1  0.38625419  0.86659961  0.11192367  1
  O  O383  1  0.41486429  0.92573974  0.55003064  1
  O  O384  1  0.85848732  0.35325960  0.12196294  1
  O  O385  1  0.80175539  0.43700417  0.63752683  1
  O  O386  1  0.87985073  0.87700570  0.10560013  1
  O  O387  1  0.86418371  0.87533392  0.61998856  1
  O  O388  1  0.13468055  0.13879895  0.38664594  1
  O  O389  1  0.13226954  0.12942441  0.88499839  1
  O  O390  1  0.14091224  0.61436684  0.37640617  1
  O  O391  1  0.11520061  0.62944896  0.89951849  1
  O  O392  1  0.61295270  0.07869572  0.45208323  1
  O  O393  1  0.64262593  0.12521281  0.88730975  1
  O  O394  1  0.61363061  0.62989775  0.38975752  1
  O  O395  1  0.61883642  0.64010545  0.87316769  1
