# generated using pymatgen
data_V35Zn35O128
_symmetry_space_group_name_H-M   'P 1'
_cell_length_a   16.90806011
_cell_length_b   16.95741318
_cell_length_c   16.96770730
_cell_angle_alpha   89.81251297
_cell_angle_beta   89.82997145
_cell_angle_gamma   89.73454889
_symmetry_Int_Tables_number   1
_chemical_formula_structural   V35Zn35O128
_chemical_formula_sum   'V70 Zn70 O256'
_cell_volume   4864.83001616
_cell_formula_units_Z   2
loop_
 _symmetry_equiv_pos_site_id
 _symmetry_equiv_pos_as_xyz
  1  'x, y, z'
loop_
 _atom_site_type_symbol
 _atom_site_label
 _atom_site_symmetry_multiplicity
 _atom_site_fract_x
 _atom_site_fract_y
 _atom_site_fract_z
 _atom_site_occupancy
  V  V0  1  -0.00755308  0.13634070  0.13587080  1
  V  V1  1  0.89385349  -0.00997867  0.37832824  1
  V  V2  1  0.87726573  0.87550036  0.01195647  1
  V  V3  1  0.75843249  -0.00900190  0.74132948  1
  V  V4  1  0.26367537  0.85959709  0.63737512  1
  V  V5  1  0.62248999  0.25690996  0.88404472  1
  V  V6  1  0.50125024  -0.00085420  0.53816730  1
  V  V7  1  0.74233447  0.12911947  0.87981812  1
  V  V8  1  0.50840335  0.75758962  0.25295289  1
  V  V9  1  0.12405839  0.13588636  0.00155440  1
  V  V10  1  0.12948682  0.25620054  0.36079277  1
  V  V11  1  0.00521801  0.72124015  0.75494516  1
  V  V12  1  0.37500608  0.87080303  0.00510063  1
  V  V13  1  0.50852068  0.00712505  0.00770685  1
  V  V14  1  0.63395777  0.87562808  0.73905628  1
  V  V15  1  -0.00462760  0.50063623  0.49790023  1
  V  V16  1  0.25596782  0.13189307  0.88011631  1
  V  V17  1  0.14395583  0.74207539  0.89598206  1
  V  V18  1  0.62352768  0.76533758  0.88154206  1
  V  V19  1  0.01644855  0.75982918  0.26227610  1
  V  V20  1  0.12904150  0.87590344  0.74976737  1
  V  V21  1  0.61414946  0.34741465  0.27589395  1
  V  V22  1  0.62646688  0.63449944  0.47596825  1
  V  V23  1  0.00727203  0.87379992  0.87589713  1
  V  V24  1  0.25128941  0.01084683  0.74741076  1
  V  V25  1  0.64213132  0.51808649  0.63768276  1
  V  V26  1  0.00693454  0.11244151  0.60084492  1
  V  V27  1  0.25134405  0.86635679  0.12386671  1
  V  V28  1  0.00179371  0.63837830  0.11246980  1
  V  V29  1  0.37884745  0.48775434  0.35932637  1
  V  V30  1  0.36443294  0.39497423  0.52136196  1
  V  V31  1  0.88536794  0.25198610  0.59665154  1
  V  V32  1  0.50018671  0.38786023  0.87868804  1
  V  V33  1  0.38269810  0.00183882  0.87943331  1
  V  V34  1  0.74542379  0.35330931  0.11335746  1
  V  V35  1  0.76037423  0.61731634  0.86794008  1
  V  V36  1  0.72998912  0.10088829  0.39734210  1
  V  V37  1  0.86776563  0.64127414  0.24532049  1
  V  V38  1  0.87768109  -0.00039443  0.87640290  1
  V  V39  1  0.13028175  -0.00100410  0.13698992  1
  V  V40  1  0.23251843  0.61827077  0.36542597  1
  V  V41  1  0.38448340  0.61018806  0.72545688  1
  V  V42  1  0.72749773  -0.00680683  0.25450487  1
  V  V43  1  0.37159038  0.86490620  0.48878760  1
  V  V44  1  0.26212842  0.00636037  0.26224043  1
  V  V45  1  0.49882596  0.24254513  0.74929712  1
  V  V46  1  0.00475574  0.00085637  0.00538763  1
  V  V47  1  0.23588628  0.48664600  0.23056989  1
  V  V48  1  0.14292341  0.12258841  0.49269796  1
  V  V49  1  -0.01655244  0.37335328  0.86367348  1
  V  V50  1  0.51709895  0.13404593  0.12683082  1
  V  V51  1  0.72019318  0.26516632  0.50239596  1
  V  V52  1  0.11500868  0.50211825  0.09607974  1
  V  V53  1  0.75281489  0.75941307  0.49747223  1
  V  V54  1  0.11402537  0.25091302  0.85893050  1
  V  V55  1  0.35381509  0.25176258  0.11748841  1
  V  V56  1  0.49157683  0.62356662  0.11767889  1
  V  V57  1  0.36876844  0.63292152  0.24596837  1
  V  V58  1  0.73319739  0.88200188  0.12953359  1
  V  V59  1  0.22367404  0.77490832  0.45643177  1
  V  V60  1  0.86484384  0.50435263  0.35320928  1
  V  V61  1  0.63426810  0.49985228  0.13753091  1
  V  V62  1  0.36589573  0.38023067  -0.00304228  1
  V  V63  1  0.50041008  0.75693865  0.74389127  1
  V  V64  1  -0.00549513  0.37737899  0.35252498  1
  V  V65  1  0.75245198  0.75673238  0.00478098  1
  V  V66  1  0.62401092  0.61359552  -0.00206134  1
  V  V67  1  0.90179520  0.86573901  0.51085295  1
  V  V68  1  0.88522059  0.13166379  0.74567635  1
  V  V69  1  0.35849441  0.23484285  0.63083369  1
  Zn  Zn70  1  0.86356304  0.12251377  0.24773997  1
  Zn  Zn71  1  0.50152865  0.51316301  0.49496493  1
  Zn  Zn72  1  0.12138939  0.61754487  0.51973210  1
  Zn  Zn73  1  0.25122598  0.26572796  0.49351464  1
  Zn  Zn74  1  0.37452126  0.13245907  0.24402300  1
  Zn  Zn75  1  0.16869080  0.43804274  0.58552229  1
  Zn  Zn76  1  0.19075666  0.18055696  0.18557940  1
  Zn  Zn77  1  0.14204870  0.24831511  0.64932880  1
  Zn  Zn78  1  0.18101052  0.68328711  0.18103086  1
  Zn  Zn79  1  0.19666121  0.67991344  0.71350911  1
  Zn  Zn80  1  0.68888455  0.18616276  0.20064954  1
  Zn  Zn81  1  0.69810665  0.22357765  0.68884769  1
  Zn  Zn82  1  0.68169977  0.69343216  0.18607647  1
  Zn  Zn83  1  0.69662478  0.68740576  0.67938941  1
  Zn  Zn84  1  0.31000374  0.31105691  0.29873246  1
  Zn  Zn85  1  0.31316846  0.31652530  0.81608387  1
  Zn  Zn86  1  0.30553493  0.81657448  0.30256244  1
  Zn  Zn87  1  0.31682228  0.81741910  0.82174044  1
  Zn  Zn88  1  0.82545907  0.33107963  0.26621711  1
  Zn  Zn89  1  0.80567051  0.31862996  0.79983007  1
  Zn  Zn90  1  0.81411458  0.81322762  0.31857560  1
  Zn  Zn91  1  0.81875975  0.80258319  0.81241045  1
  Zn  Zn92  1  0.18206450  0.44070822  0.41897194  1
  Zn  Zn93  1  0.15557246  0.35405499  1.00271565  1
  Zn  Zn94  1  0.18941943  0.94674015  0.44555873  1
  Zn  Zn95  1  0.19243261  0.94097560  0.93922797  1
  Zn  Zn96  1  0.67931312  0.44666407  0.43099939  1
  Zn  Zn97  1  0.81837858  0.44269741  0.94613727  1
  Zn  Zn98  1  0.69094380  0.95235028  0.47414168  1
  Zn  Zn99  1  0.69098762  0.94383986  0.93713179  1
  Zn  Zn100  1  0.31471703  0.06682203  0.06088093  1
  Zn  Zn101  1  0.31749542  0.05454794  0.55899356  1
  Zn  Zn102  1  0.31362801  0.55143579  0.05922933  1
  Zn  Zn103  1  0.30991475  0.57450112  0.55111570  1
  Zn  Zn104  1  0.80797756  0.06401584  0.06556745  1
  Zn  Zn105  1  0.82712457  0.05221031  0.55922544  1
  Zn  Zn106  1  0.81206630  0.57666877  0.06358084  1
  Zn  Zn107  1  0.79514453  0.54340279  0.52768358  1
  Zn  Zn108  1  0.44310733  0.43295759  0.17848606  1
  Zn  Zn109  1  0.44336300  0.43594324  0.70237505  1
  Zn  Zn110  1  0.43780216  0.94417700  0.18453724  1
  Zn  Zn111  1  0.43693472  0.93000085  0.70377503  1
  Zn  Zn112  1  0.90882846  0.46305042  0.13729408  1
  Zn  Zn113  1  0.99767337  0.39286457  0.65575745  1
  Zn  Zn114  1  0.93535853  0.93863568  0.19860176  1
  Zn  Zn115  1  0.94608392  0.93501268  0.68522396  1
  Zn  Zn116  1  0.06701261  0.06799537  0.31672834  1
  Zn  Zn117  1  0.06808183  0.06216457  0.81069322  1
  Zn  Zn118  1  0.04924415  0.55924143  0.29068437  1
  Zn  Zn119  1  0.07709811  0.54883737  0.87857280  1
  Zn  Zn120  1  0.55152212  0.15730554  0.31712985  1
  Zn  Zn121  1  0.59004951  0.08685727  0.75188669  1
  Zn  Zn122  1  0.55699937  0.56832744  0.30698053  1
  Zn  Zn123  1  0.56569335  0.57098331  0.81098536  1
  Zn  Zn124  1  0.56233015  0.16420967  0.58522975  1
  Zn  Zn125  1  0.44212497  0.19239409  0.94659602  1
  Zn  Zn126  1  0.44372628  0.71007480  0.45166938  1
  Zn  Zn127  1  0.44427697  0.69495772  0.93638981  1
  Zn  Zn128  1  0.90336498  0.20746396  0.39084829  1
  Zn  Zn129  1  0.94163581  0.18239572  0.93505612  1
  Zn  Zn130  1  0.93932580  0.68453669  0.43261447  1
  Zn  Zn131  1  0.93824831  0.69435978  0.93197501  1
  Zn  Zn132  1  0.07119119  0.32052583  0.17991545  1
  Zn  Zn133  1  0.04040555  0.30019717  0.52161063  1
  Zn  Zn134  1  0.06494451  0.81565030  0.07041979  1
  Zn  Zn135  1  0.06699131  0.79857822  0.57756070  1
  Zn  Zn136  1  0.56174194  0.31657515  0.05934512  1
  Zn  Zn137  1  0.53804416  0.32976028  0.55687022  1
  Zn  Zn138  1  0.55303868  0.81406155  0.06838527  1
  Zn  Zn139  1  0.57088047  0.81915673  0.55528241  1
  O  O140  1  0.11580200  0.11415144  0.11913670  1
  O  O141  1  0.11495816  0.14031422  0.60192835  1
  O  O142  1  0.11212210  0.61686006  0.11981199  1
  O  O143  1  0.16353432  0.59932909  0.63202968  1
  O  O144  1  0.61605766  0.12620590  0.13166304  1
  O  O145  1  0.63953714  0.13310517  0.65911135  1
  O  O146  1  0.61999360  0.61977635  0.11430625  1
  O  O147  1  0.62676814  0.61936904  0.61630003  1
  O  O148  1  0.36502606  0.38775201  0.36660605  1
  O  O149  1  0.38645927  0.36932808  0.88638365  1
  O  O150  1  0.35745665  0.87577101  0.39020322  1
  O  O151  1  0.36753034  0.89432969  0.89403063  1
  O  O152  1  0.88469306  0.38968399  0.35192856  1
  O  O153  1  0.87524028  0.37045408  0.87047035  1
  O  O154  1  0.87890097  0.88543830  0.38223070  1
  O  O155  1  0.88788722  0.88421281  0.88535820  1
  O  O156  1  0.24692158  -0.00296501  0.35964233  1
  O  O157  1  0.25610426  0.01200498  0.87184245  1
  O  O158  1  0.25273295  0.50497835  0.34815032  1
  O  O159  1  0.21410443  0.45379390  0.80744845  1
  O  O160  1  0.73892895  -0.01250499  0.36462049  1
  O  O161  1  0.76523062  0.00492044  0.87287216  1
  O  O162  1  0.76655832  0.49456065  0.36920555  1
  O  O163  1  0.75433554  0.51763030  0.88241385  1
  O  O164  1  0.23070545  0.50942955  0.12293847  1
  O  O165  1  0.22238510  0.53502532  0.62669641  1
  O  O166  1  0.23709833  1.00519837  0.12736512  1
  O  O167  1  0.26091384  0.99676817  0.64527277  1
  O  O168  1  0.73388048  0.50802485  0.12291079  1
  O  O169  1  0.74033052  0.49767782  0.61395186  1
  O  O170  1  0.75269738  0.98977672  0.13651267  1
  O  O171  1  0.76856712  0.99516001  0.64447536  1
  O  O172  1  0.00335880  0.37673070  0.25158565  1
  O  O173  1  -0.00239754  0.37997428  0.76669377  1
  O  O174  1  0.00021221  0.85941680  0.24213658  1
  O  O175  1  0.01397830  0.88125201  0.76408290  1
  O  O176  1  0.52544761  0.37467055  0.23318933  1
  O  O177  1  0.48884816  0.35858870  0.77116611  1
  O  O178  1  0.48653078  0.85406415  0.22913619  1
  O  O179  1  0.52667944  0.87261077  0.75463125  1
  O  O180  1  0.49031044  0.11935878  0.23140894  1
  O  O181  1  0.48755453  0.14199186  0.75571671  1
  O  O182  1  0.48476804  0.63236730  0.23733855  1
  O  O183  1  0.48368638  0.64577449  0.76522551  1
  O  O184  1  0.99923759  0.11467177  0.23549070  1
  O  O185  1  0.98746328  0.11664662  0.75041150  1
  O  O186  1  0.99336789  0.64152043  0.23673509  1
  O  O187  1  1.01434839  0.62721405  0.78578160  1
  O  O188  1  0.37431187  0.25883395  0.00918829  1
  O  O189  1  0.36766601  0.28310687  0.52795789  1
  O  O190  1  0.38236504  0.77220830  -0.00581649  1
  O  O191  1  0.33212050  0.75778920  0.48685046  1
  O  O192  1  0.90510687  0.27347395  0.01193669  1
  O  O193  1  0.89013270  0.25170545  0.49633043  1
  O  O194  1  0.86307509  0.76624468  -0.00735465  1
  O  O195  1  0.87246876  0.76165670  0.49114137  1
  O  O196  1  0.13337045  0.24277918  0.48390273  1
  O  O197  1  0.12366684  0.23640526  1.00005978  1
  O  O198  1  0.14620337  0.73651202  0.51319533  1
  O  O199  1  0.12778566  0.76224367  0.99314625  1
  O  O200  1  0.61815786  0.25445960  0.52282254  1
  O  O201  1  0.61845360  0.24324837  0.98195162  1
  O  O202  1  0.63462280  0.74311549  0.49751580  1
  O  O203  1  0.63016154  0.75545091  0.99231285  1
  O  O204  1  0.50239878  0.23577887  0.11545603  1
  O  O205  1  0.48942833  0.25302557  0.63526030  1
  O  O206  1  0.50441393  0.73049984  0.13164660  1
  O  O207  1  0.51517813  0.75604931  0.64652656  1
  O  O208  1  1.00788893  0.23402389  0.13148140  1
  O  O209  1  0.99083226  0.22895641  0.61449847  1
  O  O210  1  1.00519677  0.74214292  0.13128394  1
  O  O211  1  1.02617748  0.72515291  0.65453229  1
  O  O212  1  0.00933750  0.26868203  0.37751217  1
  O  O213  1  0.00504772  0.25524039  0.87446918  1
  O  O214  1  0.00559967  0.74629810  0.36163845  1
  O  O215  1  0.01565294  0.76299089  0.87681311  1
  O  O216  1  0.45721896  0.19197031  0.39274355  1
  O  O217  1  0.50718278  0.24695879  0.86933967  1
  O  O218  1  0.48183456  0.74710867  0.34993931  1
  O  O219  1  0.52007963  0.75188180  0.87216479  1
  O  O220  1  0.24556356  0.12602096  0.49885226  1
  O  O221  1  0.23678948  0.11733429  0.98596381  1
  O  O222  1  0.23958182  0.61629428  0.46942739  1
  O  O223  1  0.29694568  0.62215567  0.96216251  1
  O  O224  1  0.72872316  0.06528074  0.49616416  1
  O  O225  1  0.75691106  0.11832137  0.97927054  1
  O  O226  1  0.73510044  0.63245108  0.48993824  1
  O  O227  1  0.73705404  0.63976149  1.00026838  1
  O  O228  1  0.26547849  0.37696860  -0.01086038  1
  O  O229  1  0.25213649  0.38995035  0.50209139  1
  O  O230  1  0.26017126  0.88538708  0.01367141  1
  O  O231  1  0.25494306  0.87622472  0.52395648  1
  O  O232  1  0.76028726  0.36779151  0.01570254  1
  O  O233  1  0.73847514  0.36088581  0.48740111  1
  O  O234  1  0.75740249  0.87784161  0.01098919  1
  O  O235  1  0.75156683  0.86312762  0.50545788  1
  O  O236  1  0.13443509  0.49680702  0.23697137  1
  O  O237  1  0.15137048  0.49157889  0.78207734  1
  O  O238  1  0.13348962  1.00486238  0.23934885  1
  O  O239  1  0.14281519  0.99031784  0.76047510  1
  O  O240  1  0.62532387  0.50696452  0.23746653  1
  O  O241  1  0.63603700  0.52028949  0.73820812  1
  O  O242  1  0.63236285  0.99086108  0.24715360  1
  O  O243  1  0.64728047  0.98563943  0.75544744  1
  O  O244  1  0.36564987  0.00666382  0.24922815  1
  O  O245  1  0.36456197  -0.00702704  0.77080533  1
  O  O246  1  0.36649937  0.50105902  0.24555794  1
  O  O247  1  0.38332418  0.51508192  0.75632246  1
  O  O248  1  0.86846087  0.00127441  0.26726987  1
  O  O249  1  0.87465249  -0.00481036  0.76222053  1
  O  O250  1  0.87891824  0.51603512  0.24899744  1
  O  O251  1  0.87326460  0.51651807  0.73702383  1
  O  O252  1  0.11476488  0.36437538  0.36648707  1
  O  O253  1  0.11468934  0.35015279  0.89138251  1
  O  O254  1  0.17832798  0.84519734  0.39977229  1
  O  O255  1  0.12064920  0.87627014  0.87286426  1
  O  O256  1  0.61077788  0.37761799  0.37171485  1
  O  O257  1  0.61215366  0.35824275  0.87617171  1
  O  O258  1  0.53642137  0.93288234  0.35504784  1
  O  O259  1  0.63378881  0.86616365  0.87312142  1
  O  O260  1  0.37666628  0.14233669  0.11782844  1
  O  O261  1  0.37219515  0.13771981  0.61610686  1
  O  O262  1  0.38487958  0.61618228  0.12708792  1
  O  O263  1  0.38642042  0.61079709  0.62378016  1
  O  O264  1  0.88790235  0.12016520  0.12629924  1
  O  O265  1  0.88606172  0.12490458  0.62993234  1
  O  O266  1  0.88989819  0.62584391  0.13495320  1
  O  O267  1  0.87944582  0.57253644  0.69205710  1
  O  O268  1  0.25248561  0.25015143  0.11774800  1
  O  O269  1  0.25666265  0.25035840  0.62660816  1
  O  O270  1  0.24268141  0.76849728  0.12903639  1
  O  O271  1  0.25309481  0.76201595  0.64244595  1
  O  O272  1  0.73601360  0.25313289  0.12191904  1
  O  O273  1  0.77042225  0.23031003  0.58929229  1
  O  O274  1  0.74286775  0.76688673  0.11278411  1
  O  O275  1  0.75937806  0.73589141  0.60077502  1
  O  O276  1  0.23536422  0.26176657  0.37261673  1
  O  O277  1  0.23856625  0.23568693  0.86756034  1
  O  O278  1  0.24814197  0.72643046  0.36025073  1
  O  O279  1  0.24213324  0.76202497  0.88131212  1
  O  O280  1  0.74623726  0.20840990  0.41778984  1
  O  O281  1  0.73717710  0.23699332  0.86666082  1
  O  O282  1  0.75502179  0.75236608  0.39240903  1
  O  O283  1  0.74130280  0.74892108  0.88812831  1
  O  O284  1  0.00381385  0.11694326  0.01059953  1
  O  O285  1  -0.00105860  0.11489845  0.50325308  1
  O  O286  1  -0.00670698  0.63667991  0.01240212  1
  O  O287  1  0.00946907  0.60944896  0.48657628  1
  O  O288  1  0.50027220  0.11459472  0.00965762  1
  O  O289  1  0.51764524  0.09363052  0.51033711  1
  O  O290  1  0.51210461  0.63326771  0.00860095  1
  O  O291  1  0.51289591  0.63056217  0.49292125  1
  O  O292  1  0.46910967  0.39626966  0.49774292  1
  O  O293  1  0.49418096  0.37093353  0.98355356  1
  O  O294  1  0.46532929  0.82609580  0.50241099  1
  O  O295  1  0.48349401  0.89148918  1.01449637  1
  O  O296  1  0.99519698  0.39298581  0.47239163  1
  O  O297  1  0.94822388  0.33428949  1.00723130  1
  O  O298  1  1.00202579  0.85684266  0.50429359  1
  O  O299  1  0.99724986  0.88375378  0.99620143  1
  O  O300  1  0.47966491  0.50362560  0.36421036  1
  O  O301  1  0.50986418  0.48622807  0.86741614  1
  O  O302  1  0.49235915  0.98699250  0.37562795  1
  O  O303  1  0.48261532  1.01010497  0.88747812  1
  O  O304  1  0.99600682  0.48983026  0.36540602  1
  O  O305  1  1.00406101  0.46560821  0.89800859  1
  O  O306  1  0.99235782  1.00176630  0.37185353  1
  O  O307  1  0.99769932  0.99553758  0.88590374  1
  O  O308  1  0.01263418  0.00052236  0.11900250  1
  O  O309  1  0.00521369  0.01497357  0.62912647  1
  O  O310  1  0.01181048  0.51624469  0.12589369  1
  O  O311  1  -0.01263527  0.49147259  0.59721338  1
  O  O312  1  0.49507401  0.01382991  0.11338801  1
  O  O313  1  0.50221015  -0.00097659  0.63874048  1
  O  O314  1  0.51346995  0.51820919  0.12729508  1
  O  O315  1  0.52490809  0.48112651  0.62364071  1
  O  O316  1  0.24980350  0.38873730  0.23447330  1
  O  O317  1  0.23782886  0.39288425  0.76002675  1
  O  O318  1  0.25676985  0.89338904  0.23114657  1
  O  O319  1  0.24846157  0.88335542  0.74854099  1
  O  O320  1  0.71256904  0.36419052  0.23965571  1
  O  O321  1  0.73485096  0.32407451  0.71757561  1
  O  O322  1  0.75328415  0.87861144  0.23552058  1
  O  O323  1  0.75056099  0.88215618  0.76116150  1
  O  O324  1  0.25470139  0.11174301  0.24958960  1
  O  O325  1  0.24719359  0.11146159  0.76577993  1
  O  O326  1  0.25725736  0.61415307  0.24133539  1
  O  O327  1  0.29700729  0.64973624  0.75962780  1
  O  O328  1  0.74373465  0.10390078  0.26410997  1
  O  O329  1  0.77093517  0.10546859  0.76184602  1
  O  O330  1  0.76802603  0.63932760  0.23448835  1
  O  O331  1  0.74805921  0.64008041  0.77031933  1
  O  O332  1  0.39315341  0.15449821  0.38027223  1
  O  O333  1  0.36055174  0.12073342  0.88623025  1
  O  O334  1  0.36161705  0.61148250  0.35034894  1
  O  O335  1  0.35606066  0.61819439  0.91325394  1
  O  O336  1  0.85186961  0.09500536  0.39066252  1
  O  O337  1  0.87506860  0.11779880  0.86659789  1
  O  O338  1  0.88065291  0.61569758  0.35417319  1
  O  O339  1  0.85848614  0.63257615  0.88579665  1
  O  O340  1  0.11286866  0.39238574  0.10250778  1
  O  O341  1  0.10023044  0.35267316  0.61490033  1
  O  O342  1  0.13747944  0.89359809  0.11767648  1
  O  O343  1  0.13724948  0.86925572  0.64483844  1
  O  O344  1  0.63321838  0.39273391  0.11101334  1
  O  O345  1  0.58505889  0.41779081  0.62268154  1
  O  O346  1  0.63512768  0.87937259  0.12041283  1
  O  O347  1  0.63958145  0.86486763  0.64236840  1
  O  O348  1  0.12643139  0.24671820  0.25584069  1
  O  O349  1  0.11908374  0.24842068  0.76133856  1
  O  O350  1  0.11706575  0.74913990  0.24693826  1
  O  O351  1  0.12288423  0.75738000  0.77145199  1
  O  O352  1  0.61619140  0.24156080  0.27476278  1
  O  O353  1  0.60239333  0.24995102  0.76040925  1
  O  O354  1  0.60937906  0.74877891  0.25150506  1
  O  O355  1  0.62748968  0.76010307  0.76414704  1
  O  O356  1  0.37086039  0.25044261  0.22667841  1
  O  O357  1  0.37493060  0.25978213  0.73405544  1
  O  O358  1  0.36562826  0.73340300  0.24277828  1
  O  O359  1  0.40304970  0.78127124  0.75909919  1
  O  O360  1  0.86526926  0.22851986  0.28654049  1
  O  O361  1  0.87302150  0.23031893  0.74216117  1
  O  O362  1  0.88511499  0.74366468  0.25494240  1
  O  O363  1  0.90664847  0.75079106  0.76492708  1
  O  O364  1  0.36426119  0.50091993  0.47400633  1
  O  O365  1  0.38351417  0.47902034  1.00969598  1
  O  O366  1  0.39515658  0.97589315  0.51263709  1
  O  O367  1  0.38010611  0.99867698  0.99394517  1
  O  O368  1  0.88693560  0.51213296  0.46976600  1
  O  O369  1  0.87712197  0.49280688  1.02813021  1
  O  O370  1  0.88061202  0.97660493  0.49130681  1
  O  O371  1  0.88581258  0.99597879  0.99426873  1
  O  O372  1  0.11637975  0.01006175  0.00363373  1
  O  O373  1  0.12644660  0.02321900  0.49203144  1
  O  O374  1  0.12340716  0.50940821  -0.00143390  1
  O  O375  1  0.11369990  0.49746837  0.49553253  1
  O  O376  1  0.60624082  -0.00727380  -0.00694543  1
  O  O377  1  0.58115669  -0.06247126  0.50797732  1
  O  O378  1  0.62559275  0.51723694  0.00253881  1
  O  O379  1  0.62257882  0.52026176  0.49835789  1
  O  O380  1  0.38255580  0.36066835  0.11105941  1
  O  O381  1  0.36307175  0.41536800  0.61833892  1
  O  O382  1  0.36064527  0.88350014  0.11473941  1
  O  O383  1  0.36518712  0.87252083  0.62905763  1
  O  O384  1  0.84113467  0.37319318  0.15639850  1
  O  O385  1  0.89120032  0.34678958  0.62524256  1
  O  O386  1  0.87374314  0.88428762  0.11275356  1
  O  O387  1  0.88795178  0.87318585  0.61101683  1
  O  O388  1  0.11885623  0.14278521  0.38356598  1
  O  O389  1  0.12550809  0.13517405  0.88225224  1
  O  O390  1  0.13468155  0.61271323  0.35392271  1
  O  O391  1  0.13816629  0.64160687  0.88744014  1
  O  O392  1  0.63095335  0.10722787  0.38025763  1
  O  O393  1  0.64152176  0.12246494  0.86102056  1
  O  O394  1  0.62351346  0.62741411  0.37624414  1
  O  O395  1  0.63198518  0.63609553  0.88870570  1
