# generated using pymatgen
data_V35Zn35O128
_symmetry_space_group_name_H-M   'P 1'
_cell_length_a   16.86241592
_cell_length_b   16.86389982
_cell_length_c   16.87831396
_cell_angle_alpha   89.97187837
_cell_angle_beta   90.06256653
_cell_angle_gamma   89.93992658
_symmetry_Int_Tables_number   1
_chemical_formula_structural   V35Zn35O128
_chemical_formula_sum   'V70 Zn70 O256'
_cell_volume   4799.61411392
_cell_formula_units_Z   2
loop_
 _symmetry_equiv_pos_site_id
 _symmetry_equiv_pos_as_xyz
  1  'x, y, z'
loop_
 _atom_site_type_symbol
 _atom_site_label
 _atom_site_symmetry_multiplicity
 _atom_site_fract_x
 _atom_site_fract_y
 _atom_site_fract_z
 _atom_site_occupancy
  V  V0  1  0.24991779  0.11833291  0.87602296  1
  V  V1  1  0.13814758  0.01912138  0.64123649  1
  V  V2  1  0.12313290  0.10990290  0.00252530  1
  V  V3  1  0.75246883  0.12770619  0.37194479  1
  V  V4  1  0.36951106  0.77286598  0.63173399  1
  V  V5  1  -0.01178534  0.75473015  0.24675451  1
  V  V6  1  0.36901696  0.12695917  0.74610869  1
  V  V7  1  0.00418670  0.11317287  0.12117577  1
  V  V8  1  -0.00195027  0.37612257  0.86475658  1
  V  V9  1  0.74926361  0.62884539  0.36000562  1
  V  V10  1  0.62751116  0.12283891  0.50055581  1
  V  V11  1  0.87540142  0.13379325  0.24005312  1
  V  V12  1  0.62415453  0.62632881  0.51627277  1
  V  V13  1  0.12886039  0.50020694  0.63859307  1
  V  V14  1  0.49389320  0.25092006  0.23886224  1
  V  V15  1  0.88419933  0.37711093  0.49385960  1
  V  V16  1  0.00397683  0.26235948  0.24497047  1
  V  V17  1  0.13205271  0.88851854  0.23449901  1
  V  V18  1  0.61973982  0.85835166  0.25579981  1
  V  V19  1  0.63027682  0.40625435  0.26789493  1
  V  V20  1  0.24677561  0.63568705  0.36165420  1
  V  V21  1  0.27298952  0.85407849  0.10827453  1
  V  V22  1  0.24310035  0.36290804  0.64158351  1
  V  V23  1  -0.00280065  0.50698240  -0.00319522  1
  V  V24  1  0.38098946  -0.01377838  0.86845543  1
  V  V25  1  -0.00432984  0.01220301  0.51908678  1
  V  V26  1  0.35632892  0.35540668  0.50372355  1
  V  V27  1  0.89030038  0.24974905  0.63424185  1
  V  V28  1  0.62570362  0.76480107  0.86974696  1
  V  V29  1  0.49244371  0.37273596  0.39056586  1
  V  V30  1  0.12935018  0.62874589  0.50038995  1
  V  V31  1  0.36805453  0.50487396  0.38042243  1
  V  V32  1  0.62321326  0.25372690  0.37357612  1
  V  V33  1  0.49481019  -0.00251660  0.49065244  1
  V  V34  1  0.49131910  0.37495657  0.87585842  1
  V  V35  1  0.48808773  0.86303345  0.37313901  1
  V  V36  1  0.12493722  0.48872486  0.12577571  1
  V  V37  1  0.88677094  0.62263741  0.72831875  1
  V  V38  1  0.63399642  0.12372242  0.00275160  1
  V  V39  1  0.87590549  0.86955405  0.00972460  1
  V  V40  1  0.12661074  0.26279184  0.36926090  1
  V  V41  1  0.88419787  -0.00383810  0.37457451  1
  V  V42  1  0.24437524  0.47946202  0.24869678  1
  V  V43  1  0.88168648  0.35446976  0.00980646  1
  V  V44  1  0.49755666  0.12831409  0.62534061  1
  V  V45  1  0.37679479  0.37601450  0.01889197  1
  V  V46  1  0.74274403  0.00496876  0.24431039  1
  V  V47  1  0.25487544  0.24837640  0.01638472  1
  V  V48  1  0.11823364  0.75960319  0.36788084  1
  V  V49  1  0.50557687  0.24858153  0.75370115  1
  V  V50  1  0.14229771  0.73090054  0.87935215  1
  V  V51  1  0.63986018  0.24245189  0.87554907  1
  V  V52  1  0.75826150  0.87502104  0.63730940  1
  V  V53  1  0.75038392  0.61646113  0.86148439  1
  V  V54  1  0.71381257  0.39290960  0.09280434  1
  V  V55  1  0.75445892  0.25399412  0.50358645  1
  V  V56  1  0.87788343  0.50921086  0.36208848  1
  V  V57  1  0.00164311  0.50668445  0.50045410  1
  V  V58  1  0.87198270  0.11392210  0.75402850  1
  V  V59  1  0.12237363  0.25564418  0.86922699  1
  V  V60  1  0.86491628  -0.00192392  0.88339389  1
  V  V61  1  0.36844713  0.10741210  0.24363429  1
  V  V62  1  -0.00533274  0.62865897  0.13258263  1
  V  V63  1  0.74105432  0.38951787  0.63312712  1
  V  V64  1  0.74614136  0.73777066  0.00623804  1
  V  V65  1  0.50955356  0.79095952  0.74155682  1
  V  V66  1  0.63441991  -0.00249031  0.63956441  1
  V  V67  1  0.12970958  0.13634927  0.49777236  1
  V  V68  1  0.49505999  -0.00641883  0.00139461  1
  V  V69  1  0.75349215  0.75592260  0.49672784  1
  Zn  Zn70  1  0.24873831  0.10135544  0.36594186  1
  Zn  Zn71  1  0.61161064  0.00859130  0.13035665  1
  Zn  Zn72  1  0.74652246  0.86612388  0.12933396  1
  Zn  Zn73  1  0.89245746  0.86390884  0.50123617  1
  Zn  Zn74  1  0.00391299  0.74983340  0.74427716  1
  Zn  Zn75  1  -0.00428110  0.86963681  0.87255445  1
  Zn  Zn76  1  0.18677780  0.17955580  0.19246945  1
  Zn  Zn77  1  0.17606625  0.17946291  0.68925828  1
  Zn  Zn78  1  0.17809686  0.68135062  0.18172135  1
  Zn  Zn79  1  0.16166183  0.72963147  0.66753657  1
  Zn  Zn80  1  0.68578701  0.20272335  0.17701654  1
  Zn  Zn81  1  0.69412599  0.18876712  0.68978864  1
  Zn  Zn82  1  0.67604324  0.67299786  0.18653083  1
  Zn  Zn83  1  0.69082491  0.69439763  0.68818107  1
  Zn  Zn84  1  0.31180258  0.30070729  0.31346522  1
  Zn  Zn85  1  0.31197821  0.30280221  0.81732418  1
  Zn  Zn86  1  0.32201124  0.81473594  0.28431453  1
  Zn  Zn87  1  0.30411233  0.79117304  0.79295352  1
  Zn  Zn88  1  0.81699652  0.31899436  0.30993108  1
  Zn  Zn89  1  0.81620915  0.32322980  0.81086060  1
  Zn  Zn90  1  0.80831091  0.81640553  0.31378566  1
  Zn  Zn91  1  0.81945096  0.80453030  0.81750655  1
  Zn  Zn92  1  0.18659917  0.43626278  0.43772617  1
  Zn  Zn93  1  0.18204428  0.42624241  0.95181412  1
  Zn  Zn94  1  0.17688622  0.92704391  0.44875381  1
  Zn  Zn95  1  0.21869946  0.93721186  0.97799578  1
  Zn  Zn96  1  0.69668309  0.44373563  0.44112409  1
  Zn  Zn97  1  0.69147980  0.41661020  0.92048350  1
  Zn  Zn98  1  0.68534056  0.93629636  0.43295249  1
  Zn  Zn99  1  0.69262757  0.93811725  0.94044407  1
  Zn  Zn100  1  0.31781677  0.05409277  0.07191152  1
  Zn  Zn101  1  0.28744901  0.02705821  0.52254927  1
  Zn  Zn102  1  0.31086466  0.54713032  0.05991363  1
  Zn  Zn103  1  0.30257300  0.55661689  0.55741864  1
  Zn  Zn104  1  0.81394276  0.06430052  0.06052663  1
  Zn  Zn105  1  0.81662431  0.06585179  0.56717313  1
  Zn  Zn106  1  0.81474170  0.55791935  0.06110517  1
  Zn  Zn107  1  0.81279841  0.56829010  0.55941399  1
  Zn  Zn108  1  0.44085296  0.43825620  0.20390216  1
  Zn  Zn109  1  0.42566600  0.42852906  0.69114721  1
  Zn  Zn110  1  0.43796109  0.93127331  0.18499292  1
  Zn  Zn111  1  0.43104352  0.95113187  0.67496013  1
  Zn  Zn112  1  0.93182437  0.43935185  0.17973845  1
  Zn  Zn113  1  0.93262206  0.44313715  0.68247426  1
  Zn  Zn114  1  0.93707527  0.93512853  0.18865704  1
  Zn  Zn115  1  0.93679357  0.93433766  0.69144380  1
  Zn  Zn116  1  0.06327032  0.06869264  0.31200424  1
  Zn  Zn117  1  0.04466941  0.06273652  0.81515368  1
  Zn  Zn118  1  0.06123019  0.55985282  0.30971768  1
  Zn  Zn119  1  0.06272337  0.57122087  0.81919166  1
  Zn  Zn120  1  0.55567126  0.06952704  0.30961584  1
  Zn  Zn121  1  0.56333724  0.06180215  0.81978397  1
  Zn  Zn122  1  0.56469020  0.55641632  0.38772816  1
  Zn  Zn123  1  0.59094709  0.54872111  0.84174418  1
  Zn  Zn124  1  0.43096405  0.18079268  0.43173242  1
  Zn  Zn125  1  0.43950655  0.17937823  0.94340492  1
  Zn  Zn126  1  0.43073752  0.69073669  0.45168046  1
  Zn  Zn127  1  0.43772507  0.72686186  0.93203424  1
  Zn  Zn128  1  0.94166407  0.19163547  0.43117203  1
  Zn  Zn129  1  0.93974957  0.18231333  0.92894220  1
  Zn  Zn130  1  0.93777939  0.68788276  0.43923734  1
  Zn  Zn131  1  0.93225316  0.68812334  0.92963932  1
  Zn  Zn132  1  0.06190669  0.30579785  0.06167257  1
  Zn  Zn133  1  0.06777358  0.31839490  0.56101217  1
  Zn  Zn134  1  0.06974117  0.80981888  0.05602518  1
  Zn  Zn135  1  0.07730246  0.84186037  0.57187155  1
  Zn  Zn136  1  0.56673271  0.31692668  0.05265595  1
  Zn  Zn137  1  0.56151797  0.31451855  0.56394284  1
  Zn  Zn138  1  0.57607610  0.82697738  0.05662469  1
  Zn  Zn139  1  0.57013055  0.81485575  0.55810811  1
  O  O140  1  0.11696856  0.12098627  0.11407622  1
  O  O141  1  0.11393623  0.13220945  0.60505997  1
  O  O142  1  0.10892643  0.60825536  0.12706064  1
  O  O143  1  0.13943802  0.61314288  0.60563857  1
  O  O144  1  0.62721637  0.12794006  0.11041286  1
  O  O145  1  0.62501627  0.11909662  0.61703218  1
  O  O146  1  0.60270961  0.59453566  0.13643222  1
  O  O147  1  0.62656103  0.63019703  0.61638068  1
  O  O148  1  0.37387723  0.37318226  0.38690486  1
  O  O149  1  0.38701742  0.37106441  0.87051241  1
  O  O150  1  0.38953053  0.87683619  0.36170677  1
  O  O151  1  0.35971157  0.89020792  0.85376522  1
  O  O152  1  0.86830888  0.39244150  0.38638607  1
  O  O153  1  0.89412040  0.36897996  0.88383857  1
  O  O154  1  0.86727121  0.89440064  0.37934124  1
  O  O155  1  0.86977298  0.87963447  0.89060951  1
  O  O156  1  0.25587497  -0.00322077  0.41644806  1
  O  O157  1  0.26300972  0.01313204  0.88970405  1
  O  O158  1  0.24968286  0.50294147  0.36312604  1
  O  O159  1  0.24631005  0.51386251  0.88885746  1
  O  O160  1  0.75359424  0.01450132  0.36768845  1
  O  O161  1  0.76458612  -0.00716592  0.86914337  1
  O  O162  1  0.76693910  0.51795518  0.38250655  1
  O  O163  1  0.70932888  0.51715425  0.86974707  1
  O  O164  1  0.23952982  0.50452357  0.13700228  1
  O  O165  1  0.23310784  0.48613989  0.61876029  1
  O  O166  1  0.25281163  0.96454693  0.09524472  1
  O  O167  1  0.23848879  1.01490855  0.62498058  1
  O  O168  1  0.76016053  0.47891479  0.12401446  1
  O  O169  1  0.75366516  0.48757773  0.61403997  1
  O  O170  1  0.75090106  1.00329419  0.14036885  1
  O  O171  1  0.74059053  0.99606439  0.61952628  1
  O  O172  1  -0.00542098  0.36077682  0.24181064  1
  O  O173  1  -0.00307534  0.38709600  0.76598706  1
  O  O174  1  0.01076259  0.86010738  0.23959934  1
  O  O175  1  -0.00889959  0.86387304  0.75571675  1
  O  O176  1  0.51055654  0.36937967  0.27135015  1
  O  O177  1  0.49265536  0.35550129  0.75403691  1
  O  O178  1  0.51168385  0.87780864  0.26112189  1
  O  O179  1  0.50698511  0.88961299  0.74383606  1
  O  O180  1  0.48979336  0.14444952  0.25378518  1
  O  O181  1  0.49558294  0.12985602  0.74442336  1
  O  O182  1  0.53307475  0.58333903  0.17486202  1
  O  O183  1  0.47479455  0.61210665  0.80490678  1
  O  O184  1  0.99223579  0.12741044  0.23722847  1
  O  O185  1  0.97178193  0.13986295  0.76537677  1
  O  O186  1  1.00064966  0.63537538  0.24110318  1
  O  O187  1  0.99232403  0.62809520  0.74942533  1
  O  O188  1  0.36002451  0.24599496  -0.00172734  1
  O  O189  1  0.37275503  0.25676504  0.49957066  1
  O  O190  1  0.34316743  0.69696404  -0.00406027  1
  O  O191  1  0.37006367  0.72348256  0.54224900  1
  O  O192  1  0.88247183  0.25476045  -0.00323015  1
  O  O193  1  0.87084824  0.25691008  0.49988891  1
  O  O194  1  0.85678464  0.75761577  -0.00335869  1
  O  O195  1  0.86437311  0.75174468  0.49993753  1
  O  O196  1  0.10889917  0.24310723  0.48251175  1
  O  O197  1  0.13828313  0.24457490  0.99454764  1
  O  O198  1  0.11386171  0.73104649  0.47862355  1
  O  O199  1  0.12811625  0.80033279  0.95999267  1
  O  O200  1  0.63296011  0.24175455  0.49388217  1
  O  O201  1  0.61899333  0.23370582  0.98628632  1
  O  O202  1  0.64134645  0.74303067  0.50180238  1
  O  O203  1  0.63594680  0.75831493  0.98291665  1
  O  O204  1  0.52098382  0.26466027  0.14358818  1
  O  O205  1  0.51126758  0.23783184  0.63725007  1
  O  O206  1  0.50228310  0.73210301  0.09005395  1
  O  O207  1  0.49572821  0.77003320  0.63587198  1
  O  O208  1  1.00772275  0.23553325  0.13853181  1
  O  O209  1  0.98826103  0.25812928  0.61768445  1
  O  O210  1  1.00855545  0.73718843  0.13190791  1
  O  O211  1  1.05359504  0.75212554  0.63448545  1
  O  O212  1  0.00900674  0.24411998  0.35537415  1
  O  O213  1  0.01402802  0.26139635  0.88192402  1
  O  O214  1  0.00842550  0.74133998  0.35978304  1
  O  O215  1  0.00801289  0.75264445  0.87583272  1
  O  O216  1  0.50701669  0.25646141  0.37431235  1
  O  O217  1  0.50236842  0.24577329  0.86228538  1
  O  O218  1  0.49261440  0.76392000  0.38570337  1
  O  O219  1  0.51429984  0.76683669  0.86157004  1
  O  O220  1  0.23087348  0.13373587  0.50000428  1
  O  O221  1  0.24012428  0.12958856  0.99834534  1
  O  O222  1  0.23569044  0.61714075  0.48200665  1
  O  O223  1  0.27116180  0.57164488  0.92974532  1
  O  O224  1  0.74675625  0.13337078  0.49238114  1
  O  O225  1  0.73505476  0.11691819  0.99737970  1
  O  O226  1  0.74455323  0.64042467  0.50057281  1
  O  O227  1  0.74932581  0.63296486  0.99697141  1
  O  O228  1  0.26375207  0.35931235  -0.00034361  1
  O  O229  1  0.25309477  0.36612224  0.50234594  1
  O  O230  1  0.28629945  0.84790976  0.00578293  1
  O  O231  1  0.18285053  0.84883590  0.52857071  1
  O  O232  1  0.77750543  0.38302197  -0.00546114  1
  O  O233  1  0.76024667  0.36685449  0.50173236  1
  O  O234  1  0.75324708  0.86273239  0.00800299  1
  O  O235  1  0.74905491  0.86380080  0.49592997  1
  O  O236  1  0.13438873  0.49718548  0.24360510  1
  O  O237  1  0.12320064  0.51271353  0.73622732  1
  O  O238  1  0.11560948  0.98616038  0.25303939  1
  O  O239  1  0.12800716  1.05753222  0.73772702  1
  O  O240  1  0.61540292  0.50171868  0.29293040  1
  O  O241  1  0.58805375  0.50368353  0.71821862  1
  O  O242  1  0.63261742  1.00839970  0.25026256  1
  O  O243  1  0.62687957  1.00932511  0.73723954  1
  O  O244  1  0.38951178  0.01026298  0.25309501  1
  O  O245  1  0.37997068  0.01549021  0.75868555  1
  O  O246  1  0.35694302  0.49249597  0.26562546  1
  O  O247  1  0.35916169  0.50243502  0.75769488  1
  O  O248  1  0.86561741  0.00926500  0.25907186  1
  O  O249  1  0.87026224  0.00995565  0.75433361  1
  O  O250  1  0.88228338  0.49770106  0.26365808  1
  O  O251  1  0.87772880  0.51987647  0.74554154  1
  O  O252  1  0.12212829  0.36258780  0.37757765  1
  O  O253  1  0.12115862  0.36307373  0.87864237  1
  O  O254  1  0.12257861  0.86175506  0.36442053  1
  O  O255  1  0.16565241  0.90934545  0.82482850  1
  O  O256  1  0.61318973  0.36879910  0.38713869  1
  O  O257  1  0.60630966  0.34870998  0.87592894  1
  O  O258  1  0.61717074  0.87852592  0.36112795  1
  O  O259  1  0.64613385  0.86285476  0.86421157  1
  O  O260  1  0.37242272  0.12451806  0.14104346  1
  O  O261  1  0.38980984  0.11706010  0.63891679  1
  O  O262  1  0.35558359  0.65525525  0.06062502  1
  O  O263  1  0.37749802  0.57576451  0.64655729  1
  O  O264  1  0.88507041  0.12393139  0.13094094  1
  O  O265  1  0.87189407  0.14134411  0.63520539  1
  O  O266  1  0.89457130  0.61620153  0.12329182  1
  O  O267  1  0.87887139  0.63080873  0.62782799  1
  O  O268  1  0.24425293  0.24464995  0.11480118  1
  O  O269  1  0.23343425  0.26410808  0.62883450  1
  O  O270  1  0.23598008  0.75881213  0.12624098  1
  O  O271  1  0.27333972  0.75206326  0.67493340  1
  O  O272  1  0.72863745  0.29606550  0.12788566  1
  O  O273  1  0.75797271  0.25635912  0.61239839  1
  O  O274  1  0.73257174  0.74164989  0.11043851  1
  O  O275  1  0.74796295  0.76876602  0.61470668  1
  O  O276  1  0.22840832  0.24439672  0.36425943  1
  O  O277  1  0.24115217  0.23697643  0.88398959  1
  O  O278  1  0.23387439  0.73944339  0.36761198  1
  O  O279  1  0.24640947  0.73732257  0.87012887  1
  O  O280  1  0.74599704  0.24407797  0.38282810  1
  O  O281  1  0.73753366  0.26245684  0.87194957  1
  O  O282  1  0.76132294  0.74048522  0.38526204  1
  O  O283  1  0.74383375  0.73822006  0.88124884  1
  O  O284  1  0.01197195  0.12974694  0.01025882  1
  O  O285  1  0.00526985  0.11510698  0.48693794  1
  O  O286  1  -0.00525292  0.61143766  0.00480183  1
  O  O287  1  0.01077712  0.61409571  0.49726348  1
  O  O288  1  0.51414600  0.10712599  -0.01018743  1
  O  O289  1  0.50910024  0.12229320  0.50474313  1
  O  O290  1  0.50205236  0.68220268  0.03209185  1
  O  O291  1  0.52382913  0.63054848  0.48248970  1
  O  O292  1  0.48428264  0.37009494  0.49685965  1
  O  O293  1  0.47976183  0.35165880  0.98441632  1
  O  O294  1  0.51124056  0.88948990  0.48580989  1
  O  O295  1  0.50732224  0.89118801  0.99201345  1
  O  O296  1  0.99251443  0.38801359  0.49941320  1
  O  O297  1  0.99597977  0.37878154  0.99509208  1
  O  O298  1  1.00115937  0.90381400  0.50498007  1
  O  O299  1  0.97763210  0.86441544  1.00507807  1
  O  O300  1  0.47389989  0.48888363  0.37302938  1
  O  O301  1  0.51337153  0.47307775  0.87437063  1
  O  O302  1  0.50158819  1.00528683  0.38833390  1
  O  O303  1  0.48717972  0.99577717  0.87585225  1
  O  O304  1  0.98861797  0.50648322  0.38520639  1
  O  O305  1  1.01496905  0.48721415  0.89043231  1
  O  O306  1  0.98417341  1.00297371  0.36953067  1
  O  O307  1  0.98175667  0.98658522  0.87086506  1
  O  O308  1  -0.00327586  0.01388229  0.12668033  1
  O  O309  1  -0.01948051  0.01828869  0.61755507  1
  O  O310  1  0.00822285  0.50565674  0.12022517  1
  O  O311  1  0.01551065  0.49546739  0.60999645  1
  O  O312  1  0.49404902  -0.00333887  0.10783765  1
  O  O313  1  0.51832696  0.00940017  0.61437044  1
  O  O314  1  0.48654881  0.52998504  0.13813769  1
  O  O315  1  0.52489885  0.50934121  0.67749723  1
  O  O316  1  0.24718777  0.38098812  0.25102366  1
  O  O317  1  0.25786914  0.37103135  0.74082700  1
  O  O318  1  0.23435904  0.87574447  0.24576418  1
  O  O319  1  0.21242771  0.89568593  0.76972351  1
  O  O320  1  0.72918557  0.38383140  0.28048826  1
  O  O321  1  0.75348550  0.37855898  0.73329001  1
  O  O322  1  0.73645605  0.88510487  0.25260510  1
  O  O323  1  0.76136589  0.86878776  0.73569186  1
  O  O324  1  0.25897991  0.11227353  0.24755958  1
  O  O325  1  0.26472406  0.13527395  0.75773363  1
  O  O326  1  0.24431523  0.61674754  0.26063063  1
  O  O327  1  0.33781128  0.56694081  0.71885881  1
  O  O328  1  0.75491989  0.12816821  0.25306465  1
  O  O329  1  0.77258128  0.14462815  0.75661591  1
  O  O330  1  0.75355344  0.63234781  0.26005717  1
  O  O331  1  0.76055539  0.63082495  0.75665124  1
  O  O332  1  0.36329050  0.14032043  0.35307731  1
  O  O333  1  0.36879674  0.11922913  0.86450050  1
  O  O334  1  0.36005404  0.61155831  0.38799207  1
  O  O335  1  0.42319245  0.62091317  0.85851124  1
  O  O336  1  0.86596426  0.12133925  0.36397304  1
  O  O337  1  0.87346537  0.10724194  0.87477009  1
  O  O338  1  0.87060765  0.61638395  0.37649385  1
  O  O339  1  0.85126371  0.61520464  0.88304871  1
  O  O340  1  0.11815373  0.38835607  0.12662215  1
  O  O341  1  0.13166948  0.38666142  0.62734532  1
  O  O342  1  0.12704525  0.87569800  0.13212712  1
  O  O343  1  0.10532845  0.92483172  0.65208875  1
  O  O344  1  0.62081875  0.40400011  0.16614598  1
  O  O345  1  0.64163226  0.37207221  0.61613306  1
  O  O346  1  0.62426537  0.88484673  0.14346388  1
  O  O347  1  0.63767074  0.89186044  0.62118864  1
  O  O348  1  0.11388820  0.24522358  0.25643213  1
  O  O349  1  0.12778054  0.24400524  0.77094099  1
  O  O350  1  0.11622435  0.75429827  0.25810095  1
  O  O351  1  0.12435420  0.74948464  0.77664747  1
  O  O352  1  0.61992770  0.25089803  0.26769633  1
  O  O353  1  0.61439712  0.23764744  0.76061700  1
  O  O354  1  0.62396819  0.75965178  0.24666854  1
  O  O355  1  0.61267552  0.75490471  0.75156482  1
  O  O356  1  0.39297920  0.26518339  0.24235189  1
  O  O357  1  0.38918900  0.23401380  0.75261562  1
  O  O358  1  0.37158729  0.71554406  0.27608783  1
  O  O359  1  0.40486849  0.75715058  0.74447159  1
  O  O360  1  0.88474654  0.24170775  0.25667625  1
  O  O361  1  0.87918009  0.26309553  0.73351059  1
  O  O362  1  0.88888666  0.76138338  0.25146480  1
  O  O363  1  0.88146814  0.72987346  0.75943443  1
  O  O364  1  0.35855640  0.48380548  0.48364999  1
  O  O365  1  0.37459224  0.47567415  0.99983788  1
  O  O366  1  0.39891555  1.00455281  0.51414787  1
  O  O367  1  0.38675164  1.00494379  0.98332738  1
  O  O368  1  0.88919693  0.49744023  0.49905793  1
  O  O369  1  0.89583562  0.48868594  1.00482831  1
  O  O370  1  0.88153046  1.01314897  0.48501142  1
  O  O371  1  0.86707723  0.98650554  0.99309044  1
  O  O372  1  0.12726269  0.01164258  -0.01064606  1
  O  O373  1  0.10976306  0.01614652  0.51610762  1
  O  O374  1  0.11695416  0.49573656  0.01576708  1
  O  O375  1  0.11371761  0.50753506  0.49358533  1
  O  O376  1  0.61824900  0.00655828  -0.00055330  1
  O  O377  1  0.62289206  0.01351170  0.50055698  1
  O  O378  1  0.63471512  0.40869759  0.02465933  1
  O  O379  1  0.63073321  0.52249912  0.48951461  1
  O  O380  1  0.39075148  0.37709253  0.11777616  1
  O  O381  1  0.35830496  0.37930180  0.61241234  1
  O  O382  1  0.36678663  0.84949344  0.15399828  1
  O  O383  1  0.36801559  0.87311585  0.61905478  1
  O  O384  1  0.88391652  0.36437459  0.11064134  1
  O  O385  1  0.86770920  0.36774587  0.61241667  1
  O  O386  1  0.86591320  0.87956802  0.11599581  1
  O  O387  1  0.85903332  0.89222489  0.61268409  1
  O  O388  1  0.12850958  0.12750778  0.38316537  1
  O  O389  1  0.12720485  0.13339446  0.88953226  1
  O  O390  1  0.13368915  0.62633041  0.37568794  1
  O  O391  1  0.12291559  0.63191118  0.89491651  1
  O  O392  1  0.63319651  0.13358885  0.38223338  1
  O  O393  1  0.62888483  0.13365001  0.88045705  1
  O  O394  1  0.64859728  0.63570170  0.37821915  1
  O  O395  1  0.63677836  0.64829172  0.86617400  1
