# generated using pymatgen
data_V35Zn35O128
_symmetry_space_group_name_H-M   'P 1'
_cell_length_a   16.87149136
_cell_length_b   16.85862497
_cell_length_c   16.86466672
_cell_angle_alpha   89.93329889
_cell_angle_beta   90.13537873
_cell_angle_gamma   89.97655587
_symmetry_Int_Tables_number   1
_chemical_formula_structural   V35Zn35O128
_chemical_formula_sum   'V70 Zn70 O256'
_cell_volume   4796.80256119
_cell_formula_units_Z   2
loop_
 _symmetry_equiv_pos_site_id
 _symmetry_equiv_pos_as_xyz
  1  'x, y, z'
loop_
 _atom_site_type_symbol
 _atom_site_label
 _atom_site_symmetry_multiplicity
 _atom_site_fract_x
 _atom_site_fract_y
 _atom_site_fract_z
 _atom_site_occupancy
  V  V0  1  0.86792225  0.62328048  0.75835406  1
  V  V1  1  0.51074225  0.00436106  0.00121806  1
  V  V2  1  0.87466600  0.24485163  0.59263494  1
  V  V3  1  0.25867164  0.60621914  0.86619640  1
  V  V4  1  0.75179062  0.13508266  0.36541109  1
  V  V5  1  0.87283201  0.60647683  0.26070537  1
  V  V6  1  0.90098151  0.04266368  0.32522998  1
  V  V7  1  0.26599520  0.87028656  0.61093216  1
  V  V8  1  0.12712084  0.39737220  0.24858759  1
  V  V9  1  0.36803549  0.24691544  0.62508835  1
  V  V10  1  0.49592198  0.37715548  0.37792908  1
  V  V11  1  0.26235475  0.61885127  0.37541944  1
  V  V12  1  -0.00611725  0.12144609  0.63164489  1
  V  V13  1  0.86130811  0.74022135  0.11857214  1
  V  V14  1  0.00107601  0.39250651  0.38303719  1
  V  V15  1  0.13775531  0.49522834  0.63038168  1
  V  V16  1  0.12510725  0.25043196  0.36961757  1
  V  V17  1  0.00184797  0.75471398  0.24087966  1
  V  V18  1  0.75189277  0.86238232  0.63765175  1
  V  V19  1  0.63379597  0.64724149  0.50720884  1
  V  V20  1  0.12237554  0.12571471  0.50492614  1
  V  V21  1  -0.00393559  -0.00867154  0.50121848  1
  V  V22  1  0.37620636  0.10509163  0.24716428  1
  V  V23  1  0.37584786  -0.00056680  0.88163693  1
  V  V24  1  0.49785163  0.75481929  0.74842874  1
  V  V25  1  0.11449132  0.76231467  0.37880149  1
  V  V26  1  0.26276901  0.37223261  0.13418250  1
  V  V27  1  0.36969598  0.38442240  0.50508640  1
  V  V28  1  0.12171879  0.60976864  0.00901286  1
  V  V29  1  0.12505110  0.62333008  0.49672696  1
  V  V30  1  0.86875937  0.87288112  0.48934637  1
  V  V31  1  0.63607429  -0.01541719  0.12313754  1
  V  V32  1  0.12247921  -0.01101042  0.63379074  1
  V  V33  1  0.23008196  0.87185211  0.12430615  1
  V  V34  1  0.51585491  0.50260083  0.51113530  1
  V  V35  1  0.74361659  0.37939534  0.63417459  1
  V  V36  1  0.12542411  0.25219107  0.88430426  1
  V  V37  1  0.87294199  0.49163739  0.87090632  1
  V  V38  1  0.87830467  0.74998267  0.62414282  1
  V  V39  1  0.51177500  0.13539143  0.12404332  1
  V  V40  1  0.87647381  0.39998013  0.49654088  1
  V  V41  1  0.75203650  -0.01479406  0.24870179  1
  V  V42  1  0.24378674  0.73986612  -0.00440912  1
  V  V43  1  0.51298597  0.24746764  0.75409893  1
  V  V44  1  0.22166625  -0.00112489  0.23980096  1
  V  V45  1  0.75954412  0.02769006  0.73968202  1
  V  V46  1  0.86718515  0.36455416  0.00508198  1
  V  V47  1  0.85794266  0.00460995  0.88086821  1
  V  V48  1  0.51798025  0.87010756  0.87897683  1
  V  V49  1  0.62678259  0.12776250  0.50241373  1
  V  V50  1  -0.00156370  0.49052491  0.01197505  1
  V  V51  1  -0.01022690  0.25697396  0.75307670  1
  V  V52  1  0.37401817  0.12949183  0.75456263  1
  V  V53  1  0.37541974  0.62746333  0.23359183  1
  V  V54  1  0.51954897  0.37580845  0.87174506  1
  V  V55  1  0.49765209  0.49697841  0.01770021  1
  V  V56  1  0.48696889  0.25151321  0.25464898  1
  V  V57  1  0.02010787  0.03698419  0.00277013  1
  V  V58  1  0.24394750  -0.00963463  0.75760436  1
  V  V59  1  0.24515572  0.13366483  0.89330749  1
  V  V60  1  0.62331450  -0.00888892  0.62215039  1
  V  V61  1  0.01463160  0.75969319  0.76233919  1
  V  V62  1  0.74640760  0.41184207  0.13244817  1
  V  V63  1  0.00211448  0.61480239  0.62732367  1
  V  V64  1  0.14056597  0.37429552  0.74853721  1
  V  V65  1  0.48500731  0.62515985  0.63242112  1
  V  V66  1  0.62179206  0.25133143  0.36614082  1
  V  V67  1  0.62703041  0.62136206  -0.00746428  1
  V  V68  1  0.38001881  0.86523728  0.01038993  1
  V  V69  1  0.36762186  0.36107273  -0.01617600  1
  Zn  Zn70  1  0.45258279  -0.04436194  0.46350979  1
  Zn  Zn71  1  0.74193097  0.65229829  0.37475486  1
  Zn  Zn72  1  0.91376547  0.19523242  0.17122526  1
  Zn  Zn73  1  0.24645310  0.25275153  0.50757057  1
  Zn  Zn74  1  0.25448471  0.11716741  0.38416214  1
  Zn  Zn75  1  0.49645737  0.11609617  0.61743975  1
  Zn  Zn76  1  0.18783263  0.19162342  0.17874290  1
  Zn  Zn77  1  0.18525921  0.18135056  0.69639835  1
  Zn  Zn78  1  0.18931307  0.67886351  0.19132597  1
  Zn  Zn79  1  0.19374248  0.69206393  0.68909069  1
  Zn  Zn80  1  0.72777248  0.14832455  0.14716264  1
  Zn  Zn81  1  0.69489703  0.20064151  0.67483558  1
  Zn  Zn82  1  0.70341636  0.62346105  0.16791665  1
  Zn  Zn83  1  0.65683635  0.63682699  0.71955452  1
  Zn  Zn84  1  0.30782553  0.30989661  0.31842200  1
  Zn  Zn85  1  0.32302651  0.43796404  0.80804038  1
  Zn  Zn86  1  0.27719845  0.79675957  0.29878802  1
  Zn  Zn87  1  0.31697873  0.80788849  0.81688954  1
  Zn  Zn88  1  0.80959513  0.32826146  0.30644890  1
  Zn  Zn89  1  0.80526283  0.30753353  0.81987417  1
  Zn  Zn90  1  0.81395993  0.80079999  0.30429537  1
  Zn  Zn91  1  0.82992255  0.81947758  0.81631157  1
  Zn  Zn92  1  0.18683133  0.44272534  0.44270630  1
  Zn  Zn93  1  0.18629733  0.43203369  0.94303591  1
  Zn  Zn94  1  0.18960673  0.94132466  0.43660991  1
  Zn  Zn95  1  0.18953502  0.95019116  0.95587058  1
  Zn  Zn96  1  0.68382696  0.42469684  0.44983122  1
  Zn  Zn97  1  0.69050877  0.44868718  0.93887142  1
  Zn  Zn98  1  0.68142781  0.83567919  0.43892351  1
  Zn  Zn99  1  0.70362963  0.94908961  0.93987433  1
  Zn  Zn100  1  0.31850692  0.06264169  0.07088637  1
  Zn  Zn101  1  0.31052188  0.05232350  0.56798311  1
  Zn  Zn102  1  0.31489709  0.54719443  0.06365061  1
  Zn  Zn103  1  0.30900732  0.56645669  0.56049710  1
  Zn  Zn104  1  0.84931399  0.04234779  0.07239474  1
  Zn  Zn105  1  0.80705670  0.05769317  0.55105560  1
  Zn  Zn106  1  0.82225990  0.58132454  0.05000186  1
  Zn  Zn107  1  0.80746497  0.56364814  0.57219226  1
  Zn  Zn108  1  0.42992500  0.44449455  0.19548526  1
  Zn  Zn109  1  0.44731118  0.43003565  0.68663250  1
  Zn  Zn110  1  0.44958451  0.92966891  0.18507422  1
  Zn  Zn111  1  0.43845599  0.93707129  0.69681744  1
  Zn  Zn112  1  0.93596630  0.42696732  0.19240517  1
  Zn  Zn113  1  0.93529280  0.43332745  0.68713818  1
  Zn  Zn114  1  0.94085307  0.91915362  0.16479374  1
  Zn  Zn115  1  0.93447287  0.93535978  0.69586865  1
  Zn  Zn116  1  0.06447095  0.06878006  0.30863749  1
  Zn  Zn117  1  0.05689158  0.06319906  0.81959816  1
  Zn  Zn118  1  0.05516329  0.56741939  0.30690365  1
  Zn  Zn119  1  0.06322607  0.56165264  0.82246377  1
  Zn  Zn120  1  0.57294382  0.06064541  0.30525757  1
  Zn  Zn121  1  0.57285190  0.06298071  0.80963454  1
  Zn  Zn122  1  0.53451608  0.58543276  0.34231634  1
  Zn  Zn123  1  0.54677691  0.55871168  0.81999416  1
  Zn  Zn124  1  0.42219807  0.14965451  0.44999270  1
  Zn  Zn125  1  0.44046494  0.19197774  0.93817246  1
  Zn  Zn126  1  0.45302700  0.76000390  0.32223948  1
  Zn  Zn127  1  0.44297845  0.68135463  0.93916383  1
  Zn  Zn128  1  0.93372187  0.21638449  0.34419757  1
  Zn  Zn129  1  0.93253506  0.18716645  0.93077303  1
  Zn  Zn130  1  0.93879813  0.68424123  0.43551849  1
  Zn  Zn131  1  0.94349171  0.68236455  0.93681963  1
  Zn  Zn132  1  0.06218561  0.31100813  0.07159903  1
  Zn  Zn133  1  0.05781760  0.31376326  0.56315462  1
  Zn  Zn134  1  0.06201080  0.79609455  0.06319619  1
  Zn  Zn135  1  0.06130718  0.80819696  0.56741350  1
  Zn  Zn136  1  0.56210172  0.32770808  0.07140997  1
  Zn  Zn137  1  0.55913462  0.30272909  0.56271164  1
  Zn  Zn138  1  0.68525052  0.78831270  0.06078398  1
  Zn  Zn139  1  0.55829401  0.80792286  0.57619309  1
  O  O140  1  0.07789899  0.15772929  0.14736417  1
  O  O141  1  0.11720446  0.11347943  0.62270031  1
  O  O142  1  0.14108560  0.61556624  0.10860243  1
  O  O143  1  0.11730465  0.61782876  0.62468387  1
  O  O144  1  0.61445893  0.11594379  0.13284036  1
  O  O145  1  0.63105446  0.12475222  0.61048003  1
  O  O146  1  0.60922087  0.62575531  0.10759228  1
  O  O147  1  0.60222586  0.63573307  0.61115995  1
  O  O148  1  0.38675941  0.36035517  0.39593797  1
  O  O149  1  0.37579753  0.36400923  0.88170793  1
  O  O150  1  0.37634800  0.91107299  0.37746339  1
  O  O151  1  0.37860560  0.88852968  0.88740251  1
  O  O152  1  0.88956360  0.37840626  0.38565978  1
  O  O153  1  0.87065366  0.38262036  0.88588863  1
  O  O154  1  0.87011065  0.86624736  0.39094925  1
  O  O155  1  0.88593765  0.90543216  0.86369845  1
  O  O156  1  0.23073033  0.00551904  0.34702530  1
  O  O157  1  0.25526775  0.00744376  0.87659783  1
  O  O158  1  0.25043111  0.51795033  0.38791382  1
  O  O159  1  0.25412985  0.50014048  0.87721377  1
  O  O160  1  0.78402924  0.01431805  0.35004499  1
  O  O161  1  0.74911622  0.00246157  0.84457711  1
  O  O162  1  0.69965551  0.49442958  0.34487439  1
  O  O163  1  0.77238522  0.50164247  0.87725823  1
  O  O164  1  0.24325193  0.47234428  0.11353866  1
  O  O165  1  0.23633014  0.50799724  0.63093992  1
  O  O166  1  0.25457961  0.98486249  0.13104667  1
  O  O167  1  0.24137951  0.99179893  0.63865908  1
  O  O168  1  0.74578838  0.51389583  0.12158866  1
  O  O169  1  0.75714766  0.48003295  0.62883226  1
  O  O170  1  0.74309002  1.01244324  0.13572056  1
  O  O171  1  0.74854217  0.99143062  0.63174992  1
  O  O172  1  0.01517991  0.38201247  0.27021513  1
  O  O173  1  0.00649006  0.35960004  0.74400948  1
  O  O174  1  0.00053503  0.85731638  0.24086361  1
  O  O175  1  0.00120768  0.86011626  0.74558659  1
  O  O176  1  0.48769416  0.36966701  0.27207218  1
  O  O177  1  0.50293674  0.35783053  0.75778178  1
  O  O178  1  0.49865170  0.84786581  0.25037513  1
  O  O179  1  0.50125126  0.86763414  0.76705392  1
  O  O180  1  0.49402596  0.12730672  0.24573623  1
  O  O181  1  0.49004984  0.13109064  0.75885984  1
  O  O182  1  0.47867370  0.65379838  0.27557143  1
  O  O183  1  0.48725603  0.62580130  0.73558046  1
  O  O184  1  0.96097470  0.11225883  0.27020077  1
  O  O185  1  1.00561142  0.13385941  0.73668266  1
  O  O186  1  0.98186601  0.63657152  0.26117344  1
  O  O187  1  0.99654111  0.63119798  0.74179775  1
  O  O188  1  0.38745358  0.26350505  0.00813393  1
  O  O189  1  0.37498263  0.23717292  0.51640744  1
  O  O190  1  0.36954985  0.76232458  -0.00014233  1
  O  O191  1  0.36112049  0.83515675  0.38252605  1
  O  O192  1  0.87278337  0.26589654  -0.00924721  1
  O  O193  1  0.88197958  0.25503549  0.49628691  1
  O  O194  1  0.87259297  0.70296484  0.02116492  1
  O  O195  1  0.88785503  0.76195827  0.51370856  1
  O  O196  1  0.12685682  0.24030456  0.50502354  1
  O  O197  1  0.11446622  0.26185980  0.98177193  1
  O  O198  1  0.11242787  0.73762812  0.49021857  1
  O  O199  1  0.13738746  0.73101865  1.00219654  1
  O  O200  1  0.62373396  0.23413106  0.48887289  1
  O  O201  1  0.63502771  0.23748890  1.01068269  1
  O  O202  1  0.63228853  0.75177194  0.50839805  1
  O  O203  1  0.60033190  0.72284564  1.02717344  1
  O  O204  1  0.51190983  0.24036595  0.13619051  1
  O  O205  1  0.49162597  0.23925495  0.63591071  1
  O  O206  1  0.57919012  0.81551944  0.22613788  1
  O  O207  1  0.48914511  0.74634697  0.64045157  1
  O  O208  1  1.02705483  0.22284623  0.14396019  1
  O  O209  1  0.98726218  0.24313314  0.63103614  1
  O  O210  1  0.99845009  0.73838378  0.13538594  1
  O  O211  1  0.99421741  0.74094800  0.63671139  1
  O  O212  1  0.02143748  0.26688378  0.38897110  1
  O  O213  1  0.01457952  0.23802687  0.85863346  1
  O  O214  1  0.00821108  0.75010073  0.36694052  1
  O  O215  1  -0.00344215  0.74551078  0.86221161  1
  O  O216  1  0.50573718  0.25344948  0.37257932  1
  O  O217  1  0.50171351  0.25595482  0.86302911  1
  O  O218  1  0.51540847  0.80540329  0.41705639  1
  O  O219  1  0.50243800  0.76940016  0.88696542  1
  O  O220  1  0.23153956  0.11597956  0.50228454  1
  O  O221  1  0.25560169  0.12072244  0.99225922  1
  O  O222  1  0.23041714  0.62887386  0.49961637  1
  O  O223  1  0.25193700  0.63183827  0.99870788  1
  O  O224  1  0.73764747  0.11371438  0.47688727  1
  O  O225  1  0.70966918  0.16575243  0.87619094  1
  O  O226  1  0.73450242  0.62392116  0.50879345  1
  O  O227  1  0.72741610  0.61820360  0.98825406  1
  O  O228  1  0.26511672  0.37031707  0.00340207  1
  O  O229  1  0.26634060  0.37358851  0.49956879  1
  O  O230  1  0.26070031  0.87077396  0.00848611  1
  O  O231  1  0.25558353  0.88543674  0.51105361  1
  O  O232  1  0.76335791  0.38814600  0.00877577  1
  O  O233  1  0.77235215  0.37858697  0.49935912  1
  O  O234  1  0.74790149  0.83319443  -0.03462483  1
  O  O235  1  0.76438139  0.87682338  0.51307790  1
  O  O236  1  0.12982710  0.49665248  0.25658420  1
  O  O237  1  0.11794570  0.48474350  0.74368357  1
  O  O238  1  0.12320181  1.01251685  0.22869329  1
  O  O239  1  0.13095035  1.00553079  0.74603757  1
  O  O240  1  0.64235577  0.50007509  0.29606507  1
  O  O241  1  0.62813185  0.53139158  0.74966641  1
  O  O242  1  0.63905611  0.99362113  0.23755874  1
  O  O243  1  0.64274284  1.01528638  0.73191721  1
  O  O244  1  0.38584071  0.00437119  0.24962893  1
  O  O245  1  0.36995435  0.00786383  0.76524866  1
  O  O246  1  0.39118013  0.52746261  0.25953414  1
  O  O247  1  0.37562060  0.49835948  0.73390612  1
  O  O248  1  0.87195447  -0.00893302  0.23560586  1
  O  O249  1  0.86382444  0.00801255  0.74812877  1
  O  O250  1  0.88599031  0.50692523  0.26045195  1
  O  O251  1  0.88494429  0.50908319  0.75993221  1
  O  O252  1  0.12389304  0.37057327  0.37511112  1
  O  O253  1  0.13155428  0.36172769  0.86159037  1
  O  O254  1  0.12699193  0.86131575  0.37995008  1
  O  O255  1  0.10024552  0.87136943  0.91647069  1
  O  O256  1  0.61012504  0.35797166  0.38844406  1
  O  O257  1  0.61874398  0.37888613  0.87649417  1
  O  O258  1  0.60193028  0.90685130  0.37440882  1
  O  O259  1  0.61509655  0.88777775  0.88661849  1
  O  O260  1  0.39685353  0.11814244  0.13710895  1
  O  O261  1  0.37711623  0.12584195  0.63912852  1
  O  O262  1  0.36871921  0.62348508  0.13332383  1
  O  O263  1  0.38855301  0.63100731  0.60671284  1
  O  O264  1  0.83476095  0.14723535  0.11007520  1
  O  O265  1  0.88203926  0.13502009  0.60679398  1
  O  O266  1  0.86983697  0.62589203  0.15064088  1
  O  O267  1  0.88685458  0.62929405  0.63165028  1
  O  O268  1  0.22964292  0.27373675  0.11693441  1
  O  O269  1  0.26413091  0.24029999  0.62959601  1
  O  O270  1  0.24413994  0.76472197  0.11627047  1
  O  O271  1  0.24916568  0.77196414  0.63030570  1
  O  O272  1  0.70269702  0.21920927  0.03698132  1
  O  O273  1  0.77252018  0.25770794  0.61438632  1
  O  O274  1  0.75622456  0.73477492  0.13203731  1
  O  O275  1  0.76325470  0.75930544  0.62943900  1
  O  O276  1  0.23824741  0.24386901  0.38642146  1
  O  O277  1  0.23871387  0.23680269  0.87901909  1
  O  O278  1  0.21977622  0.72998084  0.37239190  1
  O  O279  1  0.24984818  0.75162460  0.89399588  1
  O  O280  1  0.73645658  0.24457661  0.36482169  1
  O  O281  1  0.71476387  0.24521891  0.87062523  1
  O  O282  1  0.72932697  0.76644273  0.36642989  1
  O  O283  1  0.75527171  0.78208532  0.90484259  1
  O  O284  1  0.00063803  0.13596719  0.00825229  1
  O  O285  1  0.00978187  0.10954651  0.51427774  1
  O  O286  1  0.01774804  0.61424158  0.00074915  1
  O  O287  1  0.00651731  0.62854737  0.51969152  1
  O  O288  1  0.49742339  0.11815402  0.01546739  1
  O  O289  1  0.52258288  0.11636727  0.49595603  1
  O  O290  1  0.48240101  0.59783505  0.00965553  1
  O  O291  1  0.50955383  0.60691621  0.50195319  1
  O  O292  1  0.49275221  0.37943292  0.49977593  1
  O  O293  1  0.49906977  0.37296186  0.98563442  1
  O  O294  1  0.48628851  0.84324507  0.48361616  1
  O  O295  1  0.48988795  0.88824884  0.99226987  1
  O  O296  1  0.99159075  0.37905385  0.49447357  1
  O  O297  1  0.98532396  0.38116958  1.01023687  1
  O  O298  1  0.99092923  0.88475198  0.50858447  1
  O  O299  1  1.04034422  0.86702435  0.96394877  1
  O  O300  1  0.50336024  0.48265640  0.39239192  1
  O  O301  1  0.49045676  0.47602444  0.87571836  1
  O  O302  1  0.55433544  0.96931182  0.38971616  1
  O  O303  1  0.49721653  0.99975739  0.88222685  1
  O  O304  1  1.01061704  0.49078379  0.38512244  1
  O  O305  1  0.98694777  0.50299983  0.88888515  1
  O  O306  1  0.98188075  1.00468693  0.38034479  1
  O  O307  1  0.99243139  1.01269823  0.90252339  1
  O  O308  1  -0.04200592  -0.00664441  0.07831394  1
  O  O309  1  0.00399283  0.00261706  0.62375558  1
  O  O310  1  -0.01130455  0.49926498  0.11109838  1
  O  O311  1  0.00494827  0.51205111  0.63249085  1
  O  O312  1  0.51912859  0.00031801  0.12083822  1
  O  O313  1  0.51742562  -0.00217408  0.63441501  1
  O  O314  1  0.50856690  0.47237612  0.11588214  1
  O  O315  1  0.49978572  0.50872738  0.61768756  1
  O  O316  1  0.23916305  0.37285051  0.24703660  1
  O  O317  1  0.23884093  0.37436216  0.74660508  1
  O  O318  1  0.23852435  0.88594551  0.23561993  1
  O  O319  1  0.25697954  0.88812992  0.75484177  1
  O  O320  1  0.75686004  0.39270459  0.23222489  1
  O  O321  1  0.75332280  0.36007438  0.73363430  1
  O  O322  1  0.75545811  0.88723397  0.24728202  1
  O  O323  1  0.75526292  0.87385474  0.73796006  1
  O  O324  1  0.26134946  0.10838864  0.22787852  1
  O  O325  1  0.25854143  0.11425779  0.76240117  1
  O  O326  1  0.26269064  0.62258352  0.26333201  1
  O  O327  1  0.24420523  0.62830456  0.76882405  1
  O  O328  1  0.74235332  0.12147303  0.26176855  1
  O  O329  1  0.76037495  0.12679316  0.73484545  1
  O  O330  1  0.76204366  0.62045735  0.26246003  1
  O  O331  1  0.77076100  0.62996073  0.73897994  1
  O  O332  1  0.36700534  0.12840111  0.35030769  1
  O  O333  1  0.36590263  0.12040754  0.87539664  1
  O  O334  1  0.35634571  0.63826783  0.39336875  1
  O  O335  1  0.35693519  0.62554296  0.88471501  1
  O  O336  1  0.86103567  0.13221410  0.38098952  1
  O  O337  1  0.87403841  0.10746368  0.87734044  1
  O  O338  1  0.86208681  0.63394594  0.37026728  1
  O  O339  1  0.87624617  0.61927118  0.86160930  1
  O  O340  1  0.11413680  0.37879989  0.14894588  1
  O  O341  1  0.12269462  0.38620629  0.63133869  1
  O  O342  1  0.13174015  0.87783968  0.11040786  1
  O  O343  1  0.13285124  0.88635862  0.62023395  1
  O  O344  1  0.65381983  0.37263985  0.11642756  1
  O  O345  1  0.64623057  0.35951017  0.61033972  1
  O  O346  1  0.64641173  0.88710568  0.10975405  1
  O  O347  1  0.63834897  0.88211950  0.62148617  1
  O  O348  1  0.13056500  0.25216571  0.26957754  1
  O  O349  1  0.11933192  0.26061722  0.74960286  1
  O  O350  1  0.11124781  0.73604922  0.26102335  1
  O  O351  1  0.11328015  0.74649575  0.74962392  1
  O  O352  1  0.60835125  0.24885414  0.26545114  1
  O  O353  1  0.61096843  0.23687559  0.74244847  1
  O  O354  1  0.60195302  0.75913670  0.26942224  1
  O  O355  1  0.59768825  0.73017141  0.75901878  1
  O  O356  1  0.38389993  0.24348503  0.25266521  1
  O  O357  1  0.38376500  0.23885399  0.73893773  1
  O  O358  1  0.36153482  0.73996301  0.25113395  1
  O  O359  1  0.39765089  0.74423815  0.77368919  1
  O  O360  1  0.88757074  0.26609064  0.25448302  1
  O  O361  1  0.88937198  0.25272550  0.75816835  1
  O  O362  1  0.88605675  0.74536617  0.23831445  1
  O  O363  1  0.88431428  0.73971611  0.74527779  1
  O  O364  1  0.38174770  0.48564474  0.51009843  1
  O  O365  1  0.38853685  0.47274724  1.00831460  1
  O  O366  1  0.38759412  1.04027486  0.48900792  1
  O  O367  1  0.38616241  0.99710517  0.99594179  1
  O  O368  1  0.87833742  0.49882320  0.50307197  1
  O  O369  1  0.88454707  0.49932326  0.99070200  1
  O  O370  1  0.88268246  0.98490640  0.50438063  1
  O  O371  1  0.81269060  0.99230280  0.97659334  1
  O  O372  1  0.11915065  0.01748044  0.01292388  1
  O  O373  1  0.11457061  0.00310125  0.50751459  1
  O  O374  1  0.11017033  0.49577626  0.00134022  1
  O  O375  1  0.12389344  0.50972816  0.51939966  1
  O  O376  1  0.62241381  0.00384723  0.00994599  1
  O  O377  1  0.63264527  0.00853902  0.52156083  1
  O  O378  1  0.60665051  0.50661715  -0.00668662  1
  O  O379  1  0.61708926  0.49640475  0.50808290  1
  O  O380  1  0.36511698  0.36806959  0.13652126  1
  O  O381  1  0.38349450  0.35552070  0.61370218  1
  O  O382  1  0.37641780  0.87858260  0.11142430  1
  O  O383  1  0.36640101  0.88776860  0.62466786  1
  O  O384  1  0.86110696  0.37837034  0.11492454  1
  O  O385  1  0.87780863  0.36583458  0.60902478  1
  O  O386  1  0.87606620  0.84098420  0.10873882  1
  O  O387  1  0.86667452  0.86745539  0.62393996  1
  O  O388  1  0.11978965  0.13702836  0.38439847  1
  O  O389  1  0.13701711  0.13491632  0.87183622  1
  O  O390  1  0.11747473  0.61875033  0.39390202  1
  O  O391  1  0.14449995  0.61087493  0.89596041  1
  O  O392  1  0.63208047  0.13173372  0.37769824  1
  O  O393  1  0.63519618  0.13820090  0.88567161  1
  O  O394  1  0.62275771  0.62977788  0.40190513  1
  O  O395  1  0.58797276  0.63287350  0.89717602  1
