# generated using pymatgen
data_V35Zn35O128
_symmetry_space_group_name_H-M   'P 1'
_cell_length_a   16.81492537
_cell_length_b   16.85256435
_cell_length_c   16.91067070
_cell_angle_alpha   89.95224293
_cell_angle_beta   89.74238823
_cell_angle_gamma   89.74372898
_symmetry_Int_Tables_number   1
_chemical_formula_structural   V35Zn35O128
_chemical_formula_sum   'V70 Zn70 O256'
_cell_volume   4791.95679284
_cell_formula_units_Z   2
loop_
 _symmetry_equiv_pos_site_id
 _symmetry_equiv_pos_as_xyz
  1  'x, y, z'
loop_
 _atom_site_type_symbol
 _atom_site_label
 _atom_site_symmetry_multiplicity
 _atom_site_fract_x
 _atom_site_fract_y
 _atom_site_fract_z
 _atom_site_occupancy
  V  V0  1  0.37260520  0.37191790  0.50154600  1
  V  V1  1  0.12170119  0.50647354  0.12051072  1
  V  V2  1  0.53088393  0.25553594  0.79704413  1
  V  V3  1  0.12546288  0.37541565  0.25515854  1
  V  V4  1  0.86905276  0.37714054  -0.00717461  1
  V  V5  1  0.25782079  0.49487601  0.74471430  1
  V  V6  1  0.24099772  0.62614431  0.85754155  1
  V  V7  1  0.35816548  -0.00363754  0.38550508  1
  V  V8  1  0.11614975  0.25957616  0.85864396  1
  V  V9  1  0.86483374  0.26225205  0.12073384  1
  V  V10  1  0.75768593  0.85545099  0.62534454  1
  V  V11  1  0.61365397  0.64421577  0.02168436  1
  V  V12  1  -0.01559938  0.25921321  0.74162959  1
  V  V13  1  0.49573702  0.00130561  0.50699091  1
  V  V14  1  0.50184067  0.49033997  0.49666082  1
  V  V15  1  0.10720395  0.75529147  0.86923981  1
  V  V16  1  0.48877755  0.61529838  0.63001312  1
  V  V17  1  0.25068239  0.62659607  0.37257001  1
  V  V18  1  0.00251457  0.11465751  0.63080798  1
  V  V19  1  0.50492632  0.50490748  0.01471089  1
  V  V20  1  0.37417524  0.50315385  0.36409463  1
  V  V21  1  0.75542963  0.62506452  0.37919623  1
  V  V22  1  0.24485176  0.12241049  0.85870564  1
  V  V23  1  0.37836034  -0.00566560  0.87207332  1
  V  V24  1  -0.00017474  0.13066639  0.11939277  1
  V  V25  1  0.00057671  0.75279026  0.24528264  1
  V  V26  1  0.74283714  0.63538095  0.87200883  1
  V  V27  1  0.26228540  0.75803034  0.50569849  1
  V  V28  1  0.37592143  0.87407532  0.00220043  1
  V  V29  1  0.87934896  0.62637882  0.23646442  1
  V  V30  1  0.86673890  0.36315809  0.50956353  1
  V  V31  1  0.12183596  0.86640522  0.26760087  1
  V  V32  1  0.25613334  0.25419920  -0.00909050  1
  V  V33  1  0.49346798  0.74744656  0.23728884  1
  V  V34  1  0.00474341  0.25341666  0.26194088  1
  V  V35  1  0.23290074  0.86760223  0.11670717  1
  V  V36  1  0.62829697  0.62052613  0.50912237  1
  V  V37  1  0.64188234  0.11331660  0.47240429  1
  V  V38  1  0.63495808  0.01442354  0.62752126  1
  V  V39  1  0.77186459  0.75227074  0.01727016  1
  V  V40  1  0.62347294  0.26776927  0.37639735  1
  V  V41  1  0.10666658  0.87361245  0.74143378  1
  V  V42  1  0.74467345  0.13225957  0.85272920  1
  V  V43  1  0.23686116  0.73739943  -0.00367331  1
  V  V44  1  0.88229670  0.48710930  0.37384556  1
  V  V45  1  0.73005143  0.38073197  0.64229007  1
  V  V46  1  0.00033039  0.51046803  0.00024198  1
  V  V47  1  0.11718174  0.49489487  0.63123513  1
  V  V48  1  0.37730172  0.75791191  0.63957628  1
  V  V49  1  0.76457863  0.88017590  0.13130301  1
  V  V50  1  0.87175973  0.50959423  0.86531581  1
  V  V51  1  0.39135845  0.50721659  0.87386244  1
  V  V52  1  0.12103130  0.63355939  0.50255029  1
  V  V53  1  0.86455829  -0.00426835  0.86976740  1
  V  V54  1  0.86166656  0.12110152  0.25520024  1
  V  V55  1  0.61290402  0.86193638  0.74625106  1
  V  V56  1  0.61560930  0.38409737  0.23656620  1
  V  V57  1  0.64084482  0.87947904  0.25670672  1
  V  V58  1  0.00296296  0.49317543  0.49667605  1
  V  V59  1  0.24101586  0.00564331  0.23372346  1
  V  V60  1  0.39370205  0.23556979  0.62507680  1
  V  V61  1  0.48902231  0.86839883  0.38299002  1
  V  V62  1  -0.00885483  -0.01064934  -0.00476895  1
  V  V63  1  0.24252478  -0.01423046  0.73767021  1
  V  V64  1  0.74965307  0.49087705  0.24081113  1
  V  V65  1  0.25229820  0.37173781  0.11793695  1
  V  V66  1  -0.01286368  0.00270871  0.48420652  1
  V  V67  1  0.23912289  0.23892410  0.48710767  1
  V  V68  1  0.11877254  0.12457379  -0.00231494  1
  V  V69  1  0.62885293  0.74525988  0.38164694  1
  Zn  Zn70  1  0.56986875  0.79549729  0.89835410  1
  Zn  Zn71  1  0.42761981  0.58101691  0.18451406  1
  Zn  Zn72  1  0.43826196  0.20832516  0.17314475  1
  Zn  Zn73  1  0.30503396  0.16687308  0.31851758  1
  Zn  Zn74  1  0.24601517  0.36046324  0.63095140  1
  Zn  Zn75  1  0.54426014  0.03373570  0.09246195  1
  Zn  Zn76  1  0.18493430  0.19539902  0.17916127  1
  Zn  Zn77  1  0.18618482  0.18686230  0.67212697  1
  Zn  Zn78  1  0.24578730  0.65750077  0.16536422  1
  Zn  Zn79  1  0.17908123  0.69388779  0.68023809  1
  Zn  Zn80  1  0.68258830  0.19844312  0.19476649  1
  Zn  Zn81  1  0.81254071  0.19555250  0.67162431  1
  Zn  Zn82  1  0.69140663  0.69124795  0.19796917  1
  Zn  Zn83  1  0.68244925  0.68871195  0.69006421  1
  Zn  Zn84  1  0.32182568  0.32824606  0.30422197  1
  Zn  Zn85  1  0.36677383  0.34171603  0.78392357  1
  Zn  Zn86  1  0.30590672  0.80613568  0.31220491  1
  Zn  Zn87  1  0.31151675  0.81198096  0.81366473  1
  Zn  Zn88  1  0.80663502  0.30071137  0.31570275  1
  Zn  Zn89  1  0.79854862  0.31361558  0.81927760  1
  Zn  Zn90  1  0.83092549  0.80347683  0.31910698  1
  Zn  Zn91  1  0.75896761  0.84829615  0.84448610  1
  Zn  Zn92  1  0.19153284  0.43964600  0.43938320  1
  Zn  Zn93  1  0.18143718  0.43647011  0.93214554  1
  Zn  Zn94  1  0.16684497  0.93404742  0.45672125  1
  Zn  Zn95  1  0.17778812  0.93853238  0.93042208  1
  Zn  Zn96  1  0.69262120  0.43912920  0.43847751  1
  Zn  Zn97  1  0.69330475  0.46048605  0.96233080  1
  Zn  Zn98  1  0.68500992  0.92492703  0.45104899  1
  Zn  Zn99  1  0.65003430  0.98490987  0.92401906  1
  Zn  Zn100  1  0.30900007  0.06190322  0.05389230  1
  Zn  Zn101  1  0.31165771  0.06470819  0.56178489  1
  Zn  Zn102  1  0.30870437  0.55068745  0.05029652  1
  Zn  Zn103  1  0.30990233  0.56384468  0.55960578  1
  Zn  Zn104  1  0.81899588  0.05664266  0.07737256  1
  Zn  Zn105  1  0.81984717  0.05294790  0.55932114  1
  Zn  Zn106  1  0.80928007  0.56387622  0.05834685  1
  Zn  Zn107  1  0.81169514  0.55618223  0.56429311  1
  Zn  Zn108  1  0.46509493  0.38625680  0.15238921  1
  Zn  Zn109  1  0.51189668  0.38595296  0.65330795  1
  Zn  Zn110  1  0.42243332  0.91967697  0.19438753  1
  Zn  Zn111  1  0.43548272  0.94027689  0.69141676  1
  Zn  Zn112  1  0.94359492  0.43742293  0.18513827  1
  Zn  Zn113  1  0.93368602  0.43617415  0.68616625  1
  Zn  Zn114  1  0.94606620  0.94253090  0.18304272  1
  Zn  Zn115  1  0.92739996  0.94206781  0.69216911  1
  Zn  Zn116  1  0.04991466  0.05426247  0.30075849  1
  Zn  Zn117  1  0.05420209  0.06167051  0.80905597  1
  Zn  Zn118  1  0.07062678  0.56193338  0.30983959  1
  Zn  Zn119  1  0.06396487  0.55823195  0.81911347  1
  Zn  Zn120  1  0.54466721  0.04653118  0.29024231  1
  Zn  Zn121  1  0.55941592  0.07717464  0.80049446  1
  Zn  Zn122  1  0.56205722  0.56318343  0.31305883  1
  Zn  Zn123  1  0.53817724  0.63463350  0.83143160  1
  Zn  Zn124  1  0.44865842  0.18663151  0.43400556  1
  Zn  Zn125  1  0.43616567  0.16483289  0.93494608  1
  Zn  Zn126  1  0.43798191  0.68290239  0.44307979  1
  Zn  Zn127  1  0.42194004  0.68562137  0.95308250  1
  Zn  Zn128  1  0.93413051  0.17878761  0.43943338  1
  Zn  Zn129  1  0.92855850  0.18919238  0.92851968  1
  Zn  Zn130  1  0.95905606  0.67949159  0.40487816  1
  Zn  Zn131  1  0.93384201  0.68668501  0.94091331  1
  Zn  Zn132  1  0.05741190  0.31877545  0.05552765  1
  Zn  Zn133  1  0.05992896  0.30882858  0.56270632  1
  Zn  Zn134  1  0.05679387  0.80506252  0.06391062  1
  Zn  Zn135  1  0.05316667  0.82177067  0.55350892  1
  Zn  Zn136  1  0.50970659  0.29705308  0.00336525  1
  Zn  Zn137  1  0.62271578  0.24364445  0.60619264  1
  Zn  Zn138  1  0.57994532  0.85335434  0.05706298  1
  Zn  Zn139  1  0.55944098  0.80794774  0.56885984  1
  O  O140  1  0.11713185  0.13450891  0.10481554  1
  O  O141  1  0.10522048  0.12664423  0.61889359  1
  O  O142  1  0.14340260  0.60322679  0.13237121  1
  O  O143  1  0.12534776  0.61415488  0.60969067  1
  O  O144  1  0.58979496  0.13258582  0.16248182  1
  O  O145  1  0.62790952  0.11525633  0.60491184  1
  O  O146  1  0.62308649  0.63795537  0.12019066  1
  O  O147  1  0.62199850  0.62514780  0.61088247  1
  O  O148  1  0.37020997  0.39420799  0.38387133  1
  O  O149  1  0.37257498  0.40710824  0.87567672  1
  O  O150  1  0.38353385  0.87620389  0.37618535  1
  O  O151  1  0.36363199  0.88488744  0.88569264  1
  O  O152  1  0.87141794  0.38472397  0.38005167  1
  O  O153  1  0.86421244  0.39086100  0.88570920  1
  O  O154  1  0.84230305  0.91919387  0.37029466  1
  O  O155  1  0.85858355  0.89358992  0.87848054  1
  O  O156  1  0.25876534  -0.01312589  0.40103966  1
  O  O157  1  0.24667650  0.00889814  0.86581894  1
  O  O158  1  0.26215956  0.51371243  0.38215052  1
  O  O159  1  0.23185476  0.51250045  0.85948388  1
  O  O160  1  0.78461061  -0.03302854  0.37646562  1
  O  O161  1  0.75806369  0.01084326  0.88337688  1
  O  O162  1  0.76472398  0.50703219  0.37084888  1
  O  O163  1  0.76067540  0.52102052  0.88691787  1
  O  O164  1  0.23174075  0.48003425  0.09995175  1
  O  O165  1  0.24188878  0.50442967  0.63602757  1
  O  O166  1  0.24779927  0.99190561  0.13107813  1
  O  O167  1  0.25380294  1.00378319  0.63934415  1
  O  O168  1  0.75527178  0.50265581  0.14237231  1
  O  O169  1  0.74839065  0.48212353  0.61933756  1
  O  O170  1  0.74894216  0.98056722  0.12394783  1
  O  O171  1  0.73546562  0.99449910  0.62203462  1
  O  O172  1  0.00987618  0.36282322  0.24728434  1
  O  O173  1  -0.00071618  0.35911957  0.74254100  1
  O  O174  1  0.01568848  0.87374579  0.24506765  1
  O  O175  1  0.00787296  0.88222957  0.75287521  1
  O  O176  1  0.51523143  0.39864451  0.25402483  1
  O  O177  1  0.48522534  0.34684514  0.76087885  1
  O  O178  1  0.51515541  0.86219599  0.27159870  1
  O  O179  1  0.51330856  0.88536073  0.75407921  1
  O  O180  1  0.53353217  0.14776166  0.22334363  1
  O  O181  1  0.49260297  0.16440687  0.76953975  1
  O  O182  1  0.50344038  0.63888637  0.24781888  1
  O  O183  1  0.51617735  0.60715028  0.72477378  1
  O  O184  1  1.00371514  0.13881404  0.23729876  1
  O  O185  1  0.99903226  0.13389042  0.73816388  1
  O  O186  1  0.99033627  0.63879833  0.26624228  1
  O  O187  1  0.99360275  0.63375956  0.73280915  1
  O  O188  1  0.35476821  0.24630550  -0.01893470  1
  O  O189  1  0.37887835  0.26077977  0.49722288  1
  O  O190  1  0.34452716  0.76428759  -0.00944078  1
  O  O191  1  0.36672160  0.74953424  0.50885710  1
  O  O192  1  0.87903250  0.26591549  0.00776957  1
  O  O193  1  0.88524225  0.26618535  0.49394298  1
  O  O194  1  0.87177275  0.74462741  0.01711880  1
  O  O195  1  0.90922045  0.70683174  0.55940315  1
  O  O196  1  0.13959812  0.25785295  0.49669966  1
  O  O197  1  0.12324995  0.24102399  0.98140711  1
  O  O198  1  0.12365629  0.73692316  0.50605097  1
  O  O199  1  0.12972355  0.75763508  0.98455136  1
  O  O200  1  0.62471508  0.22021967  0.48460845  1
  O  O201  1  0.67722591  0.16714232  1.04260258  1
  O  O202  1  0.61746955  0.73143043  0.49237945  1
  O  O203  1  0.61698693  0.75054407  1.00176216  1
  O  O204  1  0.49345446  0.28452423  0.11011889  1
  O  O205  1  0.49638510  0.25894461  0.62020867  1
  O  O206  1  0.50846771  0.76930262  0.14298570  1
  O  O207  1  0.48687343  0.73066252  0.61887263  1
  O  O208  1  0.99340039  0.24395656  0.12665388  1
  O  O209  1  0.99994377  0.24339034  0.63612765  1
  O  O210  1  0.99636533  0.75339891  0.14443354  1
  O  O211  1  0.96210829  0.75298375  0.59842012  1
  O  O212  1  0.00033426  0.24357278  0.35963544  1
  O  O213  1  0.00789409  0.24113938  0.85741987  1
  O  O214  1  -0.05106444  0.77627403  0.34836202  1
  O  O215  1  0.00819687  0.74681050  0.87975995  1
  O  O216  1  0.52371291  0.23609130  0.36650465  1
  O  O217  1  0.51519984  0.24422175  0.90568628  1
  O  O218  1  0.50569696  0.75589883  0.37954224  1
  O  O219  1  0.48719125  0.72801631  0.87101246  1
  O  O220  1  0.25530234  0.13884191  0.49466576  1
  O  O221  1  0.23426086  0.13200535  0.99365739  1
  O  O222  1  0.23860613  0.63346695  0.49642185  1
  O  O223  1  0.23853335  0.63568110  0.99137722  1
  O  O224  1  0.74132441  0.09570225  0.48287687  1
  O  O225  1  0.73254929  0.12610186  1.01266418  1
  O  O226  1  0.73642728  0.61320750  0.49280804  1
  O  O227  1  0.73743133  0.63963737  1.00740066  1
  O  O228  1  0.24093119  0.36046616  -0.00137640  1
  O  O229  1  0.26282019  0.37032347  0.50138915  1
  O  O230  1  0.24141452  0.87491388  0.00875294  1
  O  O231  1  0.23908166  0.85523930  0.50428731  1
  O  O232  1  0.76774201  0.38950337  0.00889323  1
  O  O233  1  0.76405333  0.37557365  0.50048732  1
  O  O234  1  0.75033088  0.85703072  0.02154009  1
  O  O235  1  0.74700640  0.86887193  0.52297196  1
  O  O236  1  0.11429462  0.48597349  0.23311297  1
  O  O237  1  0.12625687  0.50731553  0.73531985  1
  O  O238  1  0.13718854  0.98446553  0.25958587  1
  O  O239  1  0.13146754  0.98627443  0.75452038  1
  O  O240  1  0.64300356  0.49616689  0.26317645  1
  O  O241  1  0.61994208  0.44910525  0.80466129  1
  O  O242  1  0.64093796  0.97691243  0.27246977  1
  O  O243  1  0.61114654  1.00518502  0.72702838  1
  O  O244  1  0.33962090  -0.01749117  0.26946578  1
  O  O245  1  0.35648745  -0.01029173  0.76315011  1
  O  O246  1  0.37913262  0.50511346  0.26519873  1
  O  O247  1  0.35707247  0.51265491  0.76147205  1
  O  O248  1  0.88946855  0.02397851  0.24057820  1
  O  O249  1  0.87908854  0.00918821  0.77119407  1
  O  O250  1  0.87335526  0.50022506  0.26052064  1
  O  O251  1  0.88115374  0.50132441  0.76625548  1
  O  O252  1  0.13554536  0.38678333  0.35358439  1
  O  O253  1  0.12470320  0.35824766  0.87067874  1
  O  O254  1  0.13176288  0.86834053  0.36474603  1
  O  O255  1  0.12553765  0.86130751  0.86398912  1
  O  O256  1  0.62090710  0.37001529  0.38324667  1
  O  O257  1  0.63127489  0.40435418  0.86196896  1
  O  O258  1  0.62533990  0.85996986  0.37589321  1
  O  O259  1  0.63713447  0.87917123  0.86032324  1
  O  O260  1  0.39967865  0.12452617  0.09363479  1
  O  O261  1  0.38800868  0.13638092  0.60936268  1
  O  O262  1  0.34655837  0.62637556  0.12334465  1
  O  O263  1  0.38540414  0.62319275  0.62442483  1
  O  O264  1  0.88200171  0.14228127  0.12749131  1
  O  O265  1  0.88492766  0.12727776  0.61668474  1
  O  O266  1  0.88293129  0.60443233  0.14042472  1
  O  O267  1  0.88376726  0.64601326  0.60530099  1
  O  O268  1  0.24372994  0.25744580  0.10193272  1
  O  O269  1  0.26150285  0.24791923  0.60477064  1
  O  O270  1  0.23402258  0.75819577  0.10678776  1
  O  O271  1  0.26454862  0.73858187  0.61546414  1
  O  O272  1  0.76608156  0.25493632  0.13117242  1
  O  O273  1  0.74011476  0.27008870  0.62438695  1
  O  O274  1  0.75079987  0.75236898  0.12174700  1
  O  O275  1  0.75067497  0.75350944  0.62908551  1
  O  O276  1  0.26053747  0.25403502  0.38377869  1
  O  O277  1  0.23577585  0.23379617  0.87762369  1
  O  O278  1  0.25738511  0.73826427  0.39317937  1
  O  O279  1  0.23906606  0.74000128  0.87852262  1
  O  O280  1  0.72637425  0.24215609  0.36887691  1
  O  O281  1  0.74477584  0.23228583  0.87852000  1
  O  O282  1  0.74710414  0.73414488  0.37366210  1
  O  O283  1  0.75891638  0.74253646  0.90014318  1
  O  O284  1  0.00692697  0.13042321  0.00017073  1
  O  O285  1  -0.00602556  0.10910620  0.50705006  1
  O  O286  1  -0.00501089  0.61089056  0.00466996  1
  O  O287  1  0.01414663  0.61550287  0.48367119  1
  O  O288  1  0.46645982  0.11323334  0.03792529  1
  O  O289  1  0.50902353  0.10207104  0.48963090  1
  O  O290  1  0.50608068  0.62547200  0.00915368  1
  O  O291  1  0.50907199  0.61461997  0.50869000  1
  O  O292  1  0.49043056  0.38836874  0.49481859  1
  O  O293  1  0.51924359  0.40976522  0.98506847  1
  O  O294  1  0.50847352  0.88047040  0.48753177  1
  O  O295  1  0.47405841  0.85784923  1.00115492  1
  O  O296  1  0.99141253  0.38770858  0.50302143  1
  O  O297  1  0.98316621  0.39037166  1.00085595  1
  O  O298  1  1.06096729  0.92494150  0.50504495  1
  O  O299  1  1.00669824  0.89129861  1.00603207  1
  O  O300  1  0.48450299  0.51519132  0.38817849  1
  O  O301  1  0.49050967  0.52628836  0.86833967  1
  O  O302  1  0.48876585  0.98150259  0.37913926  1
  O  O303  1  0.47626285  1.01334937  0.86729662  1
  O  O304  1  0.98924384  0.50075664  0.37778620  1
  O  O305  1  0.98614098  0.50869016  0.88584935  1
  O  O306  1  0.99150070  1.00507501  0.38292316  1
  O  O307  1  0.98606857  1.00903220  0.88922647  1
  O  O308  1  -0.00263129  0.02013070  0.10841459  1
  O  O309  1  -0.00381200  0.01150529  0.62830879  1
  O  O310  1  0.01084183  0.50015738  0.11486947  1
  O  O311  1  0.01007580  0.49960199  0.61690612  1
  O  O312  1  0.49502713  0.00282732  0.19009849  1
  O  O313  1  0.50107556  -0.00628601  0.60938131  1
  O  O314  1  0.48461865  0.49861108  0.11541444  1
  O  O315  1  0.49812537  0.50216566  0.60652942  1
  O  O316  1  0.23503318  0.36638680  0.22929273  1
  O  O317  1  0.25986063  0.39117059  0.74579228  1
  O  O318  1  0.23528610  0.86723147  0.23663597  1
  O  O319  1  0.24008496  0.88272568  0.74966419  1
  O  O320  1  0.75047199  0.38854627  0.25642704  1
  O  O321  1  0.75149769  0.38133530  0.74105230  1
  O  O322  1  0.74783606  0.85709923  0.24917988  1
  O  O323  1  0.72609362  0.87566176  0.73667333  1
  O  O324  1  0.23534185  0.10938096  0.24257032  1
  O  O325  1  0.23891011  0.11446530  0.75678498  1
  O  O326  1  0.24347627  0.63840129  0.27455915  1
  O  O327  1  0.24196208  0.62275573  0.75513653  1
  O  O328  1  0.76267778  0.12553315  0.23524246  1
  O  O329  1  0.75174702  0.13112452  0.75351255  1
  O  O330  1  0.76220607  0.61318445  0.25841197  1
  O  O331  1  0.74213633  0.63846654  0.77277681  1
  O  O332  1  0.37908518  0.09945818  0.37517605  1
  O  O333  1  0.35161655  0.10877770  0.88073103  1
  O  O334  1  0.36300202  0.61576180  0.38621540  1
  O  O335  1  0.34651646  0.61620209  0.88105858  1
  O  O336  1  0.87131959  0.13706409  0.35442076  1
  O  O337  1  0.85153051  0.11727933  0.88980230  1
  O  O338  1  0.86922145  0.61216889  0.36903084  1
  O  O339  1  0.86445833  0.61810009  0.87983539  1
  O  O340  1  0.12837566  0.38013273  0.12827214  1
  O  O341  1  0.13019993  0.39161572  0.61809227  1
  O  O342  1  0.13122093  0.87570600  0.12992462  1
  O  O343  1  0.11775705  0.85470866  0.64308118  1
  O  O344  1  0.62613933  0.38552361  0.14045359  1
  O  O345  1  0.62514237  0.37163569  0.62748354  1
  O  O346  1  0.63821823  0.86889561  0.15338077  1
  O  O347  1  0.62487074  0.87962539  0.63238813  1
  O  O348  1  0.11518906  0.26000446  0.24538069  1
  O  O349  1  0.12418607  0.24562008  0.75635109  1
  O  O350  1  0.10530200  0.75573091  0.26100423  1
  O  O351  1  0.12241704  0.75736474  0.76002357  1
  O  O352  1  0.62976143  0.27767539  0.25946521  1
  O  O353  1  0.62323810  0.25698637  0.76511470  1
  O  O354  1  0.61743900  0.74936215  0.26905508  1
  O  O355  1  0.61056564  0.75953400  0.74895068  1
  O  O356  1  0.35872760  0.23762216  0.24670364  1
  O  O357  1  0.36101845  0.24853014  0.72125497  1
  O  O358  1  0.39212460  0.76202395  0.25047577  1
  O  O359  1  0.36682065  0.74597659  0.73899320  1
  O  O360  1  0.88718494  0.24863167  0.23953392  1
  O  O361  1  0.88088990  0.25499428  0.75290671  1
  O  O362  1  0.86888253  0.72786252  0.23396550  1
  O  O363  1  0.94096512  0.68186265  0.75215923  1
  O  O364  1  0.38097680  0.49093662  0.49722667  1
  O  O365  1  0.39358049  0.51351148  0.98491883  1
  O  O366  1  0.38542223  0.99556964  0.49469362  1
  O  O367  1  0.36404836  0.98455873  0.98710843  1
  O  O368  1  0.88319234  0.49512770  0.48826243  1
  O  O369  1  0.88247966  0.49623900  0.99604247  1
  O  O370  1  0.89307194  0.97616360  0.50743489  1
  O  O371  1  0.88669258  1.00286874  1.00008065  1
  O  O372  1  0.11195418  0.01746164  -0.01065453  1
  O  O373  1  0.13092353  0.06808922  0.44995018  1
  O  O374  1  0.10950130  0.49471992  0.00379966  1
  O  O375  1  0.11963544  0.50472545  0.50795773  1
  O  O376  1  0.59615702  -0.03531182  0.02046208  1
  O  O377  1  0.61479414  -0.00067176  0.50623656  1
  O  O378  1  0.61337114  0.52758433  0.00601697  1
  O  O379  1  0.61201281  0.50992976  0.48835432  1
  O  O380  1  0.35076792  0.38248761  0.12381782  1
  O  O381  1  0.37816189  0.36817493  0.60670693  1
  O  O382  1  0.35396844  0.87696139  0.11111312  1
  O  O383  1  0.38483663  0.85732332  0.62866869  1
  O  O384  1  0.87978553  0.36670189  0.12033024  1
  O  O385  1  0.86867305  0.37659664  0.61264550  1
  O  O386  1  0.86503354  0.87390406  0.14134338  1
  O  O387  1  0.85652570  0.87362784  0.64168658  1
  O  O388  1  0.13067778  0.10702051  0.38564744  1
  O  O389  1  0.13001629  0.12787656  0.87853982  1
  O  O390  1  0.13855072  0.61394496  0.38957865  1
  O  O391  1  0.12979169  0.63929374  0.86923896  1
  O  O392  1  0.62124163  0.09898639  0.37532650  1
  O  O393  1  0.64103759  0.09817883  0.87795376  1
  O  O394  1  0.63476762  0.62817018  0.38195628  1
  O  O395  1  0.63855495  0.63182353  0.89324833  1
