# generated using pymatgen
data_V35Zn35O128
_symmetry_space_group_name_H-M   'P 1'
_cell_length_a   16.87811784
_cell_length_b   16.83909036
_cell_length_c   16.83589615
_cell_angle_alpha   90.03721573
_cell_angle_beta   89.96372394
_cell_angle_gamma   89.92270075
_symmetry_Int_Tables_number   1
_chemical_formula_structural   V35Zn35O128
_chemical_formula_sum   'V70 Zn70 O256'
_cell_volume   4784.95994199
_cell_formula_units_Z   2
loop_
 _symmetry_equiv_pos_site_id
 _symmetry_equiv_pos_as_xyz
  1  'x, y, z'
loop_
 _atom_site_type_symbol
 _atom_site_label
 _atom_site_symmetry_multiplicity
 _atom_site_fract_x
 _atom_site_fract_y
 _atom_site_fract_z
 _atom_site_occupancy
  V  V0  1  0.12969035  0.87387864  0.24675265  1
  V  V1  1  0.61731315  0.24783879  0.88124786  1
  V  V2  1  0.14306811  0.62241100  -0.00331065  1
  V  V3  1  0.87632814  0.62488135  0.24756488  1
  V  V4  1  0.01020493  0.63258918  0.62356277  1
  V  V5  1  0.24664854  0.00305149  0.76587570  1
  V  V6  1  0.26834014  0.49696726  0.24836746  1
  V  V7  1  0.87567676  0.36765074  0.01130819  1
  V  V8  1  0.74426423  0.37152363  0.63935002  1
  V  V9  1  0.25425838  0.87403599  0.62057168  1
  V  V10  1  0.49440225  -0.01229727  -0.00289095  1
  V  V11  1  0.50478037  0.12723137  0.11852345  1
  V  V12  1  0.00112836  0.37360574  0.88622973  1
  V  V13  1  0.63132779  -0.01826557  0.12197076  1
  V  V14  1  -0.00572845  0.24934021  0.25365417  1
  V  V15  1  0.01192126  0.86973757  0.88392664  1
  V  V16  1  0.36728593  0.26388363  0.11152603  1
  V  V17  1  0.85129122  0.87238601  0.00150474  1
  V  V18  1  -0.02220435  0.91479210  0.33827284  1
  V  V19  1  0.00536676  0.00207994  0.49658558  1
  V  V20  1  0.23645284  0.13213192  0.37388952  1
  V  V21  1  0.86053220  0.75384590  0.63040442  1
  V  V22  1  0.49486807  0.87151492  0.85504645  1
  V  V23  1  0.38356680  0.88631722  0.48837531  1
  V  V24  1  0.37945514  0.14017268  0.24898862  1
  V  V25  1  0.23304851  0.25189638  0.50233447  1
  V  V26  1  0.50519851  0.74838200  0.27916430  1
  V  V27  1  0.86838184  0.87633695  0.50435871  1
  V  V28  1  0.25307580  0.74622862  0.49189911  1
  V  V29  1  0.01800908  0.75687423  0.75046010  1
  V  V30  1  0.74283137  0.63573715  0.39652727  1
  V  V31  1  0.00417582  0.73919291  0.23692168  1
  V  V32  1  0.61283574  0.36921222  0.26605519  1
  V  V33  1  0.37172186  0.61426560  0.73451967  1
  V  V34  1  0.63301359  0.87340035  0.27269443  1
  V  V35  1  0.62222007  0.50036757  0.11500254  1
  V  V36  1  0.37083603  0.74705589  0.13583388  1
  V  V37  1  0.12980657  0.39421362  0.74805957  1
  V  V38  1  0.25140428  0.75490778  -0.02004185  1
  V  V39  1  0.25716220  -0.00811662  0.24618808  1
  V  V40  1  0.84684478  0.74913914  0.12426437  1
  V  V41  1  0.85948140  -0.01952207  0.86163711  1
  V  V42  1  0.36346816  0.50287269  0.88618313  1
  V  V43  1  0.12567388  -0.00724268  0.62840933  1
  V  V44  1  0.12695334  0.00864909  0.11221887  1
  V  V45  1  0.61335822  0.50854278  0.62698102  1
  V  V46  1  0.74634152  0.49542635  0.24724275  1
  V  V47  1  0.00802395  0.12974029  0.62219095  1
  V  V48  1  0.50600427  0.62979567  0.10637305  1
  V  V49  1  -0.01888662  0.12518396  0.11796367  1
  V  V50  1  0.62408716  0.74339103  0.87488186  1
  V  V51  1  0.50648706  0.52306739  0.49877930  1
  V  V52  1  0.74494560  0.12388371  0.87864206  1
  V  V53  1  0.40383927  0.35689011  0.49591023  1
  V  V54  1  0.87344559  0.12420719  0.75032858  1
  V  V55  1  -0.00226549  0.51717556  0.00850832  1
  V  V56  1  0.38077886  0.24496124  0.63504154  1
  V  V57  1  0.38273480  0.51825585  0.37636910  1
  V  V58  1  0.60749338  0.03330858  0.60553919  1
  V  V59  1  0.01089623  0.25110098  0.75794612  1
  V  V60  1  0.75507316  0.25356175  0.00863060  1
  V  V61  1  0.87619969  0.50240514  0.37921502  1
  V  V62  1  0.00311804  0.50715372  0.51057140  1
  V  V63  1  0.37245173  0.12601278  0.76199809  1
  V  V64  1  0.86647863  0.37978447  0.49720040  1
  V  V65  1  0.11913493  0.72443380  0.37791307  1
  V  V66  1  0.49361679  0.38169296  0.89658445  1
  V  V67  1  0.87027291  0.25178921  0.62494713  1
  V  V68  1  0.13088475  0.49049339  0.12804846  1
  V  V69  1  0.60296807  0.36249207  0.74763295  1
  Zn  Zn70  1  0.80697285  0.54231052  0.79491898  1
  Zn  Zn71  1  0.36310682  0.87447077  -0.00397096  1
  Zn  Zn72  1  0.49367395  0.72558508  0.71571161  1
  Zn  Zn73  1  0.71958039  -0.02737628  0.71803878  1
  Zn  Zn74  1  0.12993870  0.35519325  0.28352117  1
  Zn  Zn75  1  0.37911049  0.00080425  0.37387826  1
  Zn  Zn76  1  0.18880938  0.19094227  0.18292569  1
  Zn  Zn77  1  0.19159066  0.18848271  0.68802625  1
  Zn  Zn78  1  0.18703563  0.67009536  0.19380130  1
  Zn  Zn79  1  0.19433910  0.68757462  0.68465463  1
  Zn  Zn80  1  0.67996088  0.18987563  0.18424359  1
  Zn  Zn81  1  0.68299080  0.15651478  0.68685433  1
  Zn  Zn82  1  0.67762694  0.68247321  0.20195146  1
  Zn  Zn83  1  0.69526584  0.68869422  0.72764574  1
  Zn  Zn84  1  0.31426642  0.32115332  0.31876011  1
  Zn  Zn85  1  0.30665854  0.31922418  0.82062621  1
  Zn  Zn86  1  0.31615094  0.80321378  0.31695340  1
  Zn  Zn87  1  0.32044276  0.81024769  0.79998927  1
  Zn  Zn88  1  0.82216873  0.31623451  0.30320321  1
  Zn  Zn89  1  0.81695111  0.31196698  0.81975200  1
  Zn  Zn90  1  0.81138669  0.81168176  0.31647566  1
  Zn  Zn91  1  0.81324842  0.80859107  0.81019942  1
  Zn  Zn92  1  0.20239214  0.43980323  0.45593943  1
  Zn  Zn93  1  0.19528705  0.56120554  0.82190937  1
  Zn  Zn94  1  0.18111722  0.94027858  0.43004490  1
  Zn  Zn95  1  0.17922206  1.08807021  0.94016863  1
  Zn  Zn96  1  0.69025116  0.44102046  0.44311956  1
  Zn  Zn97  1  0.69154601  0.43525032  0.93147097  1
  Zn  Zn98  1  0.64931120  0.89080716  0.48633583  1
  Zn  Zn99  1  0.67094378  0.93152972  0.93422310  1
  Zn  Zn100  1  0.31614461  0.06037777  0.06595137  1
  Zn  Zn101  1  0.31047384  0.06789502  0.56117714  1
  Zn  Zn102  1  0.32011349  0.56178261  0.06705469  1
  Zn  Zn103  1  0.30585970  0.55254759  0.55515507  1
  Zn  Zn104  1  0.81017378  0.05831890  0.05438491  1
  Zn  Zn105  1  0.82076822  0.05180266  0.56519116  1
  Zn  Zn106  1  0.81565833  0.55686335  0.06260429  1
  Zn  Zn107  1  0.78699225  0.58701924  0.60112708  1
  Zn  Zn108  1  0.44795538  0.43869203  0.18743185  1
  Zn  Zn109  1  0.42263916  0.43727835  0.68159984  1
  Zn  Zn110  1  0.44591462  0.92488769  0.18618838  1
  Zn  Zn111  1  0.43235190  0.95324811  0.67640383  1
  Zn  Zn112  1  0.94482923  0.43270846  0.19084549  1
  Zn  Zn113  1  0.93538787  0.43826466  0.68687948  1
  Zn  Zn114  1  0.94456683  0.93263296  0.16488294  1
  Zn  Zn115  1  0.94120757  0.93181554  0.68704672  1
  Zn  Zn116  1  0.06521626  0.07160629  0.29728076  1
  Zn  Zn117  1  0.05215088  0.04643456  0.81282762  1
  Zn  Zn118  1  0.08835401  0.51887423  0.34126278  1
  Zn  Zn119  1  0.01055381  0.54974141  0.80204592  1
  Zn  Zn120  1  0.56572868  0.05808210  0.30011063  1
  Zn  Zn121  1  0.55477925  0.06057686  0.81124978  1
  Zn  Zn122  1  0.56387458  0.56982541  0.31571933  1
  Zn  Zn123  1  0.55708568  0.55710049  0.80884162  1
  Zn  Zn124  1  0.43124782  0.17341034  0.44193297  1
  Zn  Zn125  1  0.42708008  0.18146154  0.94305562  1
  Zn  Zn126  1  0.51934445  0.74295557  0.49606853  1
  Zn  Zn127  1  0.43373887  0.68653440  0.92929319  1
  Zn  Zn128  1  0.94711372  0.19738009  0.44251924  1
  Zn  Zn129  1  0.94277760  0.17550570  0.93449847  1
  Zn  Zn130  1  0.93290559  0.68999779  0.43779190  1
  Zn  Zn131  1  0.93936254  0.70196915  0.94364753  1
  Zn  Zn132  1  0.07033442  0.30341588  0.07255353  1
  Zn  Zn133  1  0.05942511  0.32483381  0.56597048  1
  Zn  Zn134  1  0.07465677  0.81471052  0.05821670  1
  Zn  Zn135  1  0.06116412  0.81381045  0.55502956  1
  Zn  Zn136  1  0.56804016  0.31619623  0.07248919  1
  Zn  Zn137  1  0.57251705  0.25723118  0.57352554  1
  Zn  Zn138  1  0.56732887  0.80515355  0.05608951  1
  Zn  Zn139  1  0.60706311  0.82036013  0.63938941  1
  O  O140  1  0.13059916  0.11159225  0.12185021  1
  O  O141  1  0.11275090  0.11791133  0.62847399  1
  O  O142  1  0.13374302  0.60854018  0.11231257  1
  O  O143  1  0.10993430  0.63325306  0.62170049  1
  O  O144  1  0.60731244  0.11325580  0.13500438  1
  O  O145  1  0.61066070  0.14832267  0.59705372  1
  O  O146  1  0.61837441  0.61581857  0.12692421  1
  O  O147  1  0.61986964  0.60456384  0.63254195  1
  O  O148  1  0.39567842  0.35671933  0.39232259  1
  O  O149  1  0.38901732  0.38001667  0.87449577  1
  O  O150  1  0.36806302  0.88325354  0.38204262  1
  O  O151  1  0.38942470  0.86787571  0.87843081  1
  O  O152  1  0.86869755  0.38274020  0.38988358  1
  O  O153  1  0.88872171  0.37228946  0.88683600  1
  O  O154  1  0.89560498  0.86674147  0.38232670  1
  O  O155  1  0.87802521  0.86179754  0.89432112  1
  O  O156  1  0.24835278  0.01282521  0.36207006  1
  O  O157  1  0.23864813  -0.00445625  0.86262920  1
  O  O158  1  0.28110173  0.48991764  0.37685732  1
  O  O159  1  0.26372626  0.49005826  0.88154293  1
  O  O160  1  0.78495278  0.01759424  0.34619096  1
  O  O161  1  0.74035953  0.02049797  0.88891269  1
  O  O162  1  0.76028460  0.50815969  0.36779567  1
  O  O163  1  0.73493273  0.52143830  0.87716934  1
  O  O164  1  0.25111806  0.49907493  0.13915403  1
  O  O165  1  0.23413831  0.46979201  0.56036870  1
  O  O166  1  0.24545963  1.00068399  0.14085014  1
  O  O167  1  0.23397288  0.99638969  0.62012260  1
  O  O168  1  0.74003920  0.51121389  0.13850383  1
  O  O169  1  0.72427435  0.47452818  0.61774125  1
  O  O170  1  0.72846907  1.00704082  0.11559833  1
  O  O171  1  0.73472668  1.05519444  0.62894315  1
  O  O172  1  0.00823882  0.35943194  0.24802272  1
  O  O173  1  -0.00242400  0.36132177  0.75656568  1
  O  O174  1  0.00736298  0.85723244  0.24759189  1
  O  O175  1  0.00046572  0.86405290  0.75790470  1
  O  O176  1  0.51326555  0.38325477  0.26433375  1
  O  O177  1  0.50354915  0.36304067  0.75342357  1
  O  O178  1  0.51105629  0.85816902  0.25391755  1
  O  O179  1  0.48558677  0.88523140  0.75497808  1
  O  O180  1  0.48494705  0.11557951  0.23889812  1
  O  O181  1  0.47246066  0.12179749  0.75817988  1
  O  O182  1  0.51162459  0.64599518  0.24758227  1
  O  O183  1  0.48189253  0.61345376  0.74271456  1
  O  O184  1  1.00178210  0.13470748  0.23190577  1
  O  O185  1  0.99321603  0.13622873  0.74282181  1
  O  O186  1  0.98030554  0.62716768  0.25160575  1
  O  O187  1  0.99866052  0.64503843  0.73653754  1
  O  O188  1  0.37597473  0.25595793  0.01099754  1
  O  O189  1  0.38129683  0.24450871  0.51312326  1
  O  O190  1  0.36033378  0.74038870  0.00826203  1
  O  O191  1  0.35282537  0.77270573  0.49158158  1
  O  O192  1  0.86633259  0.25718235  -0.00516251  1
  O  O193  1  0.89035946  0.27013444  0.51429470  1
  O  O194  1  0.86730438  0.75445445  0.01753377  1
  O  O195  1  0.88704143  0.76982395  0.51031293  1
  O  O196  1  0.13310785  0.26459005  0.50134526  1
  O  O197  1  0.14675514  0.24526857  0.99404042  1
  O  O198  1  0.12684244  0.75429593  0.48106664  1
  O  O199  1  0.14191624  0.73372947  1.00950449  1
  O  O200  1  0.59878613  0.22967824  0.44634732  1
  O  O201  1  0.64123912  0.26599645  0.99008149  1
  O  O202  1  0.62204748  0.78786929  0.52736565  1
  O  O203  1  0.63105223  0.75303521  0.97597129  1
  O  O204  1  0.49778753  0.23199589  0.11656424  1
  O  O205  1  0.47958627  0.24426880  0.64247532  1
  O  O206  1  0.49961156  0.73796086  0.12326793  1
  O  O207  1  0.50317424  0.77103315  0.60975719  1
  O  O208  1  0.99913663  0.23331168  0.12535198  1
  O  O209  1  0.99409045  0.24691460  0.63515105  1
  O  O210  1  1.00961805  0.74700428  0.13618138  1
  O  O211  1  1.00126075  0.75045010  0.63208374  1
  O  O212  1  0.00245647  0.23533981  0.35595825  1
  O  O213  1  -0.00792914  0.25260427  0.86263150  1
  O  O214  1  0.01244524  0.74154774  0.36258758  1
  O  O215  1  -0.00301133  0.75572401  0.86118448  1
  O  O216  1  0.54210243  0.23474407  0.39715146  1
  O  O217  1  0.51367649  0.25519867  0.88980171  1
  O  O218  1  0.49996176  0.74425334  0.37841953  1
  O  O219  1  0.50382701  0.76200569  0.86864725  1
  O  O220  1  0.25257183  0.13532143  0.48241145  1
  O  O221  1  0.26650605  0.12562408  0.99282298  1
  O  O222  1  0.25664176  0.64814855  0.50734691  1
  O  O223  1  0.24653656  0.62646205  0.99791222  1
  O  O224  1  0.74373507  0.03131682  0.40445356  1
  O  O225  1  0.76126446  0.14176695  0.98646087  1
  O  O226  1  0.75560388  0.61528926  0.49531936  1
  O  O227  1  0.78530301  0.61053839  0.94801788  1
  O  O228  1  0.20142877  0.29020783  -0.04141210  1
  O  O229  1  0.27269822  0.34671874  0.48540183  1
  O  O230  1  0.24762007  0.85128385  0.00743957  1
  O  O231  1  0.24281547  0.87612450  0.50637875  1
  O  O232  1  0.76618748  0.36755385  -0.00503780  1
  O  O233  1  0.76141219  0.37169485  0.51134535  1
  O  O234  1  0.75272440  0.86936557  -0.00639990  1
  O  O235  1  0.77162739  0.88497991  0.48611072  1
  O  O236  1  0.12014950  0.49691174  0.23068919  1
  O  O237  1  0.11246103  0.49764345  0.76555152  1
  O  O238  1  0.13794141  0.99460242  0.24263902  1
  O  O239  1  0.13049744  0.99957560  0.73617544  1
  O  O240  1  0.63878150  0.49740858  0.25238144  1
  O  O241  1  0.61205041  0.47492316  0.73438963  1
  O  O242  1  0.61524836  0.97980605  0.23513905  1
  O  O243  1  0.62890155  1.05043746  0.72994433  1
  O  O244  1  0.36522985  -0.00349407  0.24728195  1
  O  O245  1  0.35608377  0.01333187  0.74605651  1
  O  O246  1  0.37612168  0.49816318  0.26137245  1
  O  O247  1  0.37513681  0.50234873  0.76170305  1
  O  O248  1  0.92888388  -0.02432392  0.27496266  1
  O  O249  1  0.88530247  0.02009482  0.74246996  1
  O  O250  1  0.86911219  0.50441884  0.25482170  1
  O  O251  1  0.90805254  0.50531481  0.77189045  1
  O  O252  1  0.12546406  0.41654057  0.37811558  1
  O  O253  1  0.10020859  0.36808647  0.86106629  1
  O  O254  1  0.10106864  0.88798868  0.35524589  1
  O  O255  1  0.10682521  0.88162806  0.87955300  1
  O  O256  1  0.63915321  0.37783194  0.36471598  1
  O  O257  1  0.61386480  0.36926993  0.86512128  1
  O  O258  1  0.62507993  0.88958129  0.37033974  1
  O  O259  1  0.60625042  0.86788441  0.86558115  1
  O  O260  1  0.38232641  0.13287569  0.13568634  1
  O  O261  1  0.36415803  0.13653022  0.63526473  1
  O  O262  1  0.39522952  0.63208443  0.12501406  1
  O  O263  1  0.36885474  0.60112108  0.63343704  1
  O  O264  1  0.88150259  0.10796497  0.12720995  1
  O  O265  1  0.88518810  0.13582004  0.62987025  1
  O  O266  1  0.86302507  0.63966320  0.13103573  1
  O  O267  1  0.88562313  0.65168821  0.61635626  1
  O  O268  1  0.26839853  0.25133985  0.12881942  1
  O  O269  1  0.25198201  0.24297470  0.60587954  1
  O  O270  1  0.27036607  0.73459807  0.14164410  1
  O  O271  1  0.23662321  0.76919115  0.61061620  1
  O  O272  1  0.74542188  0.24191803  0.10751689  1
  O  O273  1  0.76362055  0.25558444  0.63002359  1
  O  O274  1  0.74930121  0.75091722  0.13249382  1
  O  O275  1  0.76127077  0.75318363  0.63388957  1
  O  O276  1  0.25228053  0.23774777  0.37612372  1
  O  O277  1  0.23708560  0.25348973  0.89889243  1
  O  O278  1  0.23188173  0.75385174  0.38065440  1
  O  O279  1  0.25498862  0.75509011  0.88015274  1
  O  O280  1  0.77918959  0.22915820  0.38386192  1
  O  O281  1  0.74231758  0.24611277  0.88478698  1
  O  O282  1  0.76047852  0.73553897  0.38338884  1
  O  O283  1  0.72423109  0.74733194  0.83645249  1
  O  O284  1  -0.00497609  0.12067812  0.01587017  1
  O  O285  1  -0.01045468  0.11555519  0.51135136  1
  O  O286  1  -0.00398071  0.61863456  0.00148778  1
  O  O287  1  -0.00821601  0.62085733  0.51150301  1
  O  O288  1  0.49123029  0.10884565  0.01186823  1
  O  O289  1  0.51034774  0.08687868  0.45178829  1
  O  O290  1  0.50524994  0.62907230  0.00698943  1
  O  O291  1  0.50125101  0.62052328  0.50517954  1
  O  O292  1  0.50258034  0.34773772  0.51130968  1
  O  O293  1  0.50362612  0.37572755  0.99514381  1
  O  O294  1  0.48041449  0.87573404  0.49458401  1
  O  O295  1  0.49811100  0.88061133  0.99408129  1
  O  O296  1  0.97998326  0.39673676  0.52053857  1
  O  O297  1  0.99479598  0.35955947  0.99390769  1
  O  O298  1  0.99646271  0.89430238  0.49662834  1
  O  O299  1  0.99417953  0.85967465  0.98942499  1
  O  O300  1  0.49907353  0.50618625  0.38880616  1
  O  O301  1  0.50181232  0.48258634  0.87760619  1
  O  O302  1  0.50320012  1.02957877  0.39542280  1
  O  O303  1  0.50495928  0.99062509  0.88798807  1
  O  O304  1  0.98180839  0.51149465  0.39342502  1
  O  O305  1  1.00383828  0.48438784  0.90234731  1
  O  O306  1  1.01119981  1.01047440  0.38964012  1
  O  O307  1  0.97234986  0.97471269  0.86142811  1
  O  O308  1  0.01731004  0.01061513  0.12734972  1
  O  O309  1  0.00949731  0.00705789  0.62049990  1
  O  O310  1  0.01132432  0.49369955  0.11431630  1
  O  O311  1  -0.01194358  0.52207470  0.62094962  1
  O  O312  1  0.50622993  0.00112228  0.11708880  1
  O  O313  1  0.50862588  0.01341521  0.61887911  1
  O  O314  1  0.51277774  0.51645435  0.13084145  1
  O  O315  1  0.50589399  0.48927356  0.61044965  1
  O  O316  1  0.24411611  0.39144200  0.26097915  1
  O  O317  1  0.22781858  0.37668818  0.76031431  1
  O  O318  1  0.24405354  0.88520189  0.25976536  1
  O  O319  1  0.25760738  0.88776347  0.73002125  1
  O  O320  1  0.75363279  0.39271133  0.25114423  1
  O  O321  1  0.74712608  0.37349555  0.74263167  1
  O  O322  1  0.73450022  0.87007349  0.25750043  1
  O  O323  1  0.79194944  0.92337717  0.79241912  1
  O  O324  1  0.26281594  0.11752294  0.25462944  1
  O  O325  1  0.24581280  0.10977053  0.75090631  1
  O  O326  1  0.23953819  0.59326663  0.26495595  1
  O  O327  1  0.25817302  0.62027338  0.74798037  1
  O  O328  1  0.71763451  0.12292868  0.27802664  1
  O  O329  1  0.76304786  0.14025767  0.77108270  1
  O  O330  1  0.75932065  0.61666729  0.25989780  1
  O  O331  1  0.75992264  0.60078087  0.71166608  1
  O  O332  1  0.37008712  0.12149264  0.35857968  1
  O  O333  1  0.36099809  0.13831617  0.86242632  1
  O  O334  1  0.37768831  0.61351052  0.38317222  1
  O  O335  1  0.37758634  0.60765799  0.86651964  1
  O  O336  1  0.82676778  0.17128294  0.39644694  1
  O  O337  1  0.86691189  0.10755036  0.86895724  1
  O  O338  1  0.86604684  0.61997402  0.36885019  1
  O  O339  1  0.84377200  0.63243647  0.90163197  1
  O  O340  1  0.13482158  0.39093722  0.10820597  1
  O  O341  1  0.11147019  0.38297702  0.64894006  1
  O  O342  1  0.12043255  0.88462485  0.13981054  1
  O  O343  1  0.12808989  0.88844039  0.62116722  1
  O  O344  1  0.61758237  0.39522518  0.14290711  1
  O  O345  1  0.63224889  0.34672759  0.63784090  1
  O  O346  1  0.62709993  0.87915222  0.12330757  1
  O  O347  1  0.64702584  0.92534103  0.64165129  1
  O  O348  1  0.11387896  0.25375464  0.23750235  1
  O  O349  1  0.11228228  0.25241435  0.74749404  1
  O  O350  1  0.12405185  0.75007135  0.25983810  1
  O  O351  1  0.11725816  0.75352293  0.74678487  1
  O  O352  1  0.63021827  0.27111374  0.24404498  1
  O  O353  1  0.62918507  0.25733746  0.76943157  1
  O  O354  1  0.61707293  0.76139008  0.26016747  1
  O  O355  1  0.60458050  0.75504534  0.73656992  1
  O  O356  1  0.37746997  0.24112137  0.24821013  1
  O  O357  1  0.34972136  0.24171526  0.74149299  1
  O  O358  1  0.39227168  0.75256472  0.24500383  1
  O  O359  1  0.37740528  0.72651524  0.74299055  1
  O  O360  1  0.89064782  0.25346087  0.24230365  1
  O  O361  1  0.88350464  0.24393541  0.74364069  1
  O  O362  1  0.88104552  0.74712805  0.23666131  1
  O  O363  1  0.88539337  0.76230219  0.73328798  1
  O  O364  1  0.39751829  0.48264696  0.49226439  1
  O  O365  1  0.37808772  0.50374241  0.98751844  1
  O  O366  1  0.36688087  0.99343059  0.49449145  1
  O  O367  1  0.38940312  0.98897181  1.01228901  1
  O  O368  1  0.87049382  0.49086815  0.49615552  1
  O  O369  1  0.89093615  0.48638318  1.00947094  1
  O  O370  1  0.89058762  0.99202551  0.50282980  1
  O  O371  1  0.86288200  0.97969295  0.98306116  1
  O  O372  1  0.14016195  -0.00536178  0.01535631  1
  O  O373  1  0.11285424  0.00247289  0.51110135  1
  O  O374  1  0.11262386  0.51207577  0.01032906  1
  O  O375  1  0.09966942  0.50411462  0.50294272  1
  O  O376  1  0.60862845  -0.00587049  0.01193617  1
  O  O377  1  0.62905452  0.00216041  0.50999198  1
  O  O378  1  0.63328649  0.49107846  0.01726073  1
  O  O379  1  0.61184838  0.49438294  0.51047692  1
  O  O380  1  0.38849240  0.36127212  0.13161499  1
  O  O381  1  0.37398662  0.35797285  0.61158827  1
  O  O382  1  0.38416517  0.85025765  0.11873082  1
  O  O383  1  0.35814514  0.88617709  0.60911238  1
  O  O384  1  0.88138976  0.37148847  0.11104562  1
  O  O385  1  0.85964763  0.37362249  0.62536272  1
  O  O386  1  0.87106302  0.86451837  0.11324806  1
  O  O387  1  0.87400920  0.87397980  0.61341766  1
  O  O388  1  0.13806064  0.12693576  0.36687459  1
  O  O389  1  0.09328392  0.12045640  0.88255956  1
  O  O390  1  0.12245820  0.62591580  0.37608535  1
  O  O391  1  0.12108946  0.61632326  0.89592454  1
  O  O392  1  0.66371832  0.12281861  0.33349693  1
  O  O393  1  0.63306628  0.13968772  0.87675073  1
  O  O394  1  0.64396670  0.62259418  0.37879401  1
  O  O395  1  0.60827527  0.64341880  0.86064522  1
