# generated using pymatgen
data_V35Zn35O128
_symmetry_space_group_name_H-M   'P 1'
_cell_length_a   16.86645259
_cell_length_b   16.84747698
_cell_length_c   16.86128484
_cell_angle_alpha   90.14253540
_cell_angle_beta   90.06936158
_cell_angle_gamma   90.10055318
_symmetry_Int_Tables_number   1
_chemical_formula_structural   V35Zn35O128
_chemical_formula_sum   'V70 Zn70 O256'
_cell_volume   4791.22927410
_cell_formula_units_Z   2
loop_
 _symmetry_equiv_pos_site_id
 _symmetry_equiv_pos_as_xyz
  1  'x, y, z'
loop_
 _atom_site_type_symbol
 _atom_site_label
 _atom_site_symmetry_multiplicity
 _atom_site_fract_x
 _atom_site_fract_y
 _atom_site_fract_z
 _atom_site_occupancy
  V  V0  1  0.63913039  -0.01452137  0.12070677  1
  V  V1  1  0.11629959  0.63701409  -0.01826683  1
  V  V2  1  0.24248613  0.37157598  0.11007095  1
  V  V3  1  0.37488492  0.75405994  0.12419886  1
  V  V4  1  0.49678397  0.01378915  0.00359591  1
  V  V5  1  0.00803794  0.25322381  0.26648633  1
  V  V6  1  0.61433298  0.62260102  0.00154856  1
  V  V7  1  0.88197100  0.00032850  0.38376274  1
  V  V8  1  0.88475903  0.62551945  0.25231478  1
  V  V9  1  0.11962655  0.86499771  0.25033844  1
  V  V10  1  0.37470395  0.61283705  0.25401868  1
  V  V11  1  0.74739629  0.75266018  0.01152055  1
  V  V12  1  0.74493123  0.49100156  0.74141348  1
  V  V13  1  0.75100940  0.01037739  0.76490314  1
  V  V14  1  0.75930107  0.23450866  -0.01038716  1
  V  V15  1  0.00693671  0.27594046  0.75420048  1
  V  V16  1  0.75141451  0.87895236  0.61077664  1
  V  V17  1  0.49053112  0.24325650  0.24653739  1
  V  V18  1  0.36723848  -0.00910353  0.37872542  1
  V  V19  1  0.11080895  0.13348565  0.51082033  1
  V  V20  1  0.87364875  0.38584245  0.51824812  1
  V  V21  1  0.48996455  0.87752446  0.88029496  1
  V  V22  1  0.62146015  0.36620993  0.25971609  1
  V  V23  1  0.24919138  0.87172944  0.11818181  1
  V  V24  1  0.87028857  0.23338897  0.62786611  1
  V  V25  1  0.87087111  0.49350974  0.37306518  1
  V  V26  1  0.00753419  0.75577562  0.75695764  1
  V  V27  1  0.86943532  0.75654339  0.61064632  1
  V  V28  1  0.00165915  0.13512690  0.12116010  1
  V  V29  1  0.01359242  0.87625677  0.87562880  1
  V  V30  1  0.13000430  0.00844704  0.13656037  1
  V  V31  1  0.49941785  0.62722656  0.13186598  1
  V  V32  1  0.24534247  0.14014787  0.38969474  1
  V  V33  1  0.00163100  0.00252907  0.00092631  1
  V  V34  1  0.87089317  0.63202317  0.75179894  1
  V  V35  1  0.40439623  0.34608180  0.00807607  1
  V  V36  1  0.75074334  0.12921981  0.38453607  1
  V  V37  1  0.36800916  0.39227867  0.51554352  1
  V  V38  1  0.12468745  0.61749773  0.49809672  1
  V  V39  1  0.36970504  0.75573038  0.61956523  1
  V  V40  1  0.13128376  0.24069005  0.88774615  1
  V  V41  1  0.75983680  0.36286184  0.11752580  1
  V  V42  1  0.86805013  0.87926300  -0.00184693  1
  V  V43  1  0.50011427  0.14205064  0.61815153  1
  V  V44  1  0.74943210  0.62376676  0.87850951  1
  V  V45  1  0.36355287  0.12114079  0.24290568  1
  V  V46  1  0.88086064  0.48771462  0.88255592  1
  V  V47  1  0.87298630  0.12387346  0.24527876  1
  V  V48  1  0.37488020  0.51052401  0.89592450  1
  V  V49  1  0.60397303  0.37263489  0.75017175  1
  V  V50  1  0.89000496  0.11633208  0.76840653  1
  V  V51  1  0.62248048  0.75117927  0.87409153  1
  V  V52  1  0.37229301  0.14561644  0.74246918  1
  V  V53  1  0.62035501  0.48914360  0.11703397  1
  V  V54  1  0.35007068  0.61786585  0.74538692  1
  V  V55  1  0.25093758  0.76402311  0.49332255  1
  V  V56  1  0.25565612  -0.03279252  0.72661995  1
  V  V57  1  0.90097037  0.74544433  0.12358593  1
  V  V58  1  0.00090268  0.87708323  0.38919588  1
  V  V59  1  0.00682805  0.49048683  0.00945089  1
  V  V60  1  0.11293547  -0.01266909  0.61950662  1
  V  V61  1  -0.00159710  0.62510541  0.61970122  1
  V  V62  1  0.50213026  -0.00853377  0.49179043  1
  V  V63  1  0.62815120  0.87897267  0.74765288  1
  V  V64  1  0.13236132  0.39230401  0.25155093  1
  V  V65  1  0.50305696  0.73478645  0.73759984  1
  V  V66  1  0.25012492  0.61131618  0.36882230  1
  V  V67  1  0.13266596  0.49594409  0.63557390  1
  V  V68  1  0.52484678  0.49561831  0.51591948  1
  V  V69  1  0.61466537  0.24263480  0.87458976  1
  Zn  Zn70  1  0.00621362  0.38945533  0.38663471  1
  Zn  Zn71  1  0.61777612  0.22860242  0.39804530  1
  Zn  Zn72  1  0.62891297  0.01763258  0.61302294  1
  Zn  Zn73  1  0.33174775  0.03444319  0.88956442  1
  Zn  Zn74  1  0.74900386  0.50085446  0.24913589  1
  Zn  Zn75  1  0.11926084  0.74652569  0.37142203  1
  Zn  Zn76  1  0.19231144  0.19646872  0.19016038  1
  Zn  Zn77  1  0.16365616  0.15465812  0.71919228  1
  Zn  Zn78  1  0.18858160  0.68737297  0.18569909  1
  Zn  Zn79  1  0.18778791  0.69828772  0.68248363  1
  Zn  Zn80  1  0.67642292  0.17401935  0.18874073  1
  Zn  Zn81  1  0.68400920  0.19487997  0.68847947  1
  Zn  Zn82  1  0.69598716  0.67984625  0.18722154  1
  Zn  Zn83  1  0.69075537  0.68919758  0.68489305  1
  Zn  Zn84  1  0.30765695  0.30939711  0.31317382  1
  Zn  Zn85  1  0.33331960  0.31191732  0.83951051  1
  Zn  Zn86  1  0.30751999  0.81012291  0.30302161  1
  Zn  Zn87  1  0.27121814  0.84791299  0.84454361  1
  Zn  Zn88  1  0.81321793  0.30862970  0.30277867  1
  Zn  Zn89  1  0.81099020  0.30385289  0.80987368  1
  Zn  Zn90  1  0.83091676  0.81369697  0.30435765  1
  Zn  Zn91  1  0.81276676  0.81840769  0.81447131  1
  Zn  Zn92  1  0.18680838  0.42535152  0.43881278  1
  Zn  Zn93  1  0.18595940  0.44001759  0.92348158  1
  Zn  Zn94  1  0.18418157  0.94984833  0.43613162  1
  Zn  Zn95  1  0.19417321  0.97531760  0.94843108  1
  Zn  Zn96  1  0.67449157  0.38759226  0.46777108  1
  Zn  Zn97  1  0.68671810  0.42790515  0.93586554  1
  Zn  Zn98  1  0.70143093  0.96516826  0.43902649  1
  Zn  Zn99  1  0.68174650  0.94285156  0.93930711  1
  Zn  Zn100  1  0.30783018  0.07033448  0.05610268  1
  Zn  Zn101  1  0.31460556  0.06378358  0.56397190  1
  Zn  Zn102  1  0.30507028  0.54898872  0.07961759  1
  Zn  Zn103  1  0.31429489  0.56453222  0.56320770  1
  Zn  Zn104  1  0.81372157  0.06227981  0.06505191  1
  Zn  Zn105  1  0.81843938  0.06104148  0.56574195  1
  Zn  Zn106  1  0.81315962  0.55915514  0.06647965  1
  Zn  Zn107  1  0.80634002  0.56271782  0.55813415  1
  Zn  Zn108  1  0.43732893  0.43076225  0.18060780  1
  Zn  Zn109  1  0.44224144  0.44898683  0.67860103  1
  Zn  Zn110  1  0.42888692  0.95039451  0.18112098  1
  Zn  Zn111  1  0.44209219  0.94480735  0.68222284  1
  Zn  Zn112  1  0.94244857  0.43561165  0.18602062  1
  Zn  Zn113  1  0.93883086  0.44592854  0.69369662  1
  Zn  Zn114  1  0.93767684  0.93851926  0.18625885  1
  Zn  Zn115  1  0.93466400  0.93896511  0.68876152  1
  Zn  Zn116  1  0.06453384  0.06610194  0.31716164  1
  Zn  Zn117  1  0.07421281  0.05045401  0.81245803  1
  Zn  Zn118  1  0.05452605  0.56248767  0.30973347  1
  Zn  Zn119  1  0.06567832  0.56298735  0.81476112  1
  Zn  Zn120  1  0.56084869  0.06414827  0.29922954  1
  Zn  Zn121  1  0.55315003  0.06413339  0.80623272  1
  Zn  Zn122  1  0.56530529  0.55486167  0.30743376  1
  Zn  Zn123  1  0.55906118  0.55214862  0.81817829  1
  Zn  Zn124  1  0.44186661  0.18025308  0.42813342  1
  Zn  Zn125  1  0.44436664  0.18083636  0.92788906  1
  Zn  Zn126  1  0.43327652  0.67657468  0.44291537  1
  Zn  Zn127  1  0.33054893  0.69764297  0.92627713  1
  Zn  Zn128  1  0.93440940  0.19117165  0.44286698  1
  Zn  Zn129  1  0.94263519  0.19773050  0.93600310  1
  Zn  Zn130  1  0.94034271  0.68906278  0.43010415  1
  Zn  Zn131  1  0.93895836  0.68635439  0.94137404  1
  Zn  Zn132  1  0.07061690  0.31473812  0.05703640  1
  Zn  Zn133  1  0.05336638  0.31095100  0.56721393  1
  Zn  Zn134  1  0.06921132  0.81886728  0.05627293  1
  Zn  Zn135  1  0.06289371  0.80800464  0.56319253  1
  Zn  Zn136  1  0.57608168  0.28651801  0.06625866  1
  Zn  Zn137  1  0.55926603  0.31924638  0.56829851  1
  Zn  Zn138  1  0.56060016  0.81602358  0.06925724  1
  Zn  Zn139  1  0.55715474  0.82285597  0.56228391  1
  O  O140  1  0.11680296  0.11565593  0.13281831  1
  O  O141  1  0.12803293  0.11289132  0.61544271  1
  O  O142  1  0.15492985  0.61792466  0.09694993  1
  O  O143  1  0.11832365  0.62459707  0.61382064  1
  O  O144  1  0.62023719  0.06567704  0.19331952  1
  O  O145  1  0.60981676  0.13058604  0.63012957  1
  O  O146  1  0.61970813  0.61706387  0.12155471  1
  O  O147  1  0.65633766  0.64194679  0.57770313  1
  O  O148  1  0.38473451  0.34546475  0.40089578  1
  O  O149  1  0.37595584  0.38835963  0.91330567  1
  O  O150  1  0.36853989  0.89131632  0.36185092  1
  O  O151  1  0.39299052  0.86856735  0.86644945  1
  O  O152  1  0.87954833  0.38934722  0.35986218  1
  O  O153  1  0.86887809  0.39002424  0.87335793  1
  O  O154  1  0.88940631  0.88822065  0.36701780  1
  O  O155  1  0.88319591  0.86773469  0.89294738  1
  O  O156  1  0.26319974  0.01074039  0.37915129  1
  O  O157  1  0.24972784  -0.03818344  0.84974971  1
  O  O158  1  0.24690922  0.51386714  0.37937243  1
  O  O159  1  0.27409535  0.49282139  0.87195960  1
  O  O160  1  0.77120388  0.00990230  0.36391606  1
  O  O161  1  0.74590623  0.00013371  0.86414398  1
  O  O162  1  0.76972052  0.50622454  0.36680929  1
  O  O163  1  0.75951547  0.51198490  0.87407808  1
  O  O164  1  0.25365455  0.47265061  0.14021712  1
  O  O165  1  0.23168605  0.50895893  0.62156732  1
  O  O166  1  0.23388061  0.99378643  0.12612056  1
  O  O167  1  0.24811748  0.99027309  0.62375095  1
  O  O168  1  0.73906054  0.48682359  0.12288243  1
  O  O169  1  0.75138692  0.51031533  0.64334983  1
  O  O170  1  0.74022121  0.99108433  0.11620330  1
  O  O171  1  0.74899787  0.98865491  0.63010654  1
  O  O172  1  0.00903790  0.36154087  0.24614184  1
  O  O173  1  -0.00262759  0.37557550  0.76014407  1
  O  O174  1  0.01483523  0.87680167  0.24890219  1
  O  O175  1  -0.01049262  0.86629366  0.76453033  1
  O  O176  1  0.51031392  0.36233130  0.24177073  1
  O  O177  1  0.50423303  0.38282655  0.75100326  1
  O  O178  1  0.50451944  0.87142693  0.25625109  1
  O  O179  1  0.51578358  0.87407291  0.75403422  1
  O  O180  1  0.47582974  0.13193533  0.25418035  1
  O  O181  1  0.48593096  0.11224476  0.72746746  1
  O  O182  1  0.48820377  0.62313262  0.24415325  1
  O  O183  1  0.52054671  0.63716683  0.74639105  1
  O  O184  1  0.99990432  0.13506954  0.24259507  1
  O  O185  1  0.98842783  0.10685340  0.75303112  1
  O  O186  1  0.98645731  0.62653699  0.24188836  1
  O  O187  1  0.98963973  0.63977675  0.74400196  1
  O  O188  1  0.38405491  0.24733935  -0.00110438  1
  O  O189  1  0.38528878  0.28727196  0.46121930  1
  O  O190  1  0.36896976  0.73696533  0.02461207  1
  O  O191  1  0.36714422  0.74170225  0.50881444  1
  O  O192  1  0.86065491  0.24942495  -0.00466059  1
  O  O193  1  0.87638275  0.24814884  0.52488574  1
  O  O194  1  0.86846217  0.75560950  0.00925066  1
  O  O195  1  0.87589601  0.74523914  0.51221458  1
  O  O196  1  0.12047877  0.23505243  0.51412176  1
  O  O197  1  0.11562161  0.23399645  0.98684683  1
  O  O198  1  0.13907571  0.74287532  0.49974833  1
  O  O199  1  0.11393860  0.73791281  0.99307279  1
  O  O200  1  0.63409324  0.28266859  0.49274838  1
  O  O201  1  0.64072157  0.25160999  0.98238819  1
  O  O202  1  0.58349635  0.75141014  0.46242344  1
  O  O203  1  0.62931236  0.74526920  0.99255574  1
  O  O204  1  0.52464369  0.23090206  0.14968453  1
  O  O205  1  0.49523959  0.24156727  0.62133612  1
  O  O206  1  0.48803015  0.74254120  0.12717467  1
  O  O207  1  0.50151234  0.74867151  0.63175306  1
  O  O208  1  1.00634038  0.23588192  0.12473497  1
  O  O209  1  0.97830131  0.26334548  0.64531062  1
  O  O210  1  0.99915348  0.74777233  0.11941415  1
  O  O211  1  0.98555929  0.74975467  0.63474323  1
  O  O212  1  -0.00218320  0.25392583  0.36757462  1
  O  O213  1  0.01456842  0.24658080  0.86088814  1
  O  O214  1  0.00152837  0.76999291  0.37493306  1
  O  O215  1  -0.00461644  0.75688598  0.86349436  1
  O  O216  1  0.51184087  0.23769925  0.35458906  1
  O  O217  1  0.51522514  0.25820510  0.88065914  1
  O  O218  1  0.52665498  0.75543235  0.41139381  1
  O  O219  1  0.51447334  0.76023197  0.85680858  1
  O  O220  1  0.24948699  0.12934629  0.49322055  1
  O  O221  1  0.24926771  0.07723635  0.96441213  1
  O  O222  1  0.24013340  0.63091985  0.48811105  1
  O  O223  1  0.21889092  0.62177426  1.03842454  1
  O  O224  1  0.75367818  0.11565465  0.48491188  1
  O  O225  1  0.75076234  0.13467875  1.00661999  1
  O  O226  1  0.71189636  0.63403044  0.52455218  1
  O  O227  1  0.74207124  0.63353424  0.99458238  1
  O  O228  1  0.23285270  0.37387487  0.01016262  1
  O  O229  1  0.26645008  0.38757615  0.50464360  1
  O  O230  1  0.24143834  0.88327942  0.01934999  1
  O  O231  1  0.24720738  0.86187137  0.48697000  1
  O  O232  1  0.74968326  0.36839968  0.01294177  1
  O  O233  1  0.78295400  0.36278434  0.48181120  1
  O  O234  1  0.76174099  0.86774097  -0.00847211  1
  O  O235  1  0.74465589  0.88297376  0.51205040  1
  O  O236  1  0.11794175  0.49168509  0.24504834  1
  O  O237  1  0.11853230  0.50397690  0.73555953  1
  O  O238  1  0.11875728  0.99343637  0.23888071  1
  O  O239  1  0.14481414  1.00487967  0.73121240  1
  O  O240  1  0.62642908  0.49102755  0.23510390  1
  O  O241  1  0.63876774  0.48883922  0.76202368  1
  O  O242  1  0.55667591  0.90556454  0.29698164  1
  O  O243  1  0.63604274  0.99326334  0.74443811  1
  O  O244  1  0.37821585  0.01391193  0.26207812  1
  O  O245  1  0.35808102  -0.00803576  0.74181627  1
  O  O246  1  0.37962882  0.51251111  0.24588725  1
  O  O247  1  0.37021910  0.51824556  0.73709669  1
  O  O248  1  0.88752318  0.01681348  0.25694556  1
  O  O249  1  0.86133833  0.00596303  0.74914990  1
  O  O250  1  0.87986986  0.51001551  0.25358401  1
  O  O251  1  0.86638243  0.51629160  0.76087236  1
  O  O252  1  0.11736008  0.38291210  0.36129547  1
  O  O253  1  0.13552561  0.35066840  0.86656185  1
  O  O254  1  0.11596729  0.88134184  0.36406889  1
  O  O255  1  0.11015634  0.86981255  0.88077512  1
  O  O256  1  0.62812503  0.38901945  0.35552982  1
  O  O257  1  0.63202811  0.36645769  0.86068002  1
  O  O258  1  0.69447928  0.83112001  0.35816315  1
  O  O259  1  0.62730678  0.86564458  0.86580303  1
  O  O260  1  0.35862380  0.11716984  0.14252154  1
  O  O261  1  0.38464753  0.12851335  0.63008317  1
  O  O262  1  0.37892990  0.62915490  0.13760690  1
  O  O263  1  0.36931251  0.63918311  0.63528175  1
  O  O264  1  0.89127420  0.11849070  0.13591847  1
  O  O265  1  0.87429406  0.12949567  0.63838575  1
  O  O266  1  0.87785300  0.64143936  0.11975978  1
  O  O267  1  0.87609973  0.63744420  0.62944135  1
  O  O268  1  0.25638341  0.27001783  0.13520923  1
  O  O269  1  0.24419224  0.33997990  0.68584828  1
  O  O270  1  0.25528741  0.76424429  0.12669710  1
  O  O271  1  0.26028886  0.75218300  0.60910578  1
  O  O272  1  0.73233237  0.25678204  0.11506673  1
  O  O273  1  0.77417797  0.25638079  0.65182120  1
  O  O274  1  0.74167382  0.75387604  0.11219667  1
  O  O275  1  0.76157275  0.76323162  0.62718002  1
  O  O276  1  0.24375706  0.23992066  0.37958833  1
  O  O277  1  0.23376688  0.26492905  0.86899630  1
  O  O278  1  0.24862884  0.74152583  0.38377765  1
  O  O279  1  0.24600054  0.75018385  0.88233157  1
  O  O280  1  0.75962753  0.23111584  0.37165607  1
  O  O281  1  0.74654572  0.24649072  0.88378850  1
  O  O282  1  0.74494180  0.77607227  0.38675390  1
  O  O283  1  0.74048536  0.74252581  0.88031841  1
  O  O284  1  -0.00955151  0.11664315  0.01319037  1
  O  O285  1  0.01128557  0.12363244  0.49592293  1
  O  O286  1  0.01024238  0.61579237  -0.00681921  1
  O  O287  1  0.01539635  0.64129415  0.50663893  1
  O  O288  1  0.50780493  0.11263708  -0.00246316  1
  O  O289  1  0.49340297  0.12109928  0.51136304  1
  O  O290  1  0.51398818  0.63027845  0.01310459  1
  O  O291  1  0.51736875  0.59849976  0.45856517  1
  O  O292  1  0.49377528  0.39434833  0.50621148  1
  O  O293  1  0.50258198  0.36199808  1.01850891  1
  O  O294  1  0.49669636  0.89041113  0.49399289  1
  O  O295  1  0.50468131  0.86820414  0.98222860  1
  O  O296  1  0.97625498  0.36391866  0.49463688  1
  O  O297  1  1.00480837  0.38888164  0.99918177  1
  O  O298  1  1.00480893  0.87721853  0.48833092  1
  O  O299  1  0.99207247  0.87950747  0.99059764  1
  O  O300  1  0.50284698  0.53361373  0.40151644  1
  O  O301  1  0.47490443  0.50076771  0.86738131  1
  O  O302  1  0.48877882  1.01459205  0.38315456  1
  O  O303  1  0.51258009  0.98491752  0.88505705  1
  O  O304  1  0.98167637  0.50708868  0.37740192  1
  O  O305  1  0.98234544  0.50585219  0.87230622  1
  O  O306  1  0.99341450  0.99152546  0.37197994  1
  O  O307  1  1.00841202  0.98754813  0.88520253  1
  O  O308  1  0.00820938  0.00898855  0.12070518  1
  O  O309  1  0.01224580  -0.00432188  0.63131987  1
  O  O310  1  -0.00374370  0.50121249  0.10938796  1
  O  O311  1  0.00040389  0.52252898  0.62898439  1
  O  O312  1  0.50360101  -0.00922813  0.10743199  1
  O  O313  1  0.50519256  0.00302915  0.60606456  1
  O  O314  1  0.51330124  0.50975792  0.12689053  1
  O  O315  1  0.51021133  0.51922296  0.61380679  1
  O  O316  1  0.23439539  0.37582517  0.25843769  1
  O  O317  1  0.26258806  0.38432106  0.74066480  1
  O  O318  1  0.23083771  0.87588060  0.24053210  1
  O  O319  1  0.25093933  0.86683040  0.72773560  1
  O  O320  1  0.73651985  0.37268974  0.23637023  1
  O  O321  1  0.76290722  0.39281031  0.75125967  1
  O  O322  1  0.72123970  0.85966480  0.28538839  1
  O  O323  1  0.74460558  0.88463362  0.74606158  1
  O  O324  1  0.25774728  0.13325123  0.26417237  1
  O  O325  1  0.27172500  0.12253151  0.73916463  1
  O  O326  1  0.25466686  0.62419341  0.26064113  1
  O  O327  1  0.25142819  0.63066349  0.74779878  1
  O  O328  1  0.77136323  0.13166776  0.24797715  1
  O  O329  1  0.75472529  0.11186984  0.74749205  1
  O  O330  1  0.77422650  0.61595246  0.23307060  1
  O  O331  1  0.75177906  0.62190059  0.75944792  1
  O  O332  1  0.35938041  0.12202447  0.37013075  1
  O  O333  1  0.39446115  0.11763706  0.84762958  1
  O  O334  1  0.36270220  0.62931763  0.36349746  1
  O  O335  1  0.37461180  0.62067423  0.85482839  1
  O  O336  1  0.87464070  0.11763508  0.36766817  1
  O  O337  1  0.88135145  0.12079879  0.86758663  1
  O  O338  1  0.87638881  0.62712354  0.35886279  1
  O  O339  1  0.86364306  0.63007701  0.86846917  1
  O  O340  1  0.13195643  0.36788246  0.14014845  1
  O  O341  1  0.11058609  0.39999023  0.61071463  1
  O  O342  1  0.12952732  0.88112709  0.13396668  1
  O  O343  1  0.12346972  0.88553445  0.61864980  1
  O  O344  1  0.62684295  0.38411183  0.12781650  1
  O  O345  1  0.62581777  0.37088532  0.65059791  1
  O  O346  1  0.62018080  0.88626303  0.13937553  1
  O  O347  1  0.63976048  0.86915098  0.63126071  1
  O  O348  1  0.11043430  0.24924675  0.25307496  1
  O  O349  1  0.10464739  0.25517957  0.73192542  1
  O  O350  1  0.12487863  0.75909456  0.25098263  1
  O  O351  1  0.10519595  0.75175378  0.74107304  1
  O  O352  1  0.62734459  0.26048437  0.25792453  1
  O  O353  1  0.62777732  0.26366984  0.76178796  1
  O  O354  1  0.62780821  0.70825545  0.28388330  1
  O  O355  1  0.62428822  0.75702353  0.75270425  1
  O  O356  1  0.38441336  0.24682223  0.24870088  1
  O  O357  1  0.37597045  0.24599167  0.75620880  1
  O  O358  1  0.36746365  0.73525213  0.23628076  1
  O  O359  1  0.39435433  0.73441509  0.73880430  1
  O  O360  1  0.89310542  0.23542594  0.25186957  1
  O  O361  1  0.89061035  0.23355038  0.75591118  1
  O  O362  1  0.87527673  0.74257260  0.23095621  1
  O  O363  1  0.87547483  0.74358533  0.74431861  1
  O  O364  1  0.38616331  0.49792118  0.50424346  1
  O  O365  1  0.37670974  0.53449086  0.99398602  1
  O  O366  1  0.38362501  1.00238094  0.48640859  1
  O  O367  1  0.39331372  1.00238104  0.99378954  1
  O  O368  1  0.86992674  0.49564758  0.49060385  1
  O  O369  1  0.88423891  0.50789277  0.98805658  1
  O  O370  1  0.87804739  1.00339496  0.48393730  1
  O  O371  1  0.88406968  0.98496182  1.00942301  1
  O  O372  1  0.10756023  -0.00760834  0.01959733  1
  O  O373  1  0.12782649  0.00936616  0.51343856  1
  O  O374  1  0.10991143  0.50641085  -0.01492923  1
  O  O375  1  0.12353375  0.51642790  0.50162111  1
  O  O376  1  0.61758889  -0.00333971  0.01439308  1
  O  O377  1  0.61135108  0.00009186  0.49326899  1
  O  O378  1  0.63086858  0.50771257  0.00965256  1
  O  O379  1  0.62534126  0.48372960  0.50431615  1
  O  O380  1  0.36730517  0.38122912  0.10247421  1
  O  O381  1  0.38035509  0.37413425  0.61480461  1
  O  O382  1  0.36241716  0.86611285  0.13509325  1
  O  O383  1  0.38698726  0.85344041  0.62866549  1
  O  O384  1  0.85760167  0.37086800  0.13573775  1
  O  O385  1  0.87174165  0.38759054  0.61964814  1
  O  O386  1  0.88473541  0.86051584  0.11134924  1
  O  O387  1  0.86495399  0.86662239  0.62637217  1
  O  O388  1  0.13761975  0.11440911  0.39162984  1
  O  O389  1  0.13509391  0.14274285  0.84334515  1
  O  O390  1  0.13085670  0.62633018  0.38100236  1
  O  O391  1  0.13303385  0.62441533  0.88181549  1
  O  O392  1  0.64720721  0.11807056  0.36082286  1
  O  O393  1  0.61906884  0.14108518  0.85938183  1
  O  O394  1  0.63446925  0.65364619  0.33748574  1
  O  O395  1  0.63030092  0.62976954  0.88253015  1
