# generated using pymatgen
data_V35Zn35O128
_symmetry_space_group_name_H-M   'P 1'
_cell_length_a   16.79304750
_cell_length_b   16.88376523
_cell_length_c   16.84274899
_cell_angle_alpha   89.92326444
_cell_angle_beta   89.80955511
_cell_angle_gamma   89.88143270
_symmetry_Int_Tables_number   1
_chemical_formula_structural   V35Zn35O128
_chemical_formula_sum   'V70 Zn70 O256'
_cell_volume   4775.38161241
_cell_formula_units_Z   2
loop_
 _symmetry_equiv_pos_site_id
 _symmetry_equiv_pos_as_xyz
  1  'x, y, z'
loop_
 _atom_site_type_symbol
 _atom_site_label
 _atom_site_symmetry_multiplicity
 _atom_site_fract_x
 _atom_site_fract_y
 _atom_site_fract_z
 _atom_site_occupancy
  V  V0  1  0.67290743  0.40407125  0.75179846  1
  V  V1  1  0.33897921  0.17183785  0.80635127  1
  V  V2  1  0.49618862  0.25464867  0.75503802  1
  V  V3  1  0.11940083  0.37980869  0.25318400  1
  V  V4  1  0.11138935  0.37436864  0.75781373  1
  V  V5  1  0.00115258  0.36112352  0.38217938  1
  V  V6  1  0.24142643  -0.00926413  0.74623248  1
  V  V7  1  0.89563780  0.13048702  0.24443934  1
  V  V8  1  0.01950954  0.11878983  0.62008782  1
  V  V9  1  0.62999791  0.49177865  0.13101165  1
  V  V10  1  0.62831369  -0.00465465  0.64013274  1
  V  V11  1  0.74619764  0.13319270  0.36895839  1
  V  V12  1  0.00998044  0.00895961  0.01072646  1
  V  V13  1  0.87393883  0.37217091  0.51802169  1
  V  V14  1  0.62353651  0.37184146  0.27199015  1
  V  V15  1  0.53620618  0.49872333  0.52645419  1
  V  V16  1  0.73480786  0.11806586  0.87216977  1
  V  V17  1  0.61984339  0.12508416  0.02128091  1
  V  V18  1  0.37332289  0.00017730  0.37036321  1
  V  V19  1  0.76448845  0.62352003  0.39719142  1
  V  V20  1  0.49894046  0.50130765  -0.00647881  1
  V  V21  1  0.37500345  0.25495448  0.60968571  1
  V  V22  1  0.39438337  0.49488907  0.39810659  1
  V  V23  1  0.75260903  0.75325802  0.01988183  1
  V  V24  1  0.24810667  0.38342131  0.12334552  1
  V  V25  1  0.37515249  0.51683725  0.86804998  1
  V  V26  1  -0.00120101  0.49516936  -0.01073098  1
  V  V27  1  0.87792423  0.48981703  0.35003134  1
  V  V28  1  0.10345577  0.62958730  0.50449378  1
  V  V29  1  0.49115895  0.11373875  0.63050281  1
  V  V30  1  0.62138273  0.12086170  0.50007435  1
  V  V31  1  0.37175056  -0.00986279  0.86721011  1
  V  V32  1  0.75288358  0.24933652  0.52151471  1
  V  V33  1  0.86760630  0.11230768  0.74407766  1
  V  V34  1  0.25385949  0.37974777  0.61437256  1
  V  V35  1  0.74418253  -0.00875213  0.24228215  1
  V  V36  1  0.24932666  0.51172776  0.74963857  1
  V  V37  1  0.88001866  0.00608762  0.37765521  1
  V  V38  1  0.50081609  0.24443519  0.25765185  1
  V  V39  1  0.63636852  0.74954211  0.86369077  1
  V  V40  1  0.87526547  0.64616198  0.24250560  1
  V  V41  1  0.50145324  -0.00452746  0.01383696  1
  V  V42  1  0.23199686  0.24734250  0.49081368  1
  V  V43  1  0.37866964  0.86567268  -0.00105136  1
  V  V44  1  0.63248268  0.62375302  -0.00407155  1
  V  V45  1  0.25041651  0.87127576  0.62244523  1
  V  V46  1  0.37362266  0.24163618  0.13183141  1
  V  V47  1  0.89079869  0.25026230  0.12397791  1
  V  V48  1  0.24514159  0.74370782  -0.01854350  1
  V  V49  1  0.74977903  0.87926412  0.65501706  1
  V  V50  1  0.50947803  0.86739428  0.85740496  1
  V  V51  1  0.25917977  0.74678383  0.50067561  1
  V  V52  1  0.00778429  0.63005598  0.12836057  1
  V  V53  1  0.87171833  0.87664311  0.01614099  1
  V  V54  1  0.12607330  0.62189856  -0.01637644  1
  V  V55  1  0.87533387  0.37469943  -0.01467812  1
  V  V56  1  0.48001678  0.64102165  0.64143750  1
  V  V57  1  0.00851231  0.87350959  0.87311805  1
  V  V58  1  0.01215113  0.74772628  0.75092348  1
  V  V59  1  0.11489688  0.73979959  0.36230386  1
  V  V60  1  0.37350002  0.36970056  -0.00843519  1
  V  V61  1  0.37518456  0.73320797  0.13933252  1
  V  V62  1  0.11661805  0.88176878  0.24311638  1
  V  V63  1  0.24900358  0.87427605  0.12960374  1
  V  V64  1  -0.01739847  0.25280019  0.75559229  1
  V  V65  1  0.85459753  0.88344532  0.50268890  1
  V  V66  1  0.88102690  0.75116584  0.63183122  1
  V  V67  1  -0.00021057  0.87888295  0.38167689  1
  V  V68  1  0.10150430  0.50165044  0.61692685  1
  V  V69  1  0.26496378  0.50855822  0.25156292  1
  Zn  Zn70  1  0.26129078  0.62557825  0.37222636  1
  Zn  Zn71  1  0.73736488  0.25067068  0.00383480  1
  Zn  Zn72  1  0.49801640  0.62108169  0.13788356  1
  Zn  Zn73  1  0.60277284  0.86743756  0.27053254  1
  Zn  Zn74  1  0.75656025  0.37446769  0.13145642  1
  Zn  Zn75  1  0.86801416  -0.00588728  0.87676659  1
  Zn  Zn76  1  0.18140652  0.21466419  0.19795392  1
  Zn  Zn77  1  0.16321051  0.16402484  0.73531598  1
  Zn  Zn78  1  0.18790712  0.68356870  0.17701846  1
  Zn  Zn79  1  0.18334046  0.69086141  0.68323035  1
  Zn  Zn80  1  0.69025998  0.19745001  0.18665242  1
  Zn  Zn81  1  0.67743484  0.18858329  0.69423341  1
  Zn  Zn82  1  0.68920990  0.67206457  0.19057763  1
  Zn  Zn83  1  0.68853545  0.68371018  0.66691156  1
  Zn  Zn84  1  0.31864792  0.32310300  0.31457889  1
  Zn  Zn85  1  0.31268710  0.33403259  0.79761952  1
  Zn  Zn86  1  0.30933475  0.80589784  0.31341037  1
  Zn  Zn87  1  0.31921930  0.80645162  0.79959313  1
  Zn  Zn88  1  0.81033837  0.31057709  0.30852489  1
  Zn  Zn89  1  0.79814857  0.29814064  0.82184841  1
  Zn  Zn90  1  0.77304003  0.82131010  0.33741696  1
  Zn  Zn91  1  0.82252694  0.80633095  0.82521097  1
  Zn  Zn92  1  0.18526786  0.44593076  0.43201307  1
  Zn  Zn93  1  0.18886009  0.44011147  0.93495179  1
  Zn  Zn94  1  0.18979164  0.92259523  0.42959054  1
  Zn  Zn95  1  0.18706657  0.93614130  0.94307520  1
  Zn  Zn96  1  0.70205369  0.44297691  0.44616116  1
  Zn  Zn97  1  0.67569373  0.41978304  0.94035081  1
  Zn  Zn98  1  0.64205658  0.90816570  0.45847337  1
  Zn  Zn99  1  0.68591462  0.93625804  0.94292378  1
  Zn  Zn100  1  0.25410575  0.08518043  0.09075380  1
  Zn  Zn101  1  0.29855961  0.06772036  0.56412269  1
  Zn  Zn102  1  0.30855452  0.56063100  0.05873215  1
  Zn  Zn103  1  0.30619825  0.56751508  0.56155152  1
  Zn  Zn104  1  0.81153028  0.06407856  0.06379789  1
  Zn  Zn105  1  0.80914888  0.06051498  0.56312550  1
  Zn  Zn106  1  0.81689000  0.56117072  0.06626095  1
  Zn  Zn107  1  0.91500339  0.56401065  0.54858893  1
  Zn  Zn108  1  0.44197351  0.43257215  0.18565373  1
  Zn  Zn109  1  0.44349617  0.44153021  0.68432429  1
  Zn  Zn110  1  0.46540073  0.90340796  0.17401648  1
  Zn  Zn111  1  0.43399883  0.92394323  0.67646324  1
  Zn  Zn112  1  0.94898878  0.43980690  0.17244192  1
  Zn  Zn113  1  0.89070789  0.41765156  0.72342649  1
  Zn  Zn114  1  0.93166866  0.93653921  0.19284445  1
  Zn  Zn115  1  0.94572285  0.94031579  0.68687488  1
  Zn  Zn116  1  0.07388581  0.06262166  0.18112172  1
  Zn  Zn117  1  0.05096005  0.06170258  0.82336165  1
  Zn  Zn118  1  0.05872132  0.55210957  0.31125340  1
  Zn  Zn119  1  0.05553831  0.56372670  0.80743171  1
  Zn  Zn120  1  0.56819029  0.06477993  0.30464794  1
  Zn  Zn121  1  0.55179319  0.06312196  0.81660769  1
  Zn  Zn122  1  0.57943802  0.56067717  0.33354177  1
  Zn  Zn123  1  0.56816454  0.56214276  0.80878674  1
  Zn  Zn124  1  0.43919797  0.19203094  0.43754344  1
  Zn  Zn125  1  0.43500354  0.17922511  0.95387964  1
  Zn  Zn126  1  0.43635294  0.65875861  0.45126930  1
  Zn  Zn127  1  0.44416086  0.68791356  0.93231611  1
  Zn  Zn128  1  0.94059556  0.18931281  0.44076221  1
  Zn  Zn129  1  0.93333005  0.18434507  0.93065757  1
  Zn  Zn130  1  0.91498030  0.70577646  0.42562962  1
  Zn  Zn131  1  0.94195849  0.69628157  0.94475438  1
  Zn  Zn132  1  0.06512050  0.31364496  0.06001709  1
  Zn  Zn133  1  0.05753661  0.30222713  0.57269066  1
  Zn  Zn134  1  0.06098327  0.80983500  0.05886214  1
  Zn  Zn135  1  0.06791537  0.82140985  0.56522374  1
  Zn  Zn136  1  0.55183821  0.31051295  0.06410422  1
  Zn  Zn137  1  0.57568781  0.31355099  0.57852990  1
  Zn  Zn138  1  0.56547852  0.80478980  0.06871107  1
  Zn  Zn139  1  0.56108261  0.79286832  0.59087709  1
  O  O140  1  0.14617024  0.17719077  0.00201191  1
  O  O141  1  0.12067185  0.12799855  0.63505101  1
  O  O142  1  0.11453427  0.62341519  0.11204356  1
  O  O143  1  0.11829127  0.61766092  0.61252268  1
  O  O144  1  0.62423914  0.12304710  0.12016716  1
  O  O145  1  0.61483324  0.11516074  0.62112022  1
  O  O146  1  0.62231541  0.60758325  0.11375250  1
  O  O147  1  0.59627327  0.68603832  0.60749563  1
  O  O148  1  0.38797847  0.40037188  0.36256203  1
  O  O149  1  0.36467227  0.38218217  0.88848061  1
  O  O150  1  0.37531291  0.89593108  0.37045743  1
  O  O151  1  0.39035048  0.87010356  0.87823699  1
  O  O152  1  0.88312146  0.37720807  0.36953811  1
  O  O153  1  0.87758074  0.36645233  0.88692973  1
  O  O154  1  0.87767968  0.88252681  0.39116109  1
  O  O155  1  0.88293642  0.87630784  0.89316352  1
  O  O156  1  0.26696540  -0.00246683  0.36975549  1
  O  O157  1  0.26476963  -0.02366971  0.86595476  1
  O  O158  1  0.26229407  0.49970530  0.36420507  1
  O  O159  1  0.25735989  0.49977467  0.85960597  1
  O  O160  1  0.76746850  0.01701297  0.36548920  1
  O  O161  1  0.74957501  0.01176105  0.88391941  1
  O  O162  1  0.77327563  0.50401284  0.37578672  1
  O  O163  1  0.82382582  0.57562152  0.88029687  1
  O  O164  1  0.25192678  0.49207005  0.13385230  1
  O  O165  1  0.24476623  0.49348869  0.63332580  1
  O  O166  1  0.25626518  0.97229140  0.11197999  1
  O  O167  1  0.25439997  0.99615729  0.63986615  1
  O  O168  1  0.73432928  0.49688448  0.11981332  1
  O  O169  1  0.79235502  0.55148430  0.69800834  1
  O  O170  1  0.74982189  1.00938005  0.14339674  1
  O  O171  1  0.73817019  0.99251937  0.62995676  1
  O  O172  1  0.01486121  0.37893629  0.24998807  1
  O  O173  1  -0.00307112  0.36739369  0.74720983  1
  O  O174  1  0.01044845  0.87391022  0.25547907  1
  O  O175  1  -0.00298115  0.87710882  0.76829902  1
  O  O176  1  0.51620232  0.36697801  0.24398371  1
  O  O177  1  0.48435044  0.35521045  0.75296839  1
  O  O178  1  0.48617084  0.87182411  0.27812879  1
  O  O179  1  0.50294316  0.87462838  0.75827438  1
  O  O180  1  0.51141737  0.14317130  0.24799494  1
  O  O181  1  0.48717642  0.12190054  0.73463998  1
  O  O182  1  0.53743547  0.64666526  0.25631822  1
  O  O183  1  0.50689062  0.62414631  0.73895361  1
  O  O184  1  0.99411436  0.12458318  0.24636850  1
  O  O185  1  0.98234614  0.12926266  0.74419718  1
  O  O186  1  0.99664262  0.61637532  0.23513802  1
  O  O187  1  1.00169461  0.64726929  0.75164402  1
  O  O188  1  0.37989789  0.26546411  0.00833480  1
  O  O189  1  0.37602858  0.25642265  0.50785891  1
  O  O190  1  0.36475951  0.75121108  -0.00375679  1
  O  O191  1  0.35757657  0.73719033  0.48854109  1
  O  O192  1  0.88308322  0.26031493  0.00845539  1
  O  O193  1  0.86135332  0.25616920  0.49838995  1
  O  O194  1  0.86046026  0.75598595  0.00190705  1
  O  O195  1  0.88998069  0.78166943  0.51824747  1
  O  O196  1  0.13163935  0.25930898  0.49708007  1
  O  O197  1  0.13939774  0.25603232  0.98740139  1
  O  O198  1  0.12310695  0.73803131  0.49348508  1
  O  O199  1  0.13700282  0.73888320  0.99944970  1
  O  O200  1  0.64005668  0.23601543  0.51159614  1
  O  O201  1  0.61283019  0.23051449  1.00504237  1
  O  O202  1  0.56373139  0.76225699  0.42503230  1
  O  O203  1  0.63475467  0.74274911  1.00000241  1
  O  O204  1  0.48116239  0.25106468  0.13191458  1
  O  O205  1  0.49298319  0.23996310  0.63585073  1
  O  O206  1  0.47877269  0.73891533  0.11568888  1
  O  O207  1  0.46350033  0.74822699  0.63903679  1
  O  O208  1  0.99228476  0.24861521  0.12256865  1
  O  O209  1  1.00063717  0.23511041  0.64585448  1
  O  O210  1  0.99886985  0.73016270  0.11396122  1
  O  O211  1  0.99175502  0.77589675  0.64027374  1
  O  O212  1  -0.00509937  0.26262999  0.36664323  1
  O  O213  1  0.00299361  0.23977109  0.85504613  1
  O  O214  1  0.00981476  0.75939547  0.37594578  1
  O  O215  1  -0.00707981  0.76163093  0.86452704  1
  O  O216  1  0.48826580  0.25329753  0.35794497  1
  O  O217  1  0.44717883  0.22110203  0.84641610  1
  O  O218  1  0.50204241  0.74250924  0.38850821  1
  O  O219  1  0.51550814  0.76058639  0.87743949  1
  O  O220  1  0.24879998  0.14762724  0.50412823  1
  O  O221  1  0.21927223  0.14828921  0.99105134  1
  O  O222  1  0.23342420  0.63434358  0.49665937  1
  O  O223  1  0.23841625  0.63111728  0.99725803  1
  O  O224  1  0.74772001  0.13349496  0.49310077  1
  O  O225  1  0.72992888  0.11780123  0.99797927  1
  O  O226  1  0.78937597  0.60926698  0.49241058  1
  O  O227  1  0.74397642  0.63688933  1.00780347  1
  O  O228  1  0.25875310  0.38742072  0.01166653  1
  O  O229  1  0.24054820  0.38177297  0.51288094  1
  O  O230  1  0.25462445  0.85792543  0.00621140  1
  O  O231  1  0.24755220  0.85492464  0.49836027  1
  O  O232  1  0.76439473  0.37391861  -0.00007878  1
  O  O233  1  0.75886186  0.35889387  0.50345098  1
  O  O234  1  0.75870795  0.86640862  0.00581065  1
  O  O235  1  0.75497924  0.87810459  0.50389222  1
  O  O236  1  0.14150786  0.48731968  0.25919849  1
  O  O237  1  0.12415691  0.49840976  0.73564849  1
  O  O238  1  0.12819860  0.97915205  0.24877288  1
  O  O239  1  0.14418024  1.00053821  0.76182805  1
  O  O240  1  0.61657269  0.48805916  0.23731598  1
  O  O241  1  0.64904443  0.50243110  0.75554151  1
  O  O242  1  0.64038633  0.98937359  0.26409188  1
  O  O243  1  0.61990463  1.00738370  0.73831969  1
  O  O244  1  0.37299790  0.00579858  0.26599153  1
  O  O245  1  0.37504810  -0.01373543  0.76343109  1
  O  O246  1  0.36784507  0.50384240  0.24266395  1
  O  O247  1  0.36214438  0.49332035  0.75902266  1
  O  O248  1  0.86986128  0.02031784  0.25187594  1
  O  O249  1  0.87385063  0.00979257  0.75356559  1
  O  O250  1  0.87486320  0.48838310  0.24921355  1
  O  O251  1  0.86849789  0.53437585  0.71972603  1
  O  O252  1  0.10572218  0.38596520  0.37335871  1
  O  O253  1  0.12348845  0.38741964  0.85646424  1
  O  O254  1  0.12098587  0.86284583  0.36030003  1
  O  O255  1  0.10815172  0.87273486  0.88704024  1
  O  O256  1  0.62877453  0.38582124  0.37014174  1
  O  O257  1  0.64554231  0.36817536  0.84664544  1
  O  O258  1  0.66321928  0.85148987  0.36198726  1
  O  O259  1  0.61754640  0.86538448  0.87713656  1
  O  O260  1  0.35250599  0.14500353  0.11340094  1
  O  O261  1  0.38913290  0.13024000  0.60819535  1
  O  O262  1  0.37358198  0.62927161  0.12293063  1
  O  O263  1  0.38098421  0.61382889  0.63183939  1
  O  O264  1  0.87469735  0.13608028  0.13509750  1
  O  O265  1  0.86493700  0.12184673  0.64187478  1
  O  O266  1  0.88420745  0.62264283  0.13550635  1
  O  O267  1  0.88554368  0.65449289  0.61364601  1
  O  O268  1  0.26300146  0.27298821  0.13458865  1
  O  O269  1  0.25496946  0.26908125  0.61055183  1
  O  O270  1  0.26115768  0.75081208  0.11359897  1
  O  O271  1  0.24573763  0.75784600  0.61227873  1
  O  O272  1  0.76348671  0.25332760  0.11745752  1
  O  O273  1  0.75202478  0.24096689  0.62067477  1
  O  O274  1  0.73964906  0.75154508  0.11929066  1
  O  O275  1  0.76581889  0.77232277  0.63343883  1
  O  O276  1  0.26037657  0.26809902  0.39454073  1
  O  O277  1  0.27728783  0.23286727  0.85406961  1
  O  O278  1  0.23430411  0.74612284  0.38244792  1
  O  O279  1  0.25179684  0.75555139  0.88312347  1
  O  O280  1  0.75306981  0.23516261  0.37895617  1
  O  O281  1  0.75058875  0.22537476  0.89185844  1
  O  O282  1  0.79885817  0.72596770  0.39014935  1
  O  O283  1  0.73902248  0.75655477  0.89169010  1
  O  O284  1  -0.00844919  0.10694896  -0.00408457  1
  O  O285  1  -0.00172417  0.13571726  0.52060785  1
  O  O286  1  0.00810551  0.62013971  0.00129105  1
  O  O287  1  0.00058758  0.63077379  0.49403970  1
  O  O288  1  0.50849627  0.10589608  -0.00345481  1
  O  O289  1  0.51596261  0.13369083  0.50659702  1
  O  O290  1  0.50963641  0.61360416  -0.00165037  1
  O  O291  1  0.50099136  0.61029419  0.52709618  1
  O  O292  1  0.51722836  0.39683302  0.52596960  1
  O  O293  1  0.48419787  0.38802605  1.00111900  1
  O  O294  1  0.54892748  0.85487060  0.49889111  1
  O  O295  1  0.49563847  0.87815692  0.99753453  1
  O  O296  1  0.98637805  0.35856213  0.49048083  1
  O  O297  1  0.99562576  0.38691199  1.00065982  1
  O  O298  1  1.01191920  0.88368519  0.48275106  1
  O  O299  1  0.98994338  0.87755912  0.99664894  1
  O  O300  1  0.50408221  0.50984721  0.40678008  1
  O  O301  1  0.48545648  0.50312709  0.87727817  1
  O  O302  1  0.47876309  1.00484056  0.37260965  1
  O  O303  1  0.49274663  0.98268746  0.87939177  1
  O  O304  1  0.98477476  0.48465700  0.37298013  1
  O  O305  1  0.99316982  0.50917759  0.88813539  1
  O  O306  1  0.98307039  0.98999483  0.36209943  1
  O  O307  1  0.99336895  0.98806369  0.88944548  1
  O  O308  1  0.00110025  -0.00124470  0.11837288  1
  O  O309  1  0.00287483  0.01823426  0.63036929  1
  O  O310  1  -0.00171760  0.51502091  0.10240201  1
  O  O311  1  0.00272043  0.50382519  0.61878970  1
  O  O312  1  0.47879647  -0.00221122  0.11060776  1
  O  O313  1  0.50641416  0.00669096  0.62504314  1
  O  O314  1  0.50832431  0.50269344  0.11307318  1
  O  O315  1  0.51325196  0.51243918  0.63148030  1
  O  O316  1  0.25176148  0.39065742  0.23936685  1
  O  O317  1  0.23165645  0.38793569  0.73587238  1
  O  O318  1  0.24156909  0.86457850  0.23612812  1
  O  O319  1  0.25155908  0.87898242  0.73575793  1
  O  O320  1  0.72922348  0.36739829  0.24700778  1
  O  O321  1  0.77977692  0.38915470  0.75409300  1
  O  O322  1  0.77423064  0.89400031  0.24875924  1
  O  O323  1  0.75745738  0.88058910  0.75272469  1
  O  O324  1  0.16550525  0.11870082  0.15416138  1
  O  O325  1  0.27246126  0.10808198  0.75245339  1
  O  O326  1  0.24195263  0.61108421  0.24993855  1
  O  O327  1  0.23957839  0.61011147  0.74212274  1
  O  O328  1  0.74560054  0.12396901  0.26253709  1
  O  O329  1  0.75301996  0.13029723  0.76292510  1
  O  O330  1  0.77099759  0.62841787  0.25613444  1
  O  O331  1  0.76760072  0.62112703  0.72707435  1
  O  O332  1  0.37163500  0.10573714  0.37550572  1
  O  O333  1  0.37083018  0.09765947  0.88439890  1
  O  O334  1  0.37724301  0.60231277  0.37293866  1
  O  O335  1  0.37260885  0.61555972  0.87367248  1
  O  O336  1  0.87236567  0.12653768  0.36348652  1
  O  O337  1  0.86333083  0.11767227  0.86556608  1
  O  O338  1  0.88638002  0.60595072  0.35493854  1
  O  O339  1  0.86900211  0.63115846  0.86113971  1
  O  O340  1  0.13794500  0.36980572  0.13539044  1
  O  O341  1  0.12394387  0.39200981  0.62622021  1
  O  O342  1  0.13488037  0.86023870  0.13425827  1
  O  O343  1  0.14786114  0.88886304  0.60783068  1
  O  O344  1  0.62476836  0.38802618  0.11136018  1
  O  O345  1  0.63579105  0.36001281  0.66741043  1
  O  O346  1  0.57892591  0.86885011  0.15973896  1
  O  O347  1  0.63833590  0.88424736  0.63378525  1
  O  O348  1  0.14505092  0.28262879  0.27378109  1
  O  O349  1  0.11969549  0.27429810  0.74259888  1
  O  O350  1  0.12735188  0.74635224  0.26090779  1
  O  O351  1  0.11268544  0.75795424  0.74276917  1
  O  O352  1  0.61475867  0.26205215  0.24983811  1
  O  O353  1  0.59508491  0.23370668  0.76203479  1
  O  O354  1  0.59266077  0.70708116  0.25035390  1
  O  O355  1  0.64561121  0.74214983  0.76621251  1
  O  O356  1  0.38193692  0.25469488  0.23986578  1
  O  O357  1  0.36825572  0.24474419  0.72711212  1
  O  O358  1  0.36932010  0.74334056  0.23933796  1
  O  O359  1  0.38250893  0.73476871  0.74405442  1
  O  O360  1  0.87449468  0.23988996  0.23826351  1
  O  O361  1  0.87860158  0.24245187  0.75471923  1
  O  O362  1  0.88532453  0.74167508  0.25091242  1
  O  O363  1  0.88443130  0.75970588  0.73876878  1
  O  O364  1  0.36948841  0.49273505  0.49655920  1
  O  O365  1  0.37779563  0.49766522  0.98570273  1
  O  O366  1  0.36746110  1.00176117  0.47666777  1
  O  O367  1  0.38246650  0.97727150  0.98562089  1
  O  O368  1  0.87545105  0.47358115  0.49350763  1
  O  O369  1  0.88161001  0.48505814  1.00166100  1
  O  O370  1  0.87222509  0.99269262  0.49336176  1
  O  O371  1  0.87908815  0.98650835  1.00675440  1
  O  O372  1  0.11194668  -0.00015497  0.00182014  1
  O  O373  1  0.13859173  0.02155357  0.47582106  1
  O  O374  1  0.11535057  0.51092692  -0.00700271  1
  O  O375  1  0.12272806  0.51505501  0.50818675  1
  O  O376  1  0.60860309  -0.00027262  0.00605572  1
  O  O377  1  0.63107721  0.01455808  0.51315629  1
  O  O378  1  0.61917114  0.50354256  -0.00435558  1
  O  O379  1  0.63675576  0.50501663  0.51731838  1
  O  O380  1  0.36647058  0.37522679  0.11296628  1
  O  O381  1  0.35990549  0.37306534  0.63020948  1
  O  O382  1  0.36821126  0.85641550  0.11798819  1
  O  O383  1  0.35443541  0.88354071  0.60963147  1
  O  O384  1  0.87794468  0.36206955  0.12073903  1
  O  O385  1  0.88317915  0.37299662  0.61557629  1
  O  O386  1  0.88204500  0.86879082  0.11510408  1
  O  O387  1  0.86119050  0.88952382  0.61936471  1
  O  O388  1  0.12243134  0.07352447  0.42545606  1
  O  O389  1  0.12758690  0.13889483  0.84074780  1
  O  O390  1  0.11686648  0.63200048  0.38247754  1
  O  O391  1  0.12113914  0.62623331  0.88442436  1
  O  O392  1  0.63606805  0.11768433  0.38940788  1
  O  O393  1  0.63057585  0.11692679  0.87997413  1
  O  O394  1  0.66254378  0.61943167  0.38599219  1
  O  O395  1  0.62202571  0.63826219  0.88592179  1
