# generated using pymatgen
data_V35Zn35O128
_symmetry_space_group_name_H-M   'P 1'
_cell_length_a   16.83364852
_cell_length_b   16.82077187
_cell_length_c   16.84593838
_cell_angle_alpha   89.96998877
_cell_angle_beta   89.86020704
_cell_angle_gamma   90.09047530
_symmetry_Int_Tables_number   1
_chemical_formula_structural   V35Zn35O128
_chemical_formula_sum   'V70 Zn70 O256'
_cell_volume   4769.99022624
_cell_formula_units_Z   2
loop_
 _symmetry_equiv_pos_site_id
 _symmetry_equiv_pos_as_xyz
  1  'x, y, z'
loop_
 _atom_site_type_symbol
 _atom_site_label
 _atom_site_symmetry_multiplicity
 _atom_site_fract_x
 _atom_site_fract_y
 _atom_site_fract_z
 _atom_site_occupancy
  V  V0  1  0.12524043  0.49616273  0.12743457  1
  V  V1  1  0.88068894  0.10898083  0.25611832  1
  V  V2  1  0.35910302  0.37043696  0.49380655  1
  V  V3  1  0.37365832  0.87554422  0.51089298  1
  V  V4  1  0.24649400  0.62457678  0.37867333  1
  V  V5  1  0.00510350  0.11777644  0.11332203  1
  V  V6  1  0.12594274  0.37444611  0.25911838  1
  V  V7  1  0.13973655  -0.02656079  0.63141509  1
  V  V8  1  0.75004394  0.74159471  0.01023941  1
  V  V9  1  0.63509648  0.86757979  0.73977234  1
  V  V10  1  0.51198006  0.62580146  0.11688717  1
  V  V11  1  0.37150013  0.75097409  0.11392948  1
  V  V12  1  0.01805215  0.24414149  0.75589502  1
  V  V13  1  0.75562663  0.27558310  0.50235715  1
  V  V14  1  0.23025871  0.12541688  0.87608463  1
  V  V15  1  0.37688277  0.26552632  0.11358287  1
  V  V16  1  0.62520719  0.10995260  -0.01798009  1
  V  V17  1  0.00088508  0.25269256  0.25828289  1
  V  V18  1  0.75412781  0.62372420  0.86791339  1
  V  V19  1  0.49058416  0.75060361  0.74013761  1
  V  V20  1  0.87341439  0.25097289  0.12342899  1
  V  V21  1  0.49548385  0.13040924  0.62080933  1
  V  V22  1  0.24708630  0.75545661  0.50962481  1
  V  V23  1  0.13578889  0.00730042  0.12644306  1
  V  V24  1  0.25348229  0.49663198  0.24962392  1
  V  V25  1  0.10682758  0.52652290  0.60961831  1
  V  V26  1  0.60760579  0.62800620  0.50910584  1
  V  V27  1  0.50274851  0.75505488  0.24575239  1
  V  V28  1  0.35972239  0.25146948  0.62579580  1
  V  V29  1  0.36640467  -0.00288181  0.36383616  1
  V  V30  1  0.62600847  0.74408325  0.88020315  1
  V  V31  1  0.50473431  0.48982930  0.00240219  1
  V  V32  1  -0.02874716  0.74127789  0.72081852  1
  V  V33  1  0.23589735  0.25739500  0.00206619  1
  V  V34  1  0.51030395  0.37125095  0.86592080  1
  V  V35  1  0.87604259  0.86470721  0.51234911  1
  V  V36  1  0.50329062  0.88036064  0.88159507  1
  V  V37  1  0.11836055  0.76774248  0.87208639  1
  V  V38  1  0.12845375  0.63391524  0.00649982  1
  V  V39  1  0.51309815  0.37309775  0.36711061  1
  V  V40  1  0.73771848  0.88374659  0.12616677  1
  V  V41  1  0.12919354  0.76486154  0.35605847  1
  V  V42  1  0.86974900  0.37625098  0.00235129  1
  V  V43  1  0.51216139  0.11878398  0.12878666  1
  V  V44  1  0.87990049  0.25350079  0.62500369  1
  V  V45  1  0.50725015  0.87920522  0.36779618  1
  V  V46  1  0.25413846  0.63951014  0.88176254  1
  V  V47  1  0.01334403  0.37898286  0.86522703  1
  V  V48  1  0.37393428  0.62627134  0.74368326  1
  V  V49  1  0.24437137  0.13116191  0.38141816  1
  V  V50  1  0.37690681  0.01285782  0.86096925  1
  V  V51  1  0.48944381  0.49558546  0.51889412  1
  V  V52  1  -0.00102360  0.50552916  0.00516456  1
  V  V53  1  0.37072817  0.13432269  0.24140366  1
  V  V54  1  0.24907067  0.87929562  0.13840211  1
  V  V55  1  0.36856832  0.49372259  0.88507146  1
  V  V56  1  0.74202049  0.12179329  0.38774481  1
  V  V57  1  0.63588616  0.48388573  0.13524144  1
  V  V58  1  0.00506796  0.00095318  0.50945857  1
  V  V59  1  0.87289497  0.50439367  0.86365828  1
  V  V60  1  0.72953222  -0.00224446  0.25201026  1
  V  V61  1  0.88266193  0.88665554  -0.00336768  1
  V  V62  1  0.37115797  0.88993896  -0.00063538  1
  V  V63  1  0.62475178  0.74014646  0.36867020  1
  V  V64  1  0.74242967  0.24688509  -0.01181387  1
  V  V65  1  0.63441639  0.00632249  0.61531085  1
  V  V66  1  0.89241042  0.74219296  0.13544853  1
  V  V67  1  0.75892545  0.00677340  0.75379119  1
  V  V68  1  0.37514550  0.62307100  0.25002285  1
  V  V69  1  -0.00715097  0.87847635  0.36065856  1
  Zn  Zn70  1  0.88119591  0.11966185  0.73724726  1
  Zn  Zn71  1  0.20285990  0.42660726  0.70490722  1
  Zn  Zn72  1  0.75802562  0.74552114  0.48472822  1
  Zn  Zn73  1  0.50533526  0.00566935  0.49443737  1
  Zn  Zn74  1  0.12688593  0.24641700  0.37903348  1
  Zn  Zn75  1  0.51045046  0.25293249  0.74773724  1
  Zn  Zn76  1  0.19255294  0.18939810  0.18687012  1
  Zn  Zn77  1  0.19133314  0.16696949  0.68674385  1
  Zn  Zn78  1  0.18994697  0.68791440  0.18286017  1
  Zn  Zn79  1  0.18518329  0.68739413  0.69185540  1
  Zn  Zn80  1  0.69692065  0.18737572  0.18684868  1
  Zn  Zn81  1  0.69889282  0.18727226  0.67359565  1
  Zn  Zn82  1  0.69569985  0.67834411  0.19648100  1
  Zn  Zn83  1  0.66194281  0.64021805  0.70444595  1
  Zn  Zn84  1  0.31757924  0.31324512  0.31362172  1
  Zn  Zn85  1  0.30588094  0.29194035  0.80786276  1
  Zn  Zn86  1  0.31802258  0.80915215  0.31116430  1
  Zn  Zn87  1  0.30664404  0.81967188  0.81336430  1
  Zn  Zn88  1  0.81421902  0.30041139  0.31873063  1
  Zn  Zn89  1  0.81436360  0.31184463  0.81136298  1
  Zn  Zn90  1  0.81252437  0.81599930  0.30871344  1
  Zn  Zn91  1  0.81922313  0.81333178  0.81541739  1
  Zn  Zn92  1  0.17452329  0.43906781  0.45007564  1
  Zn  Zn93  1  0.19157959  0.43863909  0.94199710  1
  Zn  Zn94  1  0.18543664  0.93926916  0.44179997  1
  Zn  Zn95  1  0.18790929  0.95158236  0.94395626  1
  Zn  Zn96  1  0.67165769  0.43903461  0.45227218  1
  Zn  Zn97  1  0.68656168  0.44106538  0.94451327  1
  Zn  Zn98  1  0.69674271  0.93219125  0.43601877  1
  Zn  Zn99  1  0.69568826  0.93245688  0.93437161  1
  Zn  Zn100  1  0.31171305  0.06890989  0.05506456  1
  Zn  Zn101  1  0.31330307  0.05996680  0.56095101  1
  Zn  Zn102  1  0.31317950  0.55926281  0.06498752  1
  Zn  Zn103  1  0.30594623  0.55724218  0.56107893  1
  Zn  Zn104  1  0.80752022  0.06762101  0.06564215  1
  Zn  Zn105  1  0.82723592  0.05514204  0.56586020  1
  Zn  Zn106  1  0.81321069  0.56361944  0.07271441  1
  Zn  Zn107  1  0.76828508  0.56104214  0.55113280  1
  Zn  Zn108  1  0.44355358  0.43631698  0.19323871  1
  Zn  Zn109  1  0.39743212  0.42227595  0.70601000  1
  Zn  Zn110  1  0.44114341  0.94254944  0.18438047  1
  Zn  Zn111  1  0.44501236  0.94146806  0.68998965  1
  Zn  Zn112  1  0.94173191  0.43725127  0.18678909  1
  Zn  Zn113  1  0.89383868  0.47877645  0.64274206  1
  Zn  Zn114  1  0.93621440  0.92984363  0.17331173  1
  Zn  Zn115  1  0.94521306  0.92185008  0.69128049  1
  Zn  Zn116  1  0.06732054  0.05087462  0.31027004  1
  Zn  Zn117  1  0.07570046  0.06924081  0.77285322  1
  Zn  Zn118  1  0.07176373  0.55922219  0.32921714  1
  Zn  Zn119  1  0.06796231  0.57238830  0.80252618  1
  Zn  Zn120  1  0.55679536  0.07487531  0.31448215  1
  Zn  Zn121  1  0.56427909  0.06070176  0.80149274  1
  Zn  Zn122  1  0.55473581  0.55151895  0.31529237  1
  Zn  Zn123  1  0.55526778  0.55383735  0.80843081  1
  Zn  Zn124  1  0.43249027  0.18674034  0.43647851  1
  Zn  Zn125  1  0.44584763  0.19081185  0.94351699  1
  Zn  Zn126  1  0.43332546  0.68907425  0.43811435  1
  Zn  Zn127  1  0.44129810  0.69047252  0.93731470  1
  Zn  Zn128  1  0.93316462  0.18181278  0.44202352  1
  Zn  Zn129  1  0.94653700  0.19250614  0.93560214  1
  Zn  Zn130  1  0.94354604  0.69333000  0.42102640  1
  Zn  Zn131  1  0.93817255  0.69334788  0.93843349  1
  Zn  Zn132  1  0.05729778  0.31646259  0.06635555  1
  Zn  Zn133  1  0.02198400  0.37407366  0.63767572  1
  Zn  Zn134  1  0.06494281  0.82034335  0.06334470  1
  Zn  Zn135  1  0.05819591  0.80180072  0.55823959  1
  Zn  Zn136  1  0.55998211  0.30581126  0.06665214  1
  Zn  Zn137  1  0.54657112  0.27949132  0.51337158  1
  Zn  Zn138  1  0.56279893  0.81690472  0.06058043  1
  Zn  Zn139  1  0.55654957  0.81406597  0.55715949  1
  O  O140  1  0.11678756  0.11844450  0.12992048  1
  O  O141  1  0.11373981  0.09082767  0.66079639  1
  O  O142  1  0.12836761  0.61768379  0.11325590  1
  O  O143  1  0.11426188  0.62700592  0.62631209  1
  O  O144  1  0.61400574  0.13410645  0.13369741  1
  O  O145  1  0.62599954  0.11101932  0.61925404  1
  O  O146  1  0.61263690  0.62395295  0.12641689  1
  O  O147  1  0.60765106  0.65097833  0.60604372  1
  O  O148  1  0.38554127  0.36495250  0.39052107  1
  O  O149  1  0.38899434  0.39403321  0.87965471  1
  O  O150  1  0.38299483  0.88732902  0.37085862  1
  O  O151  1  0.38017852  0.88306442  0.88589114  1
  O  O152  1  0.86825605  0.40522924  0.33113604  1
  O  O153  1  0.87473336  0.39013424  0.88213440  1
  O  O154  1  0.88958221  0.86998980  0.37567269  1
  O  O155  1  0.86677897  0.87452747  0.89601109  1
  O  O156  1  0.26256869  0.00560347  0.37422006  1
  O  O157  1  0.26806634  0.01536055  0.88522387  1
  O  O158  1  0.24206043  0.51878485  0.36734559  1
  O  O159  1  0.26457539  0.50888668  0.88488492  1
  O  O160  1  0.74812209  0.00546913  0.35909003  1
  O  O161  1  0.74919910  -0.00769205  0.85281654  1
  O  O162  1  0.75000828  0.51296119  0.37109563  1
  O  O163  1  0.75928576  0.51350780  0.88649826  1
  O  O164  1  0.23850987  0.50540631  0.13746479  1
  O  O165  1  0.22405137  0.51325806  0.62205777  1
  O  O166  1  0.24640321  0.99416391  0.12261997  1
  O  O167  1  0.23857253  0.99776950  0.61779968  1
  O  O168  1  0.73597181  0.49528255  0.11814442  1
  O  O169  1  0.78830641  0.48370319  0.61810395  1
  O  O170  1  0.74867479  0.99178988  0.13635214  1
  O  O171  1  0.73889600  0.99830630  0.63112000  1
  O  O172  1  0.00680727  0.35965475  0.24941388  1
  O  O173  1  0.00125308  0.36502842  0.76191976  1
  O  O174  1  -0.00398694  0.88341458  0.26065354  1
  O  O175  1  -0.00079649  0.83902226  0.74609687  1
  O  O176  1  0.49482119  0.36872547  0.26701872  1
  O  O177  1  0.49634540  0.38167699  0.76332388  1
  O  O178  1  0.49538028  0.86565758  0.25255779  1
  O  O179  1  0.50629025  0.86470173  0.76000371  1
  O  O180  1  0.48710556  0.12897920  0.24068659  1
  O  O181  1  0.51498325  0.13376268  0.72881826  1
  O  O182  1  0.49108244  0.63084510  0.23804673  1
  O  O183  1  0.48839288  0.64228144  0.75955112  1
  O  O184  1  0.99143178  0.12926325  0.24606737  1
  O  O185  1  0.98780062  0.14234235  0.78079508  1
  O  O186  1  0.96658105  0.59028895  0.27552772  1
  O  O187  1  0.99956046  0.65256300  0.76766558  1
  O  O188  1  0.37126617  0.24958748  0.01015030  1
  O  O189  1  0.37547801  0.25882608  0.51131037  1
  O  O190  1  0.38227263  0.76214829  0.00955084  1
  O  O191  1  0.36730117  0.76672727  0.49188481  1
  O  O192  1  0.87159011  0.25524129  0.00401768  1
  O  O193  1  0.86958537  0.24756194  0.50983840  1
  O  O194  1  0.86240888  0.75736653  0.00843965  1
  O  O195  1  0.87564499  0.75336387  0.48573890  1
  O  O196  1  0.11611762  0.25764785  0.50197730  1
  O  O197  1  0.13509821  0.25152029  1.01334081  1
  O  O198  1  0.14493988  0.75698793  0.48508693  1
  O  O199  1  0.12443980  0.73617233  1.00080973  1
  O  O200  1  0.65742315  0.25486416  0.51574068  1
  O  O201  1  0.63982946  0.25201149  0.99957578  1
  O  O202  1  0.60957521  0.74466715  0.48067960  1
  O  O203  1  0.63795359  0.75898177  0.99077420  1
  O  O204  1  0.48338313  0.23766797  0.12020162  1
  O  O205  1  0.50535931  0.23769514  0.61651760  1
  O  O206  1  0.49687444  0.74183683  0.12651376  1
  O  O207  1  0.49475752  0.75860071  0.64135919  1
  O  O208  1  0.99475928  0.23904208  0.13548899  1
  O  O209  1  0.99768654  0.24478431  0.65256910  1
  O  O210  1  0.99201901  0.75688407  0.12831214  1
  O  O211  1  0.99077578  0.73284345  0.61899218  1
  O  O212  1  0.00241364  0.23848422  0.36138026  1
  O  O213  1  -0.00457436  0.27096996  0.87149358  1
  O  O214  1  0.02065185  0.76222710  0.37331796  1
  O  O215  1  0.01848848  0.75718891  0.88924292  1
  O  O216  1  0.50848082  0.26650164  0.40166177  1
  O  O217  1  0.49755401  0.26746798  0.87298784  1
  O  O218  1  0.50110538  0.75848691  0.36212181  1
  O  O219  1  0.50976282  0.75869825  0.87278581  1
  O  O220  1  0.25794521  0.12366705  0.48038121  1
  O  O221  1  0.25236056  0.13678495  0.98801556  1
  O  O222  1  0.26707194  0.63979719  0.48244414  1
  O  O223  1  0.23876875  0.61963647  0.99510536  1
  O  O224  1  0.75528748  0.10494250  0.48560535  1
  O  O225  1  0.73517229  0.13543680  1.00687904  1
  O  O226  1  0.71837071  0.63628024  0.49147377  1
  O  O227  1  0.74973481  0.63937916  1.00128173  1
  O  O228  1  0.25083686  0.35867362  -0.00458153  1
  O  O229  1  0.25944018  0.37371356  0.48734710  1
  O  O230  1  0.26886123  0.88088330  0.00917493  1
  O  O231  1  0.26377766  0.86746786  0.49420034  1
  O  O232  1  0.76087695  0.36369851  -0.00419708  1
  O  O233  1  0.76083930  0.37454136  0.48355351  1
  O  O234  1  0.75347243  0.86824732  0.01342329  1
  O  O235  1  0.76781860  0.86421045  0.49177084  1
  O  O236  1  0.12834683  0.49604596  0.24858785  1
  O  O237  1  0.11721027  0.50322114  0.73090651  1
  O  O238  1  0.12040522  0.99371164  0.22781557  1
  O  O239  1  0.11711683  0.97134314  0.73787931  1
  O  O240  1  0.62015599  0.50629591  0.23357680  1
  O  O241  1  0.63053178  0.53560725  0.73198453  1
  O  O242  1  0.63122291  1.00464154  0.25026414  1
  O  O243  1  0.63403144  0.98555379  0.73920160  1
  O  O244  1  0.37935766  0.00957839  0.25955693  1
  O  O245  1  0.37432280  -0.00317795  0.76181178  1
  O  O246  1  0.36573735  0.51116468  0.24076355  1
  O  O247  1  0.38922696  0.52214165  0.77459466  1
  O  O248  1  0.87501209  0.00922712  0.24297619  1
  O  O249  1  0.86305161  -0.00478628  0.73501422  1
  O  O250  1  0.85542391  0.44908513  0.26720661  1
  O  O251  1  0.87612770  0.50009481  0.76650830  1
  O  O252  1  0.12466618  0.37323598  0.36446276  1
  O  O253  1  0.11178054  0.38938193  0.87397502  1
  O  O254  1  0.12704814  0.86866371  0.36891914  1
  O  O255  1  0.14066231  0.86425324  0.89005280  1
  O  O256  1  0.61549129  0.37994809  0.37596547  1
  O  O257  1  0.60965880  0.38847005  0.87741697  1
  O  O258  1  0.61167117  0.86668405  0.37769247  1
  O  O259  1  0.62136550  0.86679050  0.86450134  1
  O  O260  1  0.38104577  0.12412472  0.13365045  1
  O  O261  1  0.38721232  0.13270745  0.61939235  1
  O  O262  1  0.37863484  0.63429595  0.12987041  1
  O  O263  1  0.36575877  0.61806059  0.64587352  1
  O  O264  1  0.88563377  0.13044410  0.13376554  1
  O  O265  1  0.87933351  0.14077952  0.62231807  1
  O  O266  1  0.88049575  0.64108044  0.11819297  1
  O  O267  1  0.82381325  0.66966518  0.61997679  1
  O  O268  1  0.26402616  0.24380997  0.11353415  1
  O  O269  1  0.26073620  0.23664655  0.62910165  1
  O  O270  1  0.26210571  0.76404875  0.12834785  1
  O  O271  1  0.24780179  0.74185795  0.60772825  1
  O  O272  1  0.76813436  0.24486169  0.11476881  1
  O  O273  1  0.76929459  0.26187025  0.61623122  1
  O  O274  1  0.74524139  0.75615114  0.11781115  1
  O  O275  1  0.76729034  0.71784642  0.62862456  1
  O  O276  1  0.24763476  0.23667110  0.36862661  1
  O  O277  1  0.24847656  0.23991280  0.88973662  1
  O  O278  1  0.24471975  0.74552412  0.37286957  1
  O  O279  1  0.24890173  0.74200196  0.88721051  1
  O  O280  1  0.76287913  0.23338146  0.39459550  1
  O  O281  1  0.76116440  0.24352868  0.88975646  1
  O  O282  1  0.72755397  0.75492740  0.36433968  1
  O  O283  1  0.74774434  0.74131654  0.88751966  1
  O  O284  1  -0.00034391  0.13124104  0.01488082  1
  O  O285  1  -0.00690228  0.10015598  0.49328460  1
  O  O286  1  0.01578815  0.61335390  -0.01050749  1
  O  O287  1  -0.04044600  0.58002128  0.46125650  1
  O  O288  1  0.52094950  0.13184288  0.01272129  1
  O  O289  1  0.50109050  0.12197358  0.51054398  1
  O  O290  1  0.49824924  0.62180755  0.01356111  1
  O  O291  1  0.49666160  0.61193968  0.49279227  1
  O  O292  1  0.49908463  0.38896042  0.49986207  1
  O  O293  1  0.49986079  0.38687280  0.99494836  1
  O  O294  1  0.48689112  0.87616926  0.48558483  1
  O  O295  1  0.49264800  0.87363100  0.99018224  1
  O  O296  1  1.05034100  0.29248794  0.51338145  1
  O  O297  1  0.99312728  0.38445141  0.98954173  1
  O  O298  1  0.99110304  0.87335556  0.48976332  1
  O  O299  1  0.98289190  0.87801094  1.01096807  1
  O  O300  1  0.49582120  0.48340073  0.38438712  1
  O  O301  1  0.49603771  0.50235645  0.89145962  1
  O  O302  1  0.49277716  0.99536734  0.37336796  1
  O  O303  1  0.49384101  0.98727231  0.86430220  1
  O  O304  1  0.99220433  0.52394972  0.41968393  1
  O  O305  1  0.98812064  0.49487553  0.88143570  1
  O  O306  1  1.01309112  0.98212753  0.38706141  1
  O  O307  1  0.94811012  1.02653767  0.88520448  1
  O  O308  1  0.00351081  0.01457420  0.12650546  1
  O  O309  1  0.00723952  -0.01433681  0.61438839  1
  O  O310  1  0.00827543  0.50011754  0.11738774  1
  O  O311  1  0.00158474  0.49739000  0.61970744  1
  O  O312  1  0.50213872  0.01787440  0.12533862  1
  O  O313  1  0.51279911  0.01058357  0.62475997  1
  O  O314  1  0.49994480  0.51080280  0.11811843  1
  O  O315  1  0.48556815  0.49647544  0.61684317  1
  O  O316  1  0.24463361  0.38846340  0.25876427  1
  O  O317  1  0.29200073  0.38840004  0.75364640  1
  O  O318  1  0.26442089  0.88033224  0.23675288  1
  O  O319  1  0.25147269  0.87303340  0.73495856  1
  O  O320  1  0.71715056  0.33917329  0.25524557  1
  O  O321  1  0.72424984  0.37557446  0.75575837  1
  O  O322  1  0.75070376  0.88927025  0.24057107  1
  O  O323  1  0.73691550  0.87171849  0.74837692  1
  O  O324  1  0.26511403  0.12331148  0.25538484  1
  O  O325  1  0.25888648  0.13773650  0.77840430  1
  O  O326  1  0.25589372  0.61945507  0.25453657  1
  O  O327  1  0.26387001  0.63399044  0.76964031  1
  O  O328  1  0.76135149  0.11336351  0.25067584  1
  O  O329  1  0.75358096  0.11084318  0.74626991  1
  O  O330  1  0.76797038  0.60976012  0.24222711  1
  O  O331  1  0.75847359  0.63131131  0.76954139  1
  O  O332  1  0.37084685  0.11775088  0.36356316  1
  O  O333  1  0.39512737  0.11140018  0.87625016  1
  O  O334  1  0.36357535  0.63754783  0.35706922  1
  O  O335  1  0.36412217  0.62354422  0.88307464  1
  O  O336  1  0.86747695  0.12320474  0.35891873  1
  O  O337  1  0.89712789  0.08038804  0.89170147  1
  O  O338  1  0.91090968  0.62337628  0.31667236  1
  O  O339  1  0.86628546  0.61471109  0.88734580  1
  O  O340  1  0.11999315  0.38725263  0.14004774  1
  O  O341  1  0.12922646  0.39925218  0.61948279  1
  O  O342  1  0.14582291  0.87654488  0.12459253  1
  O  O343  1  0.12911143  0.87353724  0.61419951  1
  O  O344  1  0.61594721  0.38490585  0.12683934  1
  O  O345  1  0.66388891  0.34710677  0.71791823  1
  O  O346  1  0.63773826  0.87361162  0.12513963  1
  O  O347  1  0.61744327  0.87674213  0.63653747  1
  O  O348  1  0.11605473  0.25564258  0.24827782  1
  O  O349  1  0.11735491  0.24194105  0.75332461  1
  O  O350  1  0.13180745  0.75283746  0.25623523  1
  O  O351  1  0.13606349  0.75173736  0.77270301  1
  O  O352  1  0.66251992  0.28511971  0.25047675  1
  O  O353  1  0.63961846  0.26671652  0.74170688  1
  O  O354  1  0.61255810  0.74246234  0.25535432  1
  O  O355  1  0.61562780  0.75483272  0.75608953  1
  O  O356  1  0.36970415  0.24038597  0.23623930  1
  O  O357  1  0.38860956  0.25563469  0.72771806  1
  O  O358  1  0.38509943  0.74449792  0.23629293  1
  O  O359  1  0.38399208  0.74415800  0.76033361  1
  O  O360  1  0.88521123  0.24381579  0.24389908  1
  O  O361  1  0.87157239  0.24666577  0.73897255  1
  O  O362  1  0.86857070  0.75090895  0.23464033  1
  O  O363  1  0.87054582  0.74585666  0.74433196  1
  O  O364  1  0.37783360  0.48507676  0.50413657  1
  O  O365  1  0.38819973  0.50652166  0.99452182  1
  O  O366  1  0.37690391  0.98932987  0.48500894  1
  O  O367  1  0.38262224  0.99247864  0.99561723  1
  O  O368  1  0.81219062  0.53063430  0.40780587  1
  O  O369  1  0.88263711  0.49345986  1.00243995  1
  O  O370  1  0.88877659  0.97809328  0.50530829  1
  O  O371  1  0.86420678  0.98579484  1.01412027  1
  O  O372  1  0.11965763  -0.00811153  0.02466968  1
  O  O373  1  0.11496217  -0.00586177  0.51278635  1
  O  O374  1  0.11933945  0.50365956  0.01017133  1
  O  O375  1  0.11877460  0.51750650  0.50446488  1
  O  O376  1  0.63392187  0.01064669  -0.00505333  1
  O  O377  1  0.62563332  -0.01676029  0.51347770  1
  O  O378  1  0.61039949  0.50153465  0.01417895  1
  O  O379  1  0.61079550  0.51748250  0.50817588  1
  O  O380  1  0.38090017  0.36487424  0.12636503  1
  O  O381  1  0.37280858  0.36105270  0.60942715  1
  O  O382  1  0.37442262  0.87366388  0.11551750  1
  O  O383  1  0.38289535  0.88418198  0.60916490  1
  O  O384  1  0.88724046  0.36439034  0.11231664  1
  O  O385  1  0.90632975  0.35609419  0.61837969  1
  O  O386  1  0.86069574  0.86125081  0.11850657  1
  O  O387  1  0.87712373  0.86071497  0.61123458  1
  O  O388  1  0.14023362  0.12190034  0.36707632  1
  O  O389  1  0.13170908  0.10613519  0.87169449  1
  O  O390  1  0.13968063  0.64151520  0.37134599  1
  O  O391  1  0.14006600  0.62810669  0.88603016  1
  O  O392  1  0.64228691  0.12717750  0.37058449  1
  O  O393  1  0.61781559  0.12276255  0.88316116  1
  O  O394  1  0.61013051  0.63728242  0.37605048  1
  O  O395  1  0.63768758  0.63595268  0.87412370  1
