# generated using pymatgen
data_V35Zn35O128
_symmetry_space_group_name_H-M   'P 1'
_cell_length_a   16.84139386
_cell_length_b   16.84181284
_cell_length_c   16.86430693
_cell_angle_alpha   90.10794822
_cell_angle_beta   90.14160445
_cell_angle_gamma   89.95055112
_symmetry_Int_Tables_number   1
_chemical_formula_structural   V35Zn35O128
_chemical_formula_sum   'V70 Zn70 O256'
_cell_volume   4783.36046855
_cell_formula_units_Z   2
loop_
 _symmetry_equiv_pos_site_id
 _symmetry_equiv_pos_as_xyz
  1  'x, y, z'
loop_
 _atom_site_type_symbol
 _atom_site_label
 _atom_site_symmetry_multiplicity
 _atom_site_fract_x
 _atom_site_fract_y
 _atom_site_fract_z
 _atom_site_occupancy
  V  V0  1  0.51073545  0.23526295  0.74568150  1
  V  V1  1  0.35630651  0.11195795  0.76486607  1
  V  V2  1  0.90354960  0.13088630  0.75424070  1
  V  V3  1  0.74419720  0.89811820  0.12977946  1
  V  V4  1  0.11492931  0.75823016  0.37478222  1
  V  V5  1  0.86966251  0.37332527  0.00962580  1
  V  V6  1  0.75152085  0.36401998  0.59500921  1
  V  V7  1  0.51262653  0.74066491  0.25060766  1
  V  V8  1  0.25789416  0.62790715  0.36063152  1
  V  V9  1  0.75128324  0.48769086  0.75596166  1
  V  V10  1  0.73665470  -0.00817657  0.74202448  1
  V  V11  1  0.89586182  0.25053217  0.61031709  1
  V  V12  1  -0.00874876  0.76094213  0.25590292  1
  V  V13  1  0.25714562  0.73336282  -0.00570895  1
  V  V14  1  -0.01428799  0.49498403  0.48639282  1
  V  V15  1  0.25175355  0.37562943  0.10272398  1
  V  V16  1  0.74333974  0.75912754  0.49569458  1
  V  V17  1  0.37557868  0.50043174  0.87456371  1
  V  V18  1  0.63504076  0.63487222  -0.01405581  1
  V  V19  1  0.61876941  0.62371178  0.51593817  1
  V  V20  1  -0.00841858  0.63315199  0.63145984  1
  V  V21  1  0.89032325  0.87643245  0.48917304  1
  V  V22  1  0.13016961  -0.00801162  0.12818664  1
  V  V23  1  0.37786650  0.62848273  0.75017253  1
  V  V24  1  -0.00474144  0.13270290  0.14711308  1
  V  V25  1  0.84459615  0.24929137  0.13999135  1
  V  V26  1  0.37344302  0.87841753  0.49882033  1
  V  V27  1  0.73890040  0.61064964  0.37692423  1
  V  V28  1  0.24966910  0.74910328  0.49963850  1
  V  V29  1  0.12096309  0.62569847  0.49650335  1
  V  V30  1  0.51737406  0.74821006  0.74885676  1
  V  V31  1  0.36155203  0.24990305  0.63127254  1
  V  V32  1  0.49563073  0.49389601  0.51212089  1
  V  V33  1  0.61460757  0.35695752  0.28561435  1
  V  V34  1  0.25090274  0.26590134  0.49451429  1
  V  V35  1  0.86768402  0.61080896  0.26039088  1
  V  V36  1  0.01390253  0.34617305  0.32299378  1
  V  V37  1  0.11975155  0.01776576  0.63314848  1
  V  V38  1  0.85495558  0.74247959  0.12801153  1
  V  V39  1  0.62817878  0.89284049  0.25062507  1
  V  V40  1  0.86734901  0.87372365  0.00705570  1
  V  V41  1  0.50339873  0.12283196  0.13162667  1
  V  V42  1  0.35597751  0.12880627  0.24290410  1
  V  V43  1  0.38185413  0.74795126  0.62619965  1
  V  V44  1  0.63005622  0.14037430  -0.00442632  1
  V  V45  1  0.37477718  0.88385710  -0.00797696  1
  V  V46  1  0.37329970  0.25437829  0.10625559  1
  V  V47  1  0.64243316  0.48810733  0.12930717  1
  V  V48  1  0.12475474  0.49168191  0.62179815  1
  V  V49  1  -0.00847341  0.01182718  0.00868370  1
  V  V50  1  0.87263626  0.75829332  0.63322159  1
  V  V51  1  0.50382944  0.00717691  0.50736756  1
  V  V52  1  0.50386959  0.61975440  0.12038890  1
  V  V53  1  0.13500904  0.12736924  0.47544881  1
  V  V54  1  0.87254450  -0.00165892  0.87623436  1
  V  V55  1  0.25135009  0.48853370  0.24272707  1
  V  V56  1  0.51313379  0.00105679  -0.00604453  1
  V  V57  1  0.24496083  0.87962105  0.63883885  1
  V  V58  1  0.36122199  -0.00561394  0.35623514  1
  V  V59  1  0.24759593  0.49864154  0.73980243  1
  V  V60  1  0.86824970  0.02290896  0.35921420  1
  V  V61  1  0.51928161  0.87244516  0.86821129  1
  V  V62  1  0.74743307  0.13844667  0.87212997  1
  V  V63  1  0.50573478  0.87173089  0.37287384  1
  V  V64  1  0.51874070  0.37215295  0.86130976  1
  V  V65  1  0.38165081  0.48449103  0.37484702  1
  V  V66  1  0.50537214  0.49305459  -0.00574096  1
  V  V67  1  0.38217967  0.75443894  0.12578324  1
  V  V68  1  0.02058222  0.61930265  0.12707443  1
  V  V69  1  0.78017352  0.63144555  0.86986788  1
  Zn  Zn70  1  0.11664797  0.84030722  0.76427271  1
  Zn  Zn71  1  0.00022403  0.85089792  0.87056434  1
  Zn  Zn72  1  0.14170479  0.88060572  0.24811848  1
  Zn  Zn73  1  0.01486547  0.37045101  0.90789104  1
  Zn  Zn74  1  0.19000808  0.66818929  0.84691861  1
  Zn  Zn75  1  0.00091736  0.01346536  0.49676296  1
  Zn  Zn76  1  0.17643851  0.18207327  0.16820669  1
  Zn  Zn77  1  0.18622471  0.19150822  0.69392374  1
  Zn  Zn78  1  0.19345062  0.71681661  0.18922187  1
  Zn  Zn79  1  0.18935313  0.68424125  0.67956820  1
  Zn  Zn80  1  0.65474351  0.21800564  0.18495135  1
  Zn  Zn81  1  0.70925060  0.20121887  0.69521909  1
  Zn  Zn82  1  0.68298602  0.67673954  0.18942453  1
  Zn  Zn83  1  0.69984945  0.68639960  0.68869969  1
  Zn  Zn84  1  0.25322953  0.28038806  0.29324902  1
  Zn  Zn85  1  0.33793315  0.33349469  0.77999037  1
  Zn  Zn86  1  0.31392280  0.81091071  0.30736522  1
  Zn  Zn87  1  0.32353499  0.81771306  0.81716527  1
  Zn  Zn88  1  0.82193134  0.36093853  0.30006665  1
  Zn  Zn89  1  0.83278107  0.31833211  0.81992547  1
  Zn  Zn90  1  0.80467158  0.81135799  0.31689790  1
  Zn  Zn91  1  0.80527039  0.81348126  0.81784174  1
  Zn  Zn92  1  0.17767409  0.43808179  0.42572218  1
  Zn  Zn93  1  0.19432383  0.44443888  0.92790754  1
  Zn  Zn94  1  0.18373749  0.93977384  0.44218633  1
  Zn  Zn95  1  0.15955327  0.89065214  0.97219555  1
  Zn  Zn96  1  0.68239716  0.43733203  0.44483578  1
  Zn  Zn97  1  0.69683497  0.44365686  0.93549439  1
  Zn  Zn98  1  0.69099570  0.94701942  0.43993288  1
  Zn  Zn99  1  0.69198216  0.94254667  0.93769373  1
  Zn  Zn100  1  0.31338571  0.05699850  0.05880292  1
  Zn  Zn101  1  0.30828095  0.06914005  0.57317591  1
  Zn  Zn102  1  0.31777454  0.56462624  0.06205410  1
  Zn  Zn103  1  0.31611949  0.56218351  0.56012500  1
  Zn  Zn104  1  0.81298392  0.07624490  0.06865866  1
  Zn  Zn105  1  0.83180802  0.05759821  0.57907142  1
  Zn  Zn106  1  0.81881328  0.55824664  0.05357854  1
  Zn  Zn107  1  0.80582331  0.55718052  0.57097760  1
  Zn  Zn108  1  0.43679604  0.43648636  0.19369541  1
  Zn  Zn109  1  0.44626159  0.43639315  0.68359261  1
  Zn  Zn110  1  0.44572221  0.93629243  0.17995656  1
  Zn  Zn111  1  0.43843936  0.93982618  0.69212252  1
  Zn  Zn112  1  0.93167598  0.44171330  0.17452805  1
  Zn  Zn113  1  0.92277069  0.44476653  0.67162453  1
  Zn  Zn114  1  0.93099843  0.94117370  0.19078620  1
  Zn  Zn115  1  0.94294832  0.93516247  0.69013429  1
  Zn  Zn116  1  0.05827309  0.05193217  0.31554571  1
  Zn  Zn117  1  0.08758326  0.00862949  0.83688973  1
  Zn  Zn118  1  0.06113352  0.55905551  0.29855524  1
  Zn  Zn119  1  0.04494493  0.54949524  0.80313397  1
  Zn  Zn120  1  0.55185388  0.06231584  0.31879556  1
  Zn  Zn121  1  0.56184374  0.06381912  0.81154319  1
  Zn  Zn122  1  0.56381646  0.55170646  0.31436354  1
  Zn  Zn123  1  0.57267898  0.56122955  0.79959171  1
  Zn  Zn124  1  0.40186133  0.17642766  0.44164260  1
  Zn  Zn125  1  0.43758368  0.18833717  0.92753944  1
  Zn  Zn126  1  0.44125917  0.68755014  0.43660724  1
  Zn  Zn127  1  0.44605200  0.68858010  0.93421108  1
  Zn  Zn128  1  0.94875536  0.18915962  0.42106190  1
  Zn  Zn129  1  0.92195509  0.20311771  0.94539052  1
  Zn  Zn130  1  0.92968766  0.68417252  0.44073448  1
  Zn  Zn131  1  0.94885982  0.68487987  0.94437264  1
  Zn  Zn132  1  0.04564210  0.33861244  0.11351769  1
  Zn  Zn133  1  0.06388522  0.30891753  0.54952471  1
  Zn  Zn134  1  0.04961647  0.79916836  0.05606141  1
  Zn  Zn135  1  0.06045158  0.81397340  0.56597322  1
  Zn  Zn136  1  0.55401939  0.31552993  0.06238788  1
  Zn  Zn137  1  0.55278937  0.31017736  0.57071728  1
  Zn  Zn138  1  0.57039618  0.81399311  0.06223155  1
  Zn  Zn139  1  0.56780794  0.82108960  0.56455082  1
  O  O140  1  0.10732394  0.10319178  0.12278755  1
  O  O141  1  0.12469897  0.11953241  0.62698928  1
  O  O142  1  0.11845384  0.64633110  0.13196597  1
  O  O143  1  0.11405221  0.62600633  0.61165221  1
  O  O144  1  0.60920731  0.13172102  0.11489168  1
  O  O145  1  0.66626957  0.14126075  0.57555284  1
  O  O146  1  0.61987402  0.61452280  0.11202583  1
  O  O147  1  0.63299220  0.62486181  0.61415248  1
  O  O148  1  0.37602472  0.38880799  0.37868382  1
  O  O149  1  0.38904404  0.39580217  0.86296744  1
  O  O150  1  0.38122256  0.87648447  0.37659240  1
  O  O151  1  0.39622618  0.87324704  0.88813772  1
  O  O152  1  0.91990665  0.38253738  0.35142310  1
  O  O153  1  0.90815800  0.32012740  0.90517013  1
  O  O154  1  0.87086563  0.87496513  0.38834488  1
  O  O155  1  0.87058699  0.88128165  0.89184633  1
  O  O156  1  0.26286643  -0.01792140  0.36794727  1
  O  O157  1  0.21708617  0.06717896  0.92773156  1
  O  O158  1  0.25906719  0.51281344  0.36934317  1
  O  O159  1  0.26920732  0.50574041  0.86050702  1
  O  O160  1  0.76977583  0.00237029  0.38704674  1
  O  O161  1  0.75905247  0.00835144  0.87032611  1
  O  O162  1  0.74900822  0.51126245  0.38215793  1
  O  O163  1  0.75663229  0.51190185  0.86322962  1
  O  O164  1  0.27244793  0.48851373  0.13422811  1
  O  O165  1  0.24031069  0.50978461  0.62996051  1
  O  O166  1  0.22907594  0.99798548  0.11012105  1
  O  O167  1  0.23906372  0.98374224  0.61761713  1
  O  O168  1  0.74077155  0.50158621  0.11847617  1
  O  O169  1  0.74809729  0.46861146  0.61883993  1
  O  O170  1  0.75154881  0.99660519  0.13194908  1
  O  O171  1  0.75556241  1.00558682  0.64348572  1
  O  O172  1  0.01019634  0.36708104  0.21957768  1
  O  O173  1  -0.00805031  0.40398594  0.75721560  1
  O  O174  1  -0.00842455  0.86119769  0.24979757  1
  O  O175  1  0.00333875  0.86986142  0.75913404  1
  O  O176  1  0.52371447  0.39009612  0.24711965  1
  O  O177  1  0.50752110  0.36668854  0.75543492  1
  O  O178  1  0.51228318  0.86828397  0.25106672  1
  O  O179  1  0.50061620  0.86917416  0.76209230  1
  O  O180  1  0.49065045  0.11574526  0.23396852  1
  O  O181  1  0.48789489  0.13367033  0.75984440  1
  O  O182  1  0.50959760  0.63586921  0.24098790  1
  O  O183  1  0.49725572  0.64158287  0.74883030  1
  O  O184  1  1.00157337  0.12494789  0.24555486  1
  O  O185  1  0.99874021  0.11582045  0.77187984  1
  O  O186  1  0.97999369  0.63348808  0.24683945  1
  O  O187  1  0.99564710  0.62015719  0.73033505  1
  O  O188  1  0.37703589  0.24646229  0.00690905  1
  O  O189  1  0.36542428  0.24905834  0.52223624  1
  O  O190  1  0.37761990  0.75814252  0.00231865  1
  O  O191  1  0.36983989  0.75787898  0.50509739  1
  O  O192  1  0.87465067  0.25505256  0.03458032  1
  O  O193  1  0.89000020  0.23251176  0.51229627  1
  O  O194  1  0.87134310  0.75841286  0.02476691  1
  O  O195  1  0.86738359  0.76202112  0.50313671  1
  O  O196  1  0.14130864  0.24145956  0.49626352  1
  O  O197  1  0.10510625  0.21438839  0.96262735  1
  O  O198  1  0.12986788  0.74541742  0.49450790  1
  O  O199  1  0.16371612  0.77383330  1.01218445  1
  O  O200  1  0.56143686  0.24170193  0.46283521  1
  O  O201  1  0.61781247  0.23877007  0.99923636  1
  O  O202  1  0.63639791  0.74074730  0.50396099  1
  O  O203  1  0.62761870  0.73385889  1.00441292  1
  O  O204  1  0.48708543  0.23430738  0.11929224  1
  O  O205  1  0.48781494  0.24738970  0.64088906  1
  O  O206  1  0.50243748  0.74249722  0.13027127  1
  O  O207  1  0.48972986  0.76648986  0.63769923  1
  O  O208  1  1.01670824  0.22809773  0.12410073  1
  O  O209  1  0.99607745  0.26270362  0.62934446  1
  O  O210  1  0.98495002  0.74115977  0.14168793  1
  O  O211  1  0.99083197  0.74097964  0.62228493  1
  O  O212  1  0.01501567  0.24888412  0.35216642  1
  O  O213  1  0.05045075  0.22190371  0.91347042  1
  O  O214  1  0.00137387  0.74332775  0.36684818  1
  O  O215  1  0.02024307  0.76918749  0.94389474  1
  O  O216  1  0.50627959  0.24917799  0.41254537  1
  O  O217  1  0.49778081  0.26482716  0.86260783  1
  O  O218  1  0.49254010  0.75774079  0.35730738  1
  O  O219  1  0.50436070  0.76063475  0.86144554  1
  O  O220  1  0.24166750  0.13320960  0.50433661  1
  O  O221  1  0.24791637  0.12009456  0.97980437  1
  O  O222  1  0.24278859  0.63652386  0.49840645  1
  O  O223  1  0.25121436  0.63242280  0.99645353  1
  O  O224  1  0.72188109  0.12486445  0.52906087  1
  O  O225  1  0.73761328  0.12250344  0.99091635  1
  O  O226  1  0.73929000  0.62626133  0.49328559  1
  O  O227  1  0.74260184  0.61429222  0.98312603  1
  O  O228  1  0.26255017  0.39237837  0.00409543  1
  O  O229  1  0.23844029  0.36618406  0.49401249  1
  O  O230  1  0.27442593  0.88240001  -0.00837936  1
  O  O231  1  0.25529411  0.86356649  0.50311446  1
  O  O232  1  0.77180299  0.36942075  -0.02198698  1
  O  O233  1  0.75701916  0.36580947  0.49435743  1
  O  O234  1  0.75194964  0.88350701  0.02020669  1
  O  O235  1  0.74948097  0.86141167  0.49732891  1
  O  O236  1  0.15331472  0.51141213  0.25037802  1
  O  O237  1  0.13755694  0.51315579  0.73354766  1
  O  O238  1  0.11754547  0.99130130  0.23596102  1
  O  O239  1  0.13000036  1.00117825  0.73109127  1
  O  O240  1  0.62550089  0.50914041  0.22872491  1
  O  O241  1  0.64881448  0.50612245  0.73854226  1
  O  O242  1  0.61852662  0.99166879  0.25023848  1
  O  O243  1  0.63614427  1.00468688  0.75199016  1
  O  O244  1  0.37560480  -0.00603424  0.25247556  1
  O  O245  1  0.37152644  0.01165553  0.74619129  1
  O  O246  1  0.36764786  0.50310642  0.26469955  1
  O  O247  1  0.37033513  0.51059982  0.74773480  1
  O  O248  1  0.86746256  0.00401017  0.25920597  1
  O  O249  1  0.87447754  0.01069821  0.76133081  1
  O  O250  1  0.86891102  0.51252936  0.24553800  1
  O  O251  1  0.84684738  0.51646112  0.71791966  1
  O  O252  1  0.10021029  0.39047280  0.36004737  1
  O  O253  1  0.12755773  0.36488652  0.87275208  1
  O  O254  1  0.12849516  0.86127131  0.37448570  1
  O  O255  1  0.11922633  0.89956021  0.86793751  1
  O  O256  1  0.60702192  0.37794149  0.38441340  1
  O  O257  1  0.61663580  0.38061871  0.87462457  1
  O  O258  1  0.61590522  0.87966301  0.36271678  1
  O  O259  1  0.61880719  0.87298031  0.88022563  1
  O  O260  1  0.38021810  0.12940413  0.12624040  1
  O  O261  1  0.36789408  0.13758900  0.64253170  1
  O  O262  1  0.39603860  0.63792255  0.11337403  1
  O  O263  1  0.37046230  0.64032024  0.63204965  1
  O  O264  1  0.88161420  0.14007230  0.13620844  1
  O  O265  1  0.88765109  0.13413679  0.64453041  1
  O  O266  1  0.86007946  0.63517155  0.13864462  1
  O  O267  1  0.88676512  0.63838640  0.61125838  1
  O  O268  1  0.26269876  0.26051820  0.11509459  1
  O  O269  1  0.25399383  0.25386136  0.62230267  1
  O  O270  1  0.27997016  0.73885059  0.10992294  1
  O  O271  1  0.25867715  0.75820401  0.61627240  1
  O  O272  1  0.74558847  0.23236546  0.12707945  1
  O  O273  1  0.77970342  0.25674863  0.63146569  1
  O  O274  1  0.75368571  0.75437756  0.13511215  1
  O  O275  1  0.76598359  0.74041265  0.60917553  1
  O  O276  1  0.27887054  0.24624399  0.39797751  1
  O  O277  1  0.16633033  0.29527372  0.82992871  1
  O  O278  1  0.24250029  0.74242311  0.38345311  1
  O  O279  1  0.26543586  0.74692371  0.88851778  1
  O  O280  1  0.72212629  0.20521835  0.40020327  1
  O  O281  1  0.75353842  0.23619819  0.86878127  1
  O  O282  1  0.75322988  0.73790606  0.39195290  1
  O  O283  1  0.76399003  0.73187468  0.88229782  1
  O  O284  1  -0.01937624  0.11316345  0.00696345  1
  O  O285  1  0.02869187  0.13220970  0.49039926  1
  O  O286  1  -0.01220336  0.62105474  0.03194544  1
  O  O287  1  0.00835828  0.62265809  0.50517150  1
  O  O288  1  0.50980832  0.11597240  -0.00404886  1
  O  O289  1  0.48024878  0.10431386  0.49215171  1
  O  O290  1  0.51351131  0.61710227  0.00184744  1
  O  O291  1  0.51502339  0.63360823  0.50158742  1
  O  O292  1  0.50074578  0.39416315  0.51210341  1
  O  O293  1  0.50185139  0.38629714  0.98335731  1
  O  O294  1  0.49031580  0.87177778  0.48946807  1
  O  O295  1  0.50551006  0.88468670  0.99282996  1
  O  O296  1  1.00771065  0.39633173  0.49829264  1
  O  O297  1  0.99371640  0.37404686  1.01926310  1
  O  O298  1  0.99253836  0.87100839  0.49355059  1
  O  O299  1  0.96949759  0.89349603  1.02550388  1
  O  O300  1  0.48583193  0.51042188  0.38454187  1
  O  O301  1  0.50009349  0.49314860  0.87201339  1
  O  O302  1  0.48448958  0.98544460  0.37947160  1
  O  O303  1  0.50697631  0.98844126  0.88533089  1
  O  O304  1  1.00495339  0.52041229  0.38949727  1
  O  O305  1  0.98537300  0.45229989  0.82524493  1
  O  O306  1  0.97774188  1.00414320  0.38170490  1
  O  O307  1  0.98376243  0.99810760  0.89505022  1
  O  O308  1  -0.01136512  0.01340740  0.12135908  1
  O  O309  1  0.01801206  -0.00841309  0.61688089  1
  O  O310  1  0.01373564  0.51985275  0.15115198  1
  O  O311  1  0.01091024  0.51325518  0.61229994  1
  O  O312  1  0.49810202  0.01404100  0.10986461  1
  O  O313  1  0.49262567  -0.01188812  0.60603310  1
  O  O314  1  0.49814958  0.50601721  0.11123839  1
  O  O315  1  0.48556260  0.51365112  0.61163971  1
  O  O316  1  0.25684579  0.38698665  0.24478707  1
  O  O317  1  0.24915841  0.39926266  0.74918036  1
  O  O318  1  0.23409380  0.82058363  0.23185875  1
  O  O319  1  0.25489215  0.87034736  0.73926007  1
  O  O320  1  0.71719838  0.37408124  0.26643203  1
  O  O321  1  0.76168014  0.38468610  0.76373639  1
  O  O322  1  0.73543434  0.87486849  0.24593359  1
  O  O323  1  0.75329725  0.89312951  0.75964543  1
  O  O324  1  0.25971412  0.11173627  0.22968387  1
  O  O325  1  0.25486803  0.12811757  0.75898001  1
  O  O326  1  0.25210163  0.63110833  0.26010091  1
  O  O327  1  0.26286771  0.62009683  0.75286067  1
  O  O328  1  0.68903834  0.15640950  0.35436563  1
  O  O329  1  0.75343927  0.11656847  0.76468090  1
  O  O330  1  0.75602479  0.63059260  0.26621823  1
  O  O331  1  0.75306917  0.62616327  0.76786035  1
  O  O332  1  0.37405329  0.10532965  0.35393549  1
  O  O333  1  0.37289866  0.12029161  0.86646969  1
  O  O334  1  0.35824069  0.63409751  0.37836224  1
  O  O335  1  0.39075228  0.61449742  0.85980161  1
  O  O336  1  0.86908586  0.12374690  0.37293239  1
  O  O337  1  0.86540284  0.12062249  0.87414419  1
  O  O338  1  0.86424655  0.62425606  0.36531613  1
  O  O339  1  0.88174606  0.62297799  0.87895723  1
  O  O340  1  0.15346591  0.37571309  0.11287381  1
  O  O341  1  0.12165266  0.39400417  0.62003966  1
  O  O342  1  0.10826795  0.88686758  0.12060370  1
  O  O343  1  0.14015429  0.86599337  0.62981642  1
  O  O344  1  0.62442954  0.38674715  0.11709874  1
  O  O345  1  0.65233093  0.33878745  0.61186147  1
  O  O346  1  0.63476570  0.87701794  0.13640940  1
  O  O347  1  0.64553390  0.86774866  0.62770610  1
  O  O348  1  0.15409664  0.25441373  0.24905529  1
  O  O349  1  0.12166695  0.26658718  0.77442937  1
  O  O350  1  0.09997758  0.74574590  0.26039332  1
  O  O351  1  0.13354186  0.72781321  0.76710919  1
  O  O352  1  0.60459376  0.25250634  0.27392915  1
  O  O353  1  0.61074636  0.22967624  0.74245558  1
  O  O354  1  0.61443810  0.75724389  0.24612735  1
  O  O355  1  0.61561774  0.74966284  0.73957829  1
  O  O356  1  0.36060282  0.23080591  0.24308039  1
  O  O357  1  0.37831210  0.23415761  0.74960372  1
  O  O358  1  0.39398912  0.75832531  0.23146374  1
  O  O359  1  0.38237665  0.74547331  0.74371089  1
  O  O360  1  0.86138904  0.26582754  0.23861053  1
  O  O361  1  0.88897507  0.23280957  0.75937633  1
  O  O362  1  0.87613840  0.74637876  0.24631126  1
  O  O363  1  0.86589905  0.75870130  0.73196390  1
  O  O364  1  0.38438858  0.51061480  0.48739657  1
  O  O365  1  0.38817356  0.51210468  0.98005211  1
  O  O366  1  0.37283058  0.98620594  0.48882314  1
  O  O367  1  0.39148087  0.98933905  1.00311630  1
  O  O368  1  0.88738409  0.50769393  0.50305438  1
  O  O369  1  0.88225701  0.47681984  1.00720305  1
  O  O370  1  0.87914571  0.98488446  0.50601837  1
  O  O371  1  0.86988560  0.99800975  0.99645056  1
  O  O372  1  0.09602771  -0.00962486  0.00986610  1
  O  O373  1  0.12878165  0.01372228  0.50761642  1
  O  O374  1  0.11707902  0.53035719  -0.05078536  1
  O  O375  1  0.12883876  0.51186503  0.50813463  1
  O  O376  1  0.61697222  0.00974536  0.00183162  1
  O  O377  1  0.60362592  -0.00418040  0.49126700  1
  O  O378  1  0.61968580  0.50684530  0.00575363  1
  O  O379  1  0.60786646  0.51438567  0.49757824  1
  O  O380  1  0.37675924  0.35834398  0.12735064  1
  O  O381  1  0.37302031  0.35320300  0.65225883  1
  O  O382  1  0.39358752  0.86182087  0.10685107  1
  O  O383  1  0.36290217  0.86902566  0.61726854  1
  O  O384  1  0.86029696  0.36586896  0.12158016  1
  O  O385  1  0.87159830  0.35955820  0.61607957  1
  O  O386  1  0.85426524  0.86818845  0.13102773  1
  O  O387  1  0.88240819  0.86326929  0.61221703  1
  O  O388  1  0.14041715  0.11144248  0.37709581  1
  O  O389  1  0.16011444  0.09711460  0.88218473  1
  O  O390  1  0.13605981  0.63510235  0.38218573  1
  O  O391  1  0.10960352  0.58992519  0.89069970  1
  O  O392  1  0.62737382  0.11375449  0.39035754  1
  O  O393  1  0.63488852  0.12435591  0.88588739  1
  O  O394  1  0.63519407  0.62247044  0.37861215  1
  O  O395  1  0.62085269  0.62475163  0.88603508  1
