# generated using pymatgen
data_V35Zn35O128
_symmetry_space_group_name_H-M   'P 1'
_cell_length_a   16.86800364
_cell_length_b   16.87610181
_cell_length_c   16.81174989
_cell_angle_alpha   90.11001933
_cell_angle_beta   89.92133798
_cell_angle_gamma   90.03424708
_symmetry_Int_Tables_number   1
_chemical_formula_structural   V35Zn35O128
_chemical_formula_sum   'V70 Zn70 O256'
_cell_volume   4785.72188193
_cell_formula_units_Z   2
loop_
 _symmetry_equiv_pos_site_id
 _symmetry_equiv_pos_as_xyz
  1  'x, y, z'
loop_
 _atom_site_type_symbol
 _atom_site_label
 _atom_site_symmetry_multiplicity
 _atom_site_fract_x
 _atom_site_fract_y
 _atom_site_fract_z
 _atom_site_occupancy
  V  V0  1  0.49486986  0.49632916  0.00305669  1
  V  V1  1  0.75064715  0.61746304  0.86971952  1
  V  V2  1  0.88563596  0.73263821  0.63105413  1
  V  V3  1  0.79128118  0.09120454  0.36946928  1
  V  V4  1  0.75217562  0.87046802  0.62104489  1
  V  V5  1  0.12941201  0.25249746  0.37624714  1
  V  V6  1  -0.01193529  0.14242623  0.12695378  1
  V  V7  1  0.83965593  0.24460704  0.62262353  1
  V  V8  1  0.62229382  -0.00523221  0.59076751  1
  V  V9  1  0.50464235  0.12059804  0.62026525  1
  V  V10  1  0.74386196  0.74624638  0.49773753  1
  V  V11  1  0.11664237  0.26662579  0.86052884  1
  V  V12  1  0.62608989  0.37129195  0.25028454  1
  V  V13  1  0.61164072  0.75428000  0.36249033  1
  V  V14  1  0.11646722  0.61721246  0.00670684  1
  V  V15  1  0.12333594  0.13585421  -0.00215819  1
  V  V16  1  0.74586739  0.13554641  0.87075048  1
  V  V17  1  0.88583763  0.62770663  0.24248167  1
  V  V18  1  0.39387891  0.88027945  0.49343807  1
  V  V19  1  0.36762439  0.87624117  0.01127658  1
  V  V20  1  0.37334009  0.63943140  0.25664964  1
  V  V21  1  0.11690223  0.49036993  0.13270352  1
  V  V22  1  0.24252788  0.76540341  0.50055826  1
  V  V23  1  0.49854729  0.37984693  0.37659254  1
  V  V24  1  0.89281871  0.12472892  0.73886258  1
  V  V25  1  0.25451028  0.49113706  0.24648310  1
  V  V26  1  0.86302579  0.37313225  0.50664963  1
  V  V27  1  0.25136846  0.74555917  0.02780629  1
  V  V28  1  0.49546613  0.24437116  0.22305016  1
  V  V29  1  0.24559350  0.61911785  0.38511048  1
  V  V30  1  0.26147254  0.12366718  0.86704878  1
  V  V31  1  0.74660060  0.62301359  0.37529288  1
  V  V32  1  0.72899793  0.48188414  0.74258602  1
  V  V33  1  0.24726016  0.37809562  0.62991153  1
  V  V34  1  0.37448840  0.24962862  0.63662119  1
  V  V35  1  0.75582186  0.75688317  0.00405755  1
  V  V36  1  0.11222970  0.75828382  0.36698314  1
  V  V37  1  0.24948476  0.25721229  0.01485014  1
  V  V38  1  0.89092686  0.37052813  -0.00479768  1
  V  V39  1  0.75468533  0.50241263  0.25019773  1
  V  V40  1  -0.01321505  0.25755571  0.25514935  1
  V  V41  1  0.25238709  0.63024211  0.87509829  1
  V  V42  1  0.62509463  0.88305830  0.23904266  1
  V  V43  1  -0.00240533  0.38490937  0.38684073  1
  V  V44  1  0.38709856  -0.00452093  0.36307029  1
  V  V45  1  0.37888426  0.49192032  0.86813364  1
  V  V46  1  0.37061753  0.38081976  0.49693412  1
  V  V47  1  0.73536092  -0.00482580  0.75017388  1
  V  V48  1  0.49267388  0.63719663  0.13149396  1
  V  V49  1  0.89367966  0.74851569  0.11602243  1
  V  V50  1  0.37787962  0.75682623  0.62899306  1
  V  V51  1  0.52720238  0.00504997  0.00843549  1
  V  V52  1  0.75651994  0.36873779  0.11418956  1
  V  V53  1  0.88627927  -0.00912314  0.87027000  1
  V  V54  1  0.62366036  0.50171204  0.12446301  1
  V  V55  1  0.88770005  0.49391910  0.86694712  1
  V  V56  1  0.24001433  0.50201389  0.75009485  1
  V  V57  1  0.50533663  0.63279466  0.64252767  1
  V  V58  1  0.62903119  0.24339200  0.39674311  1
  V  V59  1  0.03640134  0.75735512  0.78961982  1
  V  V60  1  0.36420811  0.37815039  0.02417620  1
  V  V61  1  0.64909151  0.13728094  0.01412060  1
  V  V62  1  0.25858935  0.12690828  0.37160106  1
  V  V63  1  0.11357771  0.11423821  0.50854521  1
  V  V64  1  0.51153671  0.51118755  0.50541400  1
  V  V65  1  0.24091124  -0.00961807  0.24445663  1
  V  V66  1  0.61218839  0.75537287  0.87416819  1
  V  V67  1  0.10787973  0.51454563  0.61470766  1
  V  V68  1  0.00319203  -0.00320973  -0.00386995  1
  V  V69  1  0.88919665  0.87866089  0.48874737  1
  Zn  Zn70  1  0.68501262  -0.00882622  0.13779345  1
  Zn  Zn71  1  0.62444309  0.62753232  0.00275154  1
  Zn  Zn72  1  0.12118279  0.01114928  0.12959858  1
  Zn  Zn73  1  0.58898301  0.85965470  0.73375557  1
  Zn  Zn74  1  0.48816106  0.90878057  0.87132587  1
  Zn  Zn75  1  0.57898024  0.27137523  0.84982185  1
  Zn  Zn76  1  0.18101602  0.18844055  0.19440682  1
  Zn  Zn77  1  0.19355991  0.18562205  0.68591786  1
  Zn  Zn78  1  0.17674877  0.67666690  0.19507840  1
  Zn  Zn79  1  0.19470061  0.68872656  0.68515387  1
  Zn  Zn80  1  0.70347916  0.18549435  0.19902135  1
  Zn  Zn81  1  0.67120942  0.17963688  0.69688447  1
  Zn  Zn82  1  0.68810724  0.69191799  0.18758838  1
  Zn  Zn83  1  0.68710096  0.68540967  0.69150537  1
  Zn  Zn84  1  0.31781408  0.30855607  0.30681021  1
  Zn  Zn85  1  0.30953464  0.30949170  0.82216645  1
  Zn  Zn86  1  0.30579209  0.81457287  0.31313456  1
  Zn  Zn87  1  0.32551094  0.81070337  0.82434468  1
  Zn  Zn88  1  0.80999507  0.31446109  0.32115099  1
  Zn  Zn89  1  0.81828276  0.31579542  0.80515852  1
  Zn  Zn90  1  0.81329591  0.80999143  0.30382974  1
  Zn  Zn91  1  0.80671347  0.80618051  0.81372804  1
  Zn  Zn92  1  0.18255990  0.44248102  0.44019917  1
  Zn  Zn93  1  0.18358553  0.44074090  0.93911470  1
  Zn  Zn94  1  0.18426822  0.94073937  0.43227540  1
  Zn  Zn95  1  0.21617772  0.95389890  0.95984012  1
  Zn  Zn96  1  0.68388053  0.43742265  0.43937088  1
  Zn  Zn97  1  0.68141380  0.42842578  0.92797687  1
  Zn  Zn98  1  0.70283511  0.92757552  0.41565487  1
  Zn  Zn99  1  0.69287566  0.93393698  0.93308631  1
  Zn  Zn100  1  0.31734975  0.06785260  0.07071701  1
  Zn  Zn101  1  0.32739899  0.07744716  0.53932006  1
  Zn  Zn102  1  0.30989289  0.56425805  0.06846182  1
  Zn  Zn103  1  0.32295490  0.56645433  0.56493848  1
  Zn  Zn104  1  0.82105046  0.07471994  0.05696150  1
  Zn  Zn105  1  0.81146351  0.06165092  0.55128360  1
  Zn  Zn106  1  0.81850042  0.56122004  0.05359562  1
  Zn  Zn107  1  0.80400331  0.55940008  0.56209679  1
  Zn  Zn108  1  0.43614277  0.44343784  0.19620533  1
  Zn  Zn109  1  0.43687825  0.44512880  0.68114203  1
  Zn  Zn110  1  0.44388170  0.93724403  0.18598501  1
  Zn  Zn111  1  0.43589526  0.95640718  0.68185779  1
  Zn  Zn112  1  0.93682159  0.43565780  0.18966762  1
  Zn  Zn113  1  0.90625546  0.45957883  0.66247979  1
  Zn  Zn114  1  0.89681629  0.95565381  0.15680189  1
  Zn  Zn115  1  0.91880249  0.90494969  0.70984537  1
  Zn  Zn116  1  0.06275699  0.07335879  0.30953216  1
  Zn  Zn117  1  0.07467869  0.06620996  0.81051163  1
  Zn  Zn118  1  0.06896888  0.56513944  0.31813161  1
  Zn  Zn119  1  0.06496381  0.57478011  0.80711693  1
  Zn  Zn120  1  0.57213246  0.06973353  0.30347891  1
  Zn  Zn121  1  0.50245572  0.12033755  0.81720998  1
  Zn  Zn122  1  0.56122937  0.56451065  0.31432327  1
  Zn  Zn123  1  0.56116611  0.56755795  0.81717175  1
  Zn  Zn124  1  0.44092056  0.19401487  0.44084892  1
  Zn  Zn125  1  0.43567427  0.17438357  0.97786091  1
  Zn  Zn126  1  0.43090597  0.68812737  0.44015902  1
  Zn  Zn127  1  0.42913606  0.68399682  0.94466039  1
  Zn  Zn128  1  0.93728292  0.18647001  0.44475708  1
  Zn  Zn129  1  0.93725703  0.19117886  0.92721719  1
  Zn  Zn130  1  0.93050299  0.68186014  0.44080084  1
  Zn  Zn131  1  0.93609497  0.68033823  0.92414298  1
  Zn  Zn132  1  0.06659079  0.31849445  0.06593117  1
  Zn  Zn133  1  0.07717409  0.31981628  0.55194908  1
  Zn  Zn134  1  0.04581136  0.79004876  0.00332951  1
  Zn  Zn135  1  0.06131082  0.81622270  0.57260973  1
  Zn  Zn136  1  0.57029508  0.31915092  0.03431076  1
  Zn  Zn137  1  0.54741335  0.31028259  0.56607863  1
  Zn  Zn138  1  0.56493888  0.82120221  0.05891694  1
  Zn  Zn139  1  0.56284764  0.80733439  0.55444928  1
  O  O140  1  0.11190862  0.13249595  0.11397685  1
  O  O141  1  0.14181591  0.12796020  0.60640500  1
  O  O142  1  0.12293714  0.61569196  0.11394539  1
  O  O143  1  0.12745861  0.61252812  0.63201345  1
  O  O144  1  0.67411116  0.11085966  0.11484045  1
  O  O145  1  0.61303334  0.10616115  0.61645446  1
  O  O146  1  0.61330059  0.61502044  0.12947311  1
  O  O147  1  0.60486779  0.64180719  0.62478375  1
  O  O148  1  0.38193619  0.36891533  0.38965042  1
  O  O149  1  0.37089265  0.38977641  0.88539667  1
  O  O150  1  0.37451571  0.88614736  0.37789987  1
  O  O151  1  0.38421795  0.86406393  0.89990009  1
  O  O152  1  0.88511195  0.37184518  0.39338894  1
  O  O153  1  0.87467425  0.38330830  0.88095911  1
  O  O154  1  0.87445499  0.85432475  0.39012745  1
  O  O155  1  0.87779426  0.89175471  0.86165498  1
  O  O156  1  0.25548070  0.00959733  0.36202645  1
  O  O157  1  0.22863175  0.02540164  0.87469591  1
  O  O158  1  0.24130993  0.51379132  0.36870349  1
  O  O159  1  0.25921359  0.49929853  0.86386758  1
  O  O160  1  0.77614452  -0.01035251  0.36007590  1
  O  O161  1  0.76444431  0.00025894  0.86169315  1
  O  O162  1  0.74025984  0.51329364  0.36548443  1
  O  O163  1  0.74185126  0.50751055  0.87031693  1
  O  O164  1  0.24462164  0.50395398  0.14085656  1
  O  O165  1  0.25587045  0.50120354  0.63902125  1
  O  O166  1  0.24530138  1.01220437  0.13996787  1
  O  O167  1  0.26692174  1.00117882  0.63570541  1
  O  O168  1  0.74111779  0.49712660  0.13136971  1
  O  O169  1  0.74528970  0.50150949  0.64345793  1
  O  O170  1  0.79777565  0.99998470  0.13411653  1
  O  O171  1  0.73753937  0.99336916  0.62991882  1
  O  O172  1  -0.00777951  0.36584186  0.26691592  1
  O  O173  1  0.00585915  0.32909640  0.70826294  1
  O  O174  1  0.04600125  0.87053863  0.20154374  1
  O  O175  1  0.00460282  0.84632869  0.74687502  1
  O  O176  1  0.50854033  0.37573757  0.25771931  1
  O  O177  1  0.52804980  0.37323684  0.72151691  1
  O  O178  1  0.51969080  0.87681853  0.24437374  1
  O  O179  1  0.48598444  0.89321116  0.75898516  1
  O  O180  1  0.51506363  0.14634298  0.23665626  1
  O  O181  1  0.46329784  0.07957091  0.70928284  1
  O  O182  1  0.48665212  0.61992021  0.24289659  1
  O  O183  1  0.49562517  0.62671392  0.74207362  1
  O  O184  1  0.99862264  0.13556207  0.23390992  1
  O  O185  1  0.99138717  0.11950818  0.74107435  1
  O  O186  1  0.98269371  0.61605613  0.26020053  1
  O  O187  1  0.99961586  0.66250200  0.77327936  1
  O  O188  1  0.35937387  0.27016069  0.00239595  1
  O  O189  1  0.38534125  0.27192571  0.51544024  1
  O  O190  1  0.35789422  0.75116695  0.00589985  1
  O  O191  1  0.36810585  0.76653842  0.49811541  1
  O  O192  1  0.87700222  0.27002985  -0.01260825  1
  O  O193  1  0.87356991  0.25277036  0.51875274  1
  O  O194  1  0.86544380  0.73434155  0.00495869  1
  O  O195  1  0.86136390  0.75274839  0.51155763  1
  O  O196  1  0.12445284  0.24005077  0.48490456  1
  O  O197  1  0.13226868  0.25253656  0.99475972  1
  O  O198  1  0.14032447  0.75754978  0.50688559  1
  O  O199  1  0.14247425  0.73016759  1.00307834  1
  O  O200  1  0.61990657  0.25995373  0.49722391  1
  O  O201  1  0.64916319  0.23525700  1.01918715  1
  O  O202  1  0.63759874  0.75267844  0.48606298  1
  O  O203  1  0.63694249  0.74972908  0.99114374  1
  O  O204  1  0.51159508  0.26832930  0.12589304  1
  O  O205  1  0.48867272  0.22818642  0.62922547  1
  O  O206  1  0.50810210  0.73392986  0.11759819  1
  O  O207  1  0.49010980  0.74767344  0.62221149  1
  O  O208  1  1.00697050  0.25200864  0.14205256  1
  O  O209  1  1.01787285  0.27769205  0.65560156  1
  O  O210  1  0.99189713  0.74118373  0.09872263  1
  O  O211  1  0.98608943  0.74197694  0.61954861  1
  O  O212  1  0.00637845  0.25523848  0.36871085  1
  O  O213  1  0.01573201  0.25104685  0.87004733  1
  O  O214  1  0.01579627  0.73731412  0.39029042  1
  O  O215  1  0.01106295  0.76567476  0.89398014  1
  O  O216  1  0.50849572  0.26574485  0.37503200  1
  O  O217  1  0.48582041  0.21158236  0.88565467  1
  O  O218  1  0.51439228  0.73981448  0.37983380  1
  O  O219  1  0.51331974  0.73878826  0.88544589  1
  O  O220  1  0.23930234  0.12052665  0.47681330  1
  O  O221  1  0.23769184  0.14023947  0.99964989  1
  O  O222  1  0.26301590  0.63178310  0.48739715  1
  O  O223  1  0.24841657  0.63204794  0.99682801  1
  O  O224  1  0.75851738  0.11567826  0.46600132  1
  O  O225  1  0.76249498  0.12634566  0.97763916  1
  O  O226  1  0.75405493  0.62766694  0.48317711  1
  O  O227  1  0.74474301  0.62705050  0.98804197  1
  O  O228  1  0.25450707  0.36934731  0.00287326  1
  O  O229  1  0.26405024  0.39038320  0.51094647  1
  O  O230  1  0.24936627  0.85238986  0.00517594  1
  O  O231  1  0.25588851  0.86734321  0.49553817  1
  O  O232  1  0.75080549  0.37727004  0.01234542  1
  O  O233  1  0.76395615  0.37655424  0.49237404  1
  O  O234  1  0.75858949  0.85628574  -0.01083041  1
  O  O235  1  0.75461020  0.86446021  0.50677301  1
  O  O236  1  0.13998530  0.51208353  0.24178091  1
  O  O237  1  0.13827956  0.50113422  0.74651886  1
  O  O238  1  0.13383284  1.00458706  0.24875581  1
  O  O239  1  0.12968692  0.99453732  0.73056478  1
  O  O240  1  0.62993631  0.49206181  0.24341651  1
  O  O241  1  0.62914212  0.49887990  0.75784721  1
  O  O242  1  0.63089891  0.99027630  0.24732899  1
  O  O243  1  0.63758651  0.98934554  0.75473817  1
  O  O244  1  0.36459091  -0.00452696  0.25786614  1
  O  O245  1  0.30737127  -0.01577582  0.69628614  1
  O  O246  1  0.36108286  0.51249115  0.25048320  1
  O  O247  1  0.37619354  0.49671867  0.76435926  1
  O  O248  1  0.92154549  -0.02780662  0.27927945  1
  O  O249  1  0.87768236  0.00748373  0.75134695  1
  O  O250  1  0.86144824  0.50897796  0.24480263  1
  O  O251  1  0.85404145  0.48814912  0.76306606  1
  O  O252  1  0.11446311  0.36173529  0.38782132  1
  O  O253  1  0.12945343  0.36686097  0.87451848  1
  O  O254  1  0.12514414  0.85889881  0.37786536  1
  O  O255  1  0.16733833  0.87936590  0.84836449  1
  O  O256  1  0.61746155  0.37191856  0.36727500  1
  O  O257  1  0.60131485  0.35187000  0.92055493  1
  O  O258  1  0.62413161  0.85988496  0.36642809  1
  O  O259  1  0.61739173  0.86242926  0.87815849  1
  O  O260  1  0.39704140  0.14223158  0.07808328  1
  O  O261  1  0.34555086  0.15317685  0.62353909  1
  O  O262  1  0.38548162  0.62472025  0.13645766  1
  O  O263  1  0.38817271  0.64694575  0.61631096  1
  O  O264  1  0.89043381  0.14930655  0.11160158  1
  O  O265  1  0.86552708  0.13074418  0.63116336  1
  O  O266  1  0.87428213  0.62599640  0.13410447  1
  O  O267  1  0.86662404  0.63373886  0.62481176  1
  O  O268  1  0.24033316  0.24897906  0.11439166  1
  O  O269  1  0.25542186  0.27487771  0.62862960  1
  O  O270  1  0.24857748  0.74090881  0.12672132  1
  O  O271  1  0.26410156  0.74396164  0.60768643  1
  O  O272  1  0.75283575  0.27231084  0.13819881  1
  O  O273  1  0.74026632  0.24000437  0.62735363  1
  O  O274  1  0.75282660  0.74136188  0.10695330  1
  O  O275  1  0.74585098  0.75642601  0.61728066  1
  O  O276  1  0.24013072  0.24087067  0.36508049  1
  O  O277  1  0.24088089  0.24447252  0.88870877  1
  O  O278  1  0.24284468  0.74390371  0.38677882  1
  O  O279  1  0.25656026  0.73017237  0.87310983  1
  O  O280  1  0.72789686  0.26053750  0.37702177  1
  O  O281  1  0.74997716  0.23390371  0.85451071  1
  O  O282  1  0.74135634  0.73952930  0.37907518  1
  O  O283  1  0.74757915  0.73625087  0.88264931  1
  O  O284  1  0.00707068  0.12998505  0.00458591  1
  O  O285  1  0.01305849  0.13069855  0.50912274  1
  O  O286  1  0.01925998  0.62184026  -0.01545240  1
  O  O287  1  -0.04245675  0.58879463  0.49679885  1
  O  O288  1  0.54483831  0.11845658  0.01362895  1
  O  O289  1  0.46419382  0.11306566  0.52574118  1
  O  O290  1  0.49466199  0.61284449  0.01653468  1
  O  O291  1  0.49796062  0.61199259  0.49492396  1
  O  O292  1  0.49294095  0.38788713  0.49793555  1
  O  O293  1  0.47717885  0.38936569  1.01242414  1
  O  O294  1  0.49264085  0.87237058  0.48747702  1
  O  O295  1  0.49468214  0.89366305  0.99818410  1
  O  O296  1  0.99087709  0.36767210  0.49294519  1
  O  O297  1  0.98973456  0.37898647  1.00573945  1
  O  O298  1  0.98839017  0.87059435  0.50492616  1
  O  O299  1  1.01105531  0.89903639  1.00567964  1
  O  O300  1  0.50599381  0.48920485  0.38550557  1
  O  O301  1  0.48585677  0.50958008  0.88892653  1
  O  O302  1  0.48451072  1.01172872  0.36154809  1
  O  O303  1  0.49660783  1.02207309  0.90697126  1
  O  O304  1  1.00976493  0.48292448  0.37552052  1
  O  O305  1  0.98566737  0.50448070  0.85565985  1
  O  O306  1  0.98660737  0.97061022  0.31687447  1
  O  O307  1  0.99733717  1.00697530  0.88022528  1
  O  O308  1  -0.00892015  0.01976653  0.10989696  1
  O  O309  1  0.08779028  -0.04020074  0.67159050  1
  O  O310  1  0.01629026  0.49789480  0.13831350  1
  O  O311  1  0.01325022  0.49416619  0.64357878  1
  O  O312  1  0.48164605  0.00936986  0.10053789  1
  O  O313  1  0.52030825  -0.00938025  0.60279804  1
  O  O314  1  0.50645055  0.50577388  0.12345680  1
  O  O315  1  0.49467822  0.52134168  0.61717488  1
  O  O316  1  0.25435309  0.39229374  0.26236132  1
  O  O317  1  0.25758122  0.39083840  0.73967793  1
  O  O318  1  0.24622538  0.88996299  0.25030972  1
  O  O319  1  0.22029454  0.87904350  0.79569973  1
  O  O320  1  0.74516823  0.38653263  0.24732443  1
  O  O321  1  0.73647992  0.38071146  0.75729038  1
  O  O322  1  0.73063919  0.86295837  0.25038859  1
  O  O323  1  0.75869602  0.88687684  0.73706009  1
  O  O324  1  0.24468279  0.11919325  0.26373991  1
  O  O325  1  0.25683556  0.13615802  0.76623475  1
  O  O326  1  0.26026658  0.62191528  0.26125010  1
  O  O327  1  0.25246986  0.61228650  0.76286215  1
  O  O328  1  0.74810958  0.13152159  0.28431693  1
  O  O329  1  0.75157499  0.10620325  0.75385778  1
  O  O330  1  0.75205210  0.61674407  0.25255918  1
  O  O331  1  0.74314210  0.61677214  0.76516933  1
  O  O332  1  0.36496028  0.11853897  0.38155653  1
  O  O333  1  0.35851498  0.12214317  0.89232451  1
  O  O334  1  0.36480094  0.62847738  0.36466675  1
  O  O335  1  0.36007470  0.60682024  0.88772594  1
  O  O336  1  0.89248237  0.11430564  0.36978802  1
  O  O337  1  0.87127187  0.11908334  0.85380137  1
  O  O338  1  0.85446222  0.63574577  0.35536147  1
  O  O339  1  0.85952364  0.60857278  0.87653916  1
  O  O340  1  0.13046657  0.39041663  0.12669885  1
  O  O341  1  0.14392367  0.39107226  0.61835126  1
  O  O342  1  0.09677379  0.87581414  0.14823940  1
  O  O343  1  0.12765343  0.90073808  0.63691455  1
  O  O344  1  0.63594226  0.38595178  0.13048809  1
  O  O345  1  0.58318184  0.36591085  0.66725180  1
  O  O346  1  0.63169056  0.87961322  0.13167361  1
  O  O347  1  0.63233356  0.88173868  0.62167894  1
  O  O348  1  0.11179410  0.24700515  0.26812173  1
  O  O349  1  0.13617706  0.25076818  0.76205090  1
  O  O350  1  0.12059224  0.74363254  0.26608834  1
  O  O351  1  0.13402363  0.74927202  0.76073116  1
  O  O352  1  0.61816252  0.26445864  0.25194656  1
  O  O353  1  0.58590067  0.19850433  0.76476541  1
  O  O354  1  0.62031846  0.75320074  0.25661900  1
  O  O355  1  0.63158591  0.75670352  0.76709683  1
  O  O356  1  0.39610749  0.25705151  0.24551614  1
  O  O357  1  0.37571484  0.26728651  0.73656325  1
  O  O358  1  0.36951035  0.73895678  0.25198124  1
  O  O359  1  0.36178429  0.76786448  0.72704898  1
  O  O360  1  0.88685351  0.25212250  0.25913283  1
  O  O361  1  0.87060586  0.23397638  0.73362696  1
  O  O362  1  0.87440533  0.73581266  0.23216161  1
  O  O363  1  0.86559333  0.75533799  0.73024336  1
  O  O364  1  0.38859033  0.48803315  0.50623006  1
  O  O365  1  0.37270042  0.49167310  0.99908995  1
  O  O366  1  0.37005964  0.98640132  0.48373605  1
  O  O367  1  0.33485551  0.97461769  1.00259800  1
  O  O368  1  0.87787914  0.47151007  0.54074033  1
  O  O369  1  0.87126156  0.48921882  0.97891300  1
  O  O370  1  0.87240036  0.97782905  0.50386400  1
  O  O371  1  0.89070802  1.00921326  0.97870688  1
  O  O372  1  0.11652829  0.01418835  0.00428811  1
  O  O373  1  0.12114466  0.01330399  0.49120846  1
  O  O374  1  0.13582790  0.50826866  0.01726295  1
  O  O375  1  0.11956826  0.50328811  0.51399124  1
  O  O376  1  0.63377006  -0.00625543  0.01364678  1
  O  O377  1  0.63698748  -0.00913227  0.49377273  1
  O  O378  1  0.61184618  0.49947158  0.01023028  1
  O  O379  1  0.61148241  0.49504547  0.50690864  1
  O  O380  1  0.36526198  0.38328313  0.12306075  1
  O  O381  1  0.36974619  0.37347377  0.61865027  1
  O  O382  1  0.38766333  0.86812390  0.11020188  1
  O  O383  1  0.38463980  0.87003959  0.60471996  1
  O  O384  1  0.86476444  0.38776281  0.11071048  1
  O  O385  1  0.86563601  0.34924505  0.62553664  1
  O  O386  1  0.88444388  0.84778320  0.12667839  1
  O  O387  1  0.86489948  0.86440196  0.61478863  1
  O  O388  1  0.12645300  0.13485836  0.38254271  1
  O  O389  1  0.12711091  0.14039534  0.88473591  1
  O  O390  1  0.14125291  0.63533688  0.37816044  1
  O  O391  1  0.14614234  0.60649808  0.89001781  1
  O  O392  1  0.60985029  0.14486248  0.38305212  1
  O  O393  1  0.64683976  0.11743369  0.89290257  1
  O  O394  1  0.63813828  0.63631956  0.36311247  1
  O  O395  1  0.63264695  0.63576214  0.88002694  1
