# generated using pymatgen
data_V35Zn35O128
_symmetry_space_group_name_H-M   'P 1'
_cell_length_a   16.89184409
_cell_length_b   16.88386032
_cell_length_c   16.89590826
_cell_angle_alpha   89.96353801
_cell_angle_beta   89.92063053
_cell_angle_gamma   90.07080627
_symmetry_Int_Tables_number   1
_chemical_formula_structural   V35Zn35O128
_chemical_formula_sum   'V70 Zn70 O256'
_cell_volume   4818.69591449
_cell_formula_units_Z   2
loop_
 _symmetry_equiv_pos_site_id
 _symmetry_equiv_pos_as_xyz
  1  'x, y, z'
loop_
 _atom_site_type_symbol
 _atom_site_label
 _atom_site_symmetry_multiplicity
 _atom_site_fract_x
 _atom_site_fract_y
 _atom_site_fract_z
 _atom_site_occupancy
  V  V0  1  0.71961052  0.11679116  0.89085642  1
  V  V1  1  0.63276089  0.88013626  0.24844019  1
  V  V2  1  0.38181505  0.13471393  0.75783904  1
  V  V3  1  0.25642331  0.14013853  0.38996991  1
  V  V4  1  0.89212054  0.00663563  0.36673721  1
  V  V5  1  -0.01943051  0.12066018  0.62289853  1
  V  V6  1  0.23373364  0.37559976  0.61749701  1
  V  V7  1  0.37043372  0.86440256  0.51182079  1
  V  V8  1  0.37691324  -0.00668094  0.38320215  1
  V  V9  1  0.49607469  0.37392738  0.85663261  1
  V  V10  1  0.37521331  0.12625108  0.24849200  1
  V  V11  1  0.25046320  0.87630673  0.12711423  1
  V  V12  1  0.24102894  -0.00738831  0.73823798  1
  V  V13  1  0.74748980  0.37739830  0.12917719  1
  V  V14  1  0.75382744  0.73998340  -0.00701669  1
  V  V15  1  0.48494370  0.49565108  -0.00049682  1
  V  V16  1  0.23197787  0.62592709  0.38940648  1
  V  V17  1  0.63014369  -0.00958257  0.63909399  1
  V  V18  1  0.75240374  0.75111790  0.51668964  1
  V  V19  1  0.62572330  0.51187034  0.12095206  1
  V  V20  1  0.87018811  0.36676218  0.52186315  1
  V  V21  1  0.61762525  0.38630758  0.25539171  1
  V  V22  1  0.00024731  0.62813280  0.13034605  1
  V  V23  1  0.48637906  -0.02219909  0.00404925  1
  V  V24  1  0.24566233  0.49939928  0.25040157  1
  V  V25  1  0.12551836  0.63261806  -0.00507037  1
  V  V26  1  0.38397858  0.63625301  0.76513508  1
  V  V27  1  0.62445250  0.24659603  0.36879644  1
  V  V28  1  0.49275492  0.75583846  0.25904305  1
  V  V29  1  0.87151984  0.63346165  0.25269640  1
  V  V30  1  0.89123351  0.21795543  0.11547753  1
  V  V31  1  0.00391406  0.75465895  0.75057025  1
  V  V32  1  0.12789153  0.12802472  0.51489625  1
  V  V33  1  0.72271794  0.25683750  -0.00453301  1
  V  V34  1  0.49887873  0.12867460  0.11208827  1
  V  V35  1  0.87574618  0.39426455  -0.00580014  1
  V  V36  1  0.50970942  -0.00470132  0.49816090  1
  V  V37  1  0.49558065  0.62988162  0.12620598  1
  V  V38  1  0.37152801  0.75305131  0.11647910  1
  V  V39  1  0.37935663  0.49909698  0.36673344  1
  V  V40  1  0.00168895  0.85180036  0.37983831  1
  V  V41  1  0.86989780  0.87820253  0.50701108  1
  V  V42  1  0.37427520  -0.01699255  0.87660043  1
  V  V43  1  0.75437437  0.24212019  0.50100363  1
  V  V44  1  0.12091628  0.49402808  0.12004926  1
  V  V45  1  0.00202685  0.48983092  0.50586823  1
  V  V46  1  0.01442511  0.25594465  0.75543167  1
  V  V47  1  0.62699412  -0.00091646  0.12046149  1
  V  V48  1  0.87357786  0.47893407  0.36318095  1
  V  V49  1  0.51236919  0.79261926  0.78141934  1
  V  V50  1  0.86565408  0.11974562  0.78453957  1
  V  V51  1  0.23951269  0.12581474  0.88626550  1
  V  V52  1  0.75062304  0.49263019  0.77019929  1
  V  V53  1  0.11154422  0.36889910  0.25281861  1
  V  V54  1  0.24452038  0.00119329  0.25544618  1
  V  V55  1  0.87617842  0.77067471  0.12155746  1
  V  V56  1  0.74999681  0.11855794  0.35721957  1
  V  V57  1  0.62745818  0.62468393  0.49859552  1
  V  V58  1  0.12645683  0.85703914  0.26396412  1
  V  V59  1  0.50044396  0.13103206  0.62199916  1
  V  V60  1  0.25346858  0.48907809  0.76812288  1
  V  V61  1  0.00581980  0.62446862  0.61874781  1
  V  V62  1  0.36709868  0.26028276  0.11671468  1
  V  V63  1  0.63208592  0.75677855  0.37062721  1
  V  V64  1  0.48746188  0.63210949  0.61338832  1
  V  V65  1  0.23614819  0.25937717  -0.00001841  1
  V  V66  1  0.86622625  0.62602566  0.75078771  1
  V  V67  1  0.49995347  0.48566436  0.49361157  1
  V  V68  1  0.63583426  0.48719779  0.62258269  1
  V  V69  1  0.11102862  0.24481974  0.37347539  1
  Zn  Zn70  1  0.36684183  0.36307399  0.49219825  1
  Zn  Zn71  1  0.57317326  0.21287414  0.79899066  1
  Zn  Zn72  1  0.49277266  0.25520684  0.25426635  1
  Zn  Zn73  1  0.74966445  0.61986782  0.36697135  1
  Zn  Zn74  1  0.25019143  0.74636327  -0.01526634  1
  Zn  Zn75  1  0.77147491  0.00217693  0.22186859  1
  Zn  Zn76  1  0.18563038  0.18728814  0.18782229  1
  Zn  Zn77  1  0.19604880  0.19208664  0.70065017  1
  Zn  Zn78  1  0.19039911  0.68247740  0.19790047  1
  Zn  Zn79  1  0.17992081  0.65411094  0.70691626  1
  Zn  Zn80  1  0.68486409  0.18857336  0.18470184  1
  Zn  Zn81  1  0.70414016  0.14407625  0.68062918  1
  Zn  Zn82  1  0.69561295  0.69520205  0.18132311  1
  Zn  Zn83  1  0.67559991  0.68305798  0.70093737  1
  Zn  Zn84  1  0.30823046  0.31902893  0.30584957  1
  Zn  Zn85  1  0.30958681  0.31372003  0.81714212  1
  Zn  Zn86  1  0.30684227  0.80912462  0.32746796  1
  Zn  Zn87  1  0.30892446  0.79453088  0.76849930  1
  Zn  Zn88  1  0.81330650  0.29998813  0.29469668  1
  Zn  Zn89  1  0.75299388  0.28299015  0.77373544  1
  Zn  Zn90  1  0.81349568  0.81645523  0.30883547  1
  Zn  Zn91  1  0.85648538  0.78677655  0.83567068  1
  Zn  Zn92  1  0.18587072  0.43217264  0.43203307  1
  Zn  Zn93  1  0.32128790  0.43629765  0.94787897  1
  Zn  Zn94  1  0.20606857  0.94881982  0.55300315  1
  Zn  Zn95  1  0.19758557  0.92543943  0.92798193  1
  Zn  Zn96  1  0.69609062  0.43432376  0.43706417  1
  Zn  Zn97  1  0.67558428  0.44059965  0.94056337  1
  Zn  Zn98  1  0.69017302  0.93695737  0.43393825  1
  Zn  Zn99  1  0.68715842  0.91783505  0.96041431  1
  Zn  Zn100  1  0.30962081  0.06154753  0.06502614  1
  Zn  Zn101  1  0.36322536  0.24603883  0.61132605  1
  Zn  Zn102  1  0.30629698  0.57512618  0.07167090  1
  Zn  Zn103  1  0.30466069  0.54866255  0.56283020  1
  Zn  Zn104  1  0.81240215  0.06092908  0.02584513  1
  Zn  Zn105  1  0.80275668  0.05679330  0.54493742  1
  Zn  Zn106  1  0.80962278  0.56928772  0.06071094  1
  Zn  Zn107  1  0.82035727  0.56164272  0.56138174  1
  Zn  Zn108  1  0.43657760  0.43937577  0.18689974  1
  Zn  Zn109  1  0.42206127  0.44376782  0.67841251  1
  Zn  Zn110  1  0.43791569  0.93551833  0.19474440  1
  Zn  Zn111  1  0.42861702  0.94218710  0.68276449  1
  Zn  Zn112  1  0.93616456  0.44139322  0.18427281  1
  Zn  Zn113  1  0.92945066  0.43725198  0.69307969  1
  Zn  Zn114  1  0.95710166  0.94353627  0.19227332  1
  Zn  Zn115  1  0.93588462  0.95047980  0.69397312  1
  Zn  Zn116  1  0.10995138  0.00550620  0.38448636  1
  Zn  Zn117  1  0.06100350  0.07167634  0.80333466  1
  Zn  Zn118  1  0.05313978  0.56087705  0.31675364  1
  Zn  Zn119  1  0.06409174  0.57153996  0.80540555  1
  Zn  Zn120  1  0.55941321  0.06410832  0.30825357  1
  Zn  Zn121  1  0.55296558  0.03709580  0.81265864  1
  Zn  Zn122  1  0.56049727  0.57120037  0.31055349  1
  Zn  Zn123  1  0.55634744  0.54470125  0.80125335  1
  Zn  Zn124  1  0.44358922  0.18452513  0.44063523  1
  Zn  Zn125  1  0.43474552  0.19502034  0.93234511  1
  Zn  Zn126  1  0.43165104  0.67974171  0.43241611  1
  Zn  Zn127  1  0.51118811  0.67416030  0.91763760  1
  Zn  Zn128  1  0.93876262  0.18206467  0.43971544  1
  Zn  Zn129  1  0.88986424  0.24725983  0.90871284  1
  Zn  Zn130  1  0.93400526  0.68347712  0.44597913  1
  Zn  Zn131  1  0.94393814  0.67917643  0.93782308  1
  Zn  Zn132  1  0.05371835  0.31199772  0.05879723  1
  Zn  Zn133  1  0.05586862  0.30450529  0.56778561  1
  Zn  Zn134  1  0.06972146  0.80761731  0.07838605  1
  Zn  Zn135  1  0.02979564  0.83731807  0.59411915  1
  Zn  Zn136  1  0.55502309  0.32121406  0.06993425  1
  Zn  Zn137  1  0.57112383  0.30501856  0.55930390  1
  Zn  Zn138  1  0.56906682  0.81026971  0.06314488  1
  Zn  Zn139  1  0.56400799  0.81742058  0.56143840  1
  O  O140  1  0.11850574  0.10915836  0.12699352  1
  O  O141  1  0.13989471  0.13557701  0.61253608  1
  O  O142  1  0.11311581  0.62271614  0.13068920  1
  O  O143  1  0.10677973  0.61776092  0.62366959  1
  O  O144  1  0.60537302  0.11413060  0.13216543  1
  O  O145  1  0.60182926  0.10879590  0.63158158  1
  O  O146  1  0.61848998  0.61642027  0.13483209  1
  O  O147  1  0.61732782  0.61613958  0.60835743  1
  O  O148  1  0.36712601  0.39103967  0.37551642  1
  O  O149  1  0.38849066  0.37176789  0.88003492  1
  O  O150  1  0.37659654  0.89340697  0.36867167  1
  O  O151  1  0.36376714  0.88679659  0.87498269  1
  O  O152  1  0.87210302  0.37897059  0.35591338  1
  O  O153  1  0.86596977  0.36405763  0.89805573  1
  O  O154  1  0.89050444  0.87920731  0.37264351  1
  O  O155  1  0.84733549  0.88852658  0.90071547  1
  O  O156  1  0.26693122  0.02027876  0.37076305  1
  O  O157  1  0.26127357  0.00865835  0.88085040  1
  O  O158  1  0.25453333  0.50266552  0.36761387  1
  O  O159  1  0.26206230  0.49404462  0.86815511  1
  O  O160  1  0.75048294  0.01342384  0.36819590  1
  O  O161  1  0.74131974  0.02235476  0.93208319  1
  O  O162  1  0.77052607  0.50484284  0.38214726  1
  O  O163  1  0.73583391  0.50531728  0.86785499  1
  O  O164  1  0.23425118  0.51088080  0.14171489  1
  O  O165  1  0.25562484  0.48133041  0.64006345  1
  O  O166  1  0.25903045  0.98450328  0.13986134  1
  O  O167  1  0.24936287  1.01020435  0.63951596  1
  O  O168  1  0.73045741  0.49554942  0.11858615  1
  O  O169  1  0.73518134  0.49865681  0.60725204  1
  O  O170  1  0.72947618  1.00862581  0.11147689  1
  O  O171  1  0.72737826  1.03106738  0.62449035  1
  O  O172  1  0.01205464  0.37839240  0.24666325  1
  O  O173  1  -0.00893121  0.35305144  0.73388780  1
  O  O174  1  0.01704114  0.87371684  0.26411001  1
  O  O175  1  -0.00331857  0.85439132  0.71229394  1
  O  O176  1  0.51318369  0.37255135  0.24634214  1
  O  O177  1  0.49362556  0.40562644  0.75990657  1
  O  O178  1  0.51280665  0.86256017  0.24698200  1
  O  O179  1  0.50087856  0.89069605  0.75782557  1
  O  O180  1  0.48664070  0.12782587  0.24132471  1
  O  O181  1  0.49384950  0.12258210  0.75196883  1
  O  O182  1  0.50649603  0.64447035  0.23848947  1
  O  O183  1  0.48639885  0.61016415  0.72320934  1
  O  O184  1  1.05671672  0.07824582  0.16708717  1
  O  O185  1  0.98008937  0.13476614  0.74637790  1
  O  O186  1  0.98895783  0.62602933  0.24128859  1
  O  O187  1  0.99174571  0.62745287  0.73707042  1
  O  O188  1  0.37095896  0.24729691  0.01378858  1
  O  O189  1  0.37872674  0.25152750  0.49800149  1
  O  O190  1  0.36465546  0.75425890  0.01780598  1
  O  O191  1  0.38598602  0.76858285  0.48265669  1
  O  O192  1  0.85419855  0.26460712  0.02157062  1
  O  O193  1  0.86802541  0.25816486  0.49062448  1
  O  O194  1  0.87063299  0.74162094  0.01371474  1
  O  O195  1  0.86041075  0.75967665  0.49923683  1
  O  O196  1  0.11939730  0.24172953  0.48222083  1
  O  O197  1  0.13694785  0.25229268  1.00899173  1
  O  O198  1  0.14291856  0.75048464  0.51174246  1
  O  O199  1  0.12798173  0.73768169  1.01033010  1
  O  O200  1  0.64202782  0.25862460  0.47702691  1
  O  O201  1  0.62320398  0.26592590  0.99641809  1
  O  O202  1  0.63560448  0.74645721  0.49074553  1
  O  O203  1  0.66427985  0.80510235  0.99923084  1
  O  O204  1  0.48953860  0.23947640  0.12553969  1
  O  O205  1  0.50517190  0.23316648  0.61823821  1
  O  O206  1  0.49068639  0.75039312  0.13005358  1
  O  O207  1  0.50486435  0.73069838  0.60617725  1
  O  O208  1  0.99122597  0.22930515  0.10870411  1
  O  O209  1  1.00475422  0.22843317  0.63828462  1
  O  O210  1  0.98808939  0.74002174  0.12525440  1
  O  O211  1  0.99611991  0.72873796  0.62146534  1
  O  O212  1  0.01336572  0.22982953  0.36435389  1
  O  O213  1  -0.01159750  0.24531099  0.85457235  1
  O  O214  1  0.00082038  0.75359776  0.38025121  1
  O  O215  1  -0.02213976  0.76302584  0.85284717  1
  O  O216  1  0.52077808  0.23991341  0.37316599  1
  O  O217  1  0.49864665  0.26416284  0.86539372  1
  O  O218  1  0.51444916  0.74102718  0.36218353  1
  O  O219  1  0.51549318  0.78264081  0.88271727  1
  O  O220  1  0.24580618  0.13769817  0.48952780  1
  O  O221  1  0.25212987  0.12823077  0.99193333  1
  O  O222  1  0.24473847  0.60679777  0.48890166  1
  O  O223  1  0.23350057  0.62960766  1.00305658  1
  O  O224  1  0.75596335  0.13642106  0.47228544  1
  O  O225  1  0.73296139  0.15086709  1.00358577  1
  O  O226  1  0.74710348  0.63865324  0.49756968  1
  O  O227  1  0.73361086  0.64419136  1.01620452  1
  O  O228  1  0.25151460  0.35795143  -0.00464634  1
  O  O229  1  0.24868934  0.38277907  0.51252431  1
  O  O230  1  0.24006484  0.86980774  0.02559351  1
  O  O231  1  0.27222014  0.88194731  0.48938284  1
  O  O232  1  0.74546396  0.37345429  0.00897045  1
  O  O233  1  0.76280433  0.35720500  0.49187204  1
  O  O234  1  0.80677593  0.87954388  -0.03392179  1
  O  O235  1  0.75824827  0.86215208  0.49160561  1
  O  O236  1  0.12731595  0.48882168  0.25102411  1
  O  O237  1  0.16510832  0.54501527  0.75673147  1
  O  O238  1  0.14244678  0.99284756  0.27121890  1
  O  O239  1  0.14194369  1.00138590  0.76124178  1
  O  O240  1  0.61880108  0.49255671  0.24488729  1
  O  O241  1  0.64033883  0.50835612  0.72874171  1
  O  O242  1  0.61702308  0.99483298  0.23619383  1
  O  O243  1  0.62401507  0.99179560  0.73919103  1
  O  O244  1  0.37206946  0.00880839  0.25997690  1
  O  O245  1  0.37050690  0.00739971  0.76544287  1
  O  O246  1  0.36111332  0.49366877  0.25691527  1
  O  O247  1  0.35517553  0.52993247  0.74424263  1
  O  O248  1  0.87885292  -0.00671234  0.26153268  1
  O  O249  1  0.87299689  0.02160294  0.75207522  1
  O  O250  1  0.88031872  0.51132524  0.26146840  1
  O  O251  1  0.85826100  0.50637588  0.75001010  1
  O  O252  1  0.12266830  0.35694192  0.36479047  1
  O  O253  1  0.06501809  0.41460664  0.87397022  1
  O  O254  1  0.10789007  0.87880771  0.37700123  1
  O  O255  1  0.16951340  0.82784194  0.86978079  1
  O  O256  1  0.63599338  0.36701271  0.35935695  1
  O  O257  1  0.59533853  0.38766118  0.87980713  1
  O  O258  1  0.62686084  0.86646799  0.36537869  1
  O  O259  1  0.68562721  0.88065455  0.83648883  1
  O  O260  1  0.38281269  0.12933977  0.13084921  1
  O  O261  1  0.38902815  0.12506311  0.64793313  1
  O  O262  1  0.37960264  0.64469119  0.13358347  1
  O  O263  1  0.38763644  0.62214629  0.60329384  1
  O  O264  1  0.86878769  0.11836793  0.10676135  1
  O  O265  1  0.88297348  0.11629559  0.60354431  1
  O  O266  1  0.88602257  0.62149981  0.13443608  1
  O  O267  1  0.88689570  0.61220566  0.63720031  1
  O  O268  1  0.25948042  0.23995116  0.11334575  1
  O  O269  1  0.25200113  0.26936360  0.63878750  1
  O  O270  1  0.26247545  0.75763049  0.14126461  1
  O  O271  1  0.18090406  0.77901867  0.56816517  1
  O  O272  1  0.73064871  0.26916910  0.11414348  1
  O  O273  1  0.74583871  0.22588367  0.59710123  1
  O  O274  1  0.76865738  0.76138240  0.11766715  1
  O  O275  1  0.73899232  0.74813289  0.61364968  1
  O  O276  1  0.24440810  0.24036015  0.36452465  1
  O  O277  1  0.25522811  0.23625555  0.88949042  1
  O  O278  1  0.25395511  0.72499311  0.37597558  1
  O  O279  1  0.23285910  0.77788091  0.87158974  1
  O  O280  1  0.74615287  0.23693396  0.36585046  1
  O  O281  1  0.74304215  0.24000573  0.88993310  1
  O  O282  1  0.74064771  0.74704103  0.37288289  1
  O  O283  1  0.76845441  0.74088727  0.89329514  1
  O  O284  1  -0.02798593  0.03752124  -0.05261779  1
  O  O285  1  0.01546652  0.12943306  0.51375402  1
  O  O286  1  0.00886873  0.62651949  0.01960849  1
  O  O287  1  -0.01503533  0.60541894  0.51041533  1
  O  O288  1  0.49414870  0.12331945  0.01142247  1
  O  O289  1  0.48973110  0.10948493  0.51591533  1
  O  O290  1  0.49689370  0.61951575  0.01925416  1
  O  O291  1  0.51034353  0.61503210  0.49694718  1
  O  O292  1  0.51106701  0.38622640  0.49291130  1
  O  O293  1  0.49101876  0.39410718  1.01079625  1
  O  O294  1  0.49223437  0.89037383  0.50055903  1
  O  O295  1  0.48592690  0.88032899  1.01589564  1
  O  O296  1  0.98145136  0.37540826  0.50801915  1
  O  O297  1  0.97474555  0.38128064  1.01705335  1
  O  O298  1  0.98232535  0.86891660  0.49043603  1
  O  O299  1  1.04415509  0.89609194  0.99899078  1
  O  O300  1  0.48928428  0.50533072  0.37749363  1
  O  O301  1  0.48871451  0.49713257  0.89619924  1
  O  O302  1  0.48799648  1.01565777  0.38598660  1
  O  O303  1  0.48712624  0.99332525  0.89452811  1
  O  O304  1  0.97743465  0.50451662  0.38922977  1
  O  O305  1  1.01535756  0.46636581  0.85641938  1
  O  O306  1  0.99138472  1.00411098  0.37700097  1
  O  O307  1  0.99199693  1.00344770  0.87735133  1
  O  O308  1  0.02223734  0.01828384  0.12698448  1
  O  O309  1  0.01117703  0.02409403  0.63998894  1
  O  O310  1  0.01259543  0.51327698  0.13300554  1
  O  O311  1  -0.00567305  0.49873231  0.61233193  1
  O  O312  1  0.49408037  0.00956965  0.11681011  1
  O  O313  1  0.50762047  0.00111501  0.61406886  1
  O  O314  1  0.50371755  0.51177389  0.12728098  1
  O  O315  1  0.50804126  0.50573306  0.60374727  1
  O  O316  1  0.23308165  0.38958428  0.25195230  1
  O  O317  1  0.24681163  0.38557219  0.75273927  1
  O  O318  1  0.24137478  0.88031882  0.25791614  1
  O  O319  1  0.26032549  0.89246952  0.74557448  1
  O  O320  1  0.73576550  0.37387855  0.23445118  1
  O  O321  1  0.75070691  0.39401148  0.75511882  1
  O  O322  1  0.73907241  0.88771152  0.25160521  1
  O  O323  1  0.74972583  0.88926811  0.79961970  1
  O  O324  1  0.26050821  0.11778979  0.24833142  1
  O  O325  1  0.26263357  0.11658108  0.76541966  1
  O  O326  1  0.24197822  0.60565457  0.26484970  1
  O  O327  1  0.28599590  0.67905599  0.74059237  1
  O  O328  1  0.75121611  0.11935399  0.25134644  1
  O  O329  1  0.75016578  0.10497596  0.78927468  1
  O  O330  1  0.76645292  0.62548271  0.24345104  1
  O  O331  1  0.75897655  0.61741367  0.74311913  1
  O  O332  1  0.36864514  0.12691981  0.36729242  1
  O  O333  1  0.37390101  0.11738658  0.86947910  1
  O  O334  1  0.36351733  0.60357067  0.37882051  1
  O  O335  1  0.39883888  0.63649570  0.86222920  1
  O  O336  1  0.87013268  0.11176533  0.37263389  1
  O  O337  1  0.86337590  0.13060776  0.88768219  1
  O  O338  1  0.87430855  0.63406929  0.35847227  1
  O  O339  1  0.88847619  0.62308110  0.85210503  1
  O  O340  1  0.11813231  0.38774358  0.13303426  1
  O  O341  1  0.13321392  0.37125749  0.62035111  1
  O  O342  1  0.13907185  0.86831862  0.15128273  1
  O  O343  1  0.14343740  0.85781095  0.60130608  1
  O  O344  1  0.62607965  0.39029590  0.13555372  1
  O  O345  1  0.62096773  0.38856660  0.61822942  1
  O  O346  1  0.61867144  0.89124165  0.13503525  1
  O  O347  1  0.63155564  0.89217409  0.61345089  1
  O  O348  1  0.12729791  0.26070143  0.25358018  1
  O  O349  1  0.11484075  0.24406744  0.76044588  1
  O  O350  1  0.13179406  0.75870578  0.26542348  1
  O  O351  1  0.10267556  0.73459095  0.74891520  1
  O  O352  1  0.62283547  0.26145409  0.25552129  1
  O  O353  1  0.65783818  0.23507749  0.73379808  1
  O  O354  1  0.62514588  0.76070572  0.25141086  1
  O  O355  1  0.59731477  0.75302507  0.74006829  1
  O  O356  1  0.37205498  0.24295299  0.23896043  1
  O  O357  1  0.37140098  0.23478657  0.75729146  1
  O  O358  1  0.39197445  0.75864556  0.25668175  1
  O  O359  1  0.41749715  0.74766055  0.75158264  1
  O  O360  1  0.86540208  0.24878191  0.20960780  1
  O  O361  1  0.84635968  0.21416009  0.74454317  1
  O  O362  1  0.87224696  0.74339786  0.23451660  1
  O  O363  1  0.87969596  0.73400626  0.73660580  1
  O  O364  1  0.39113929  0.49244866  0.48995237  1
  O  O365  1  0.37973620  0.50575176  1.01845773  1
  O  O366  1  0.38391388  0.99030753  0.48792996  1
  O  O367  1  0.37981095  0.99941501  0.99383310  1
  O  O368  1  0.87522090  0.47608712  0.49244460  1
  O  O369  1  0.86215140  0.49528055  0.99449342  1
  O  O370  1  0.86116911  0.98370156  0.47544917  1
  O  O371  1  0.91893534  0.99799763  0.98778596  1
  O  O372  1  0.09585408  -0.04796102  -0.01077379  1
  O  O373  1  0.13593587  0.02322271  0.49577448  1
  O  O374  1  0.12836699  0.51365440  0.02210005  1
  O  O375  1  0.09872630  0.48424519  0.48679732  1
  O  O376  1  0.60281220  -0.01285870  0.01422184  1
  O  O377  1  0.61161875  -0.00096009  0.49298756  1
  O  O378  1  0.60598629  0.50178996  0.01800300  1
  O  O379  1  0.61975588  0.50510607  0.49605497  1
  O  O380  1  0.37548746  0.35854694  0.13209773  1
  O  O381  1  0.36870620  0.36811236  0.61598975  1
  O  O382  1  0.36207931  0.86434545  0.13976991  1
  O  O383  1  0.37544337  0.86925018  0.61327577  1
  O  O384  1  0.85081158  0.39279605  0.12210010  1
  O  O385  1  0.86175260  0.36947783  0.61908917  1
  O  O386  1  0.89420668  0.86928674  0.12574604  1
  O  O387  1  0.87470484  0.89455982  0.60424377  1
  O  O388  1  0.14210193  0.13256727  0.37758551  1
  O  O389  1  0.14138397  0.11886825  0.87701602  1
  O  O390  1  0.13120294  0.61704239  0.37660954  1
  O  O391  1  0.10550800  0.62317904  0.89788109  1
  O  O392  1  0.63795764  0.13558798  0.36111927  1
  O  O393  1  0.61872633  0.11824003  0.87514854  1
  O  O394  1  0.62969765  0.63187575  0.38256087  1
  O  O395  1  0.59763799  0.62251124  0.86920331  1
