# generated using pymatgen
data_V35Zn35O128
_symmetry_space_group_name_H-M   'P 1'
_cell_length_a   16.90174337
_cell_length_b   16.87058631
_cell_length_c   16.82992279
_cell_angle_alpha   90.01826979
_cell_angle_beta   89.79346202
_cell_angle_gamma   89.93623222
_symmetry_Int_Tables_number   1
_chemical_formula_structural   V35Zn35O128
_chemical_formula_sum   'V70 Zn70 O256'
_cell_volume   4798.88883237
_cell_formula_units_Z   2
loop_
 _symmetry_equiv_pos_site_id
 _symmetry_equiv_pos_as_xyz
  1  'x, y, z'
loop_
 _atom_site_type_symbol
 _atom_site_label
 _atom_site_symmetry_multiplicity
 _atom_site_fract_x
 _atom_site_fract_y
 _atom_site_fract_z
 _atom_site_occupancy
  V  V0  1  0.24597017  0.62166459  0.36909558  1
  V  V1  1  -0.02086071  0.00473882  0.49841727  1
  V  V2  1  0.62646369  -0.01006457  0.60643016  1
  V  V3  1  0.12134755  0.12069779  0.00269294  1
  V  V4  1  0.86461255  0.26078193  0.11379443  1
  V  V5  1  0.49859847  0.87884762  0.88001050  1
  V  V6  1  0.87284200  0.50492713  0.38388733  1
  V  V7  1  -0.00775714  0.64435779  0.12711287  1
  V  V8  1  0.86424012  0.11272097  0.25254903  1
  V  V9  1  0.25804284  -0.00115483  0.75247269  1
  V  V10  1  -0.00872892  0.38404676  0.38689541  1
  V  V11  1  0.62489795  0.11767422  -0.00298479  1
  V  V12  1  0.87442436  0.00804722  0.85670757  1
  V  V13  1  0.38558002  0.49179925  0.86695735  1
  V  V14  1  0.12898834  0.87549857  0.74513762  1
  V  V15  1  0.62302323  0.37975869  0.75156603  1
  V  V16  1  0.38977848  0.26588455  0.14849094  1
  V  V17  1  0.38939096  -0.00559489  0.40243977  1
  V  V18  1  0.87140614  0.63675169  0.24813984  1
  V  V19  1  0.26020155  0.74648339  0.50606760  1
  V  V20  1  0.61343733  0.72750423  0.38118536  1
  V  V21  1  0.00203616  0.74285995  0.73511722  1
  V  V22  1  0.12548376  0.26358319  0.86673860  1
  V  V23  1  0.11595828  0.61968264  -0.00384890  1
  V  V24  1  0.50839031  0.61498792  0.11017052  1
  V  V25  1  0.75614843  0.14434000  0.87039845  1
  V  V26  1  0.38564979  0.13917526  0.74664782  1
  V  V27  1  0.60459802  0.26126670  0.87912070  1
  V  V28  1  0.92069422  0.43353686  0.92247716  1
  V  V29  1  0.11439507  0.24036458  0.38375582  1
  V  V30  1  0.37283868  0.61583328  0.23856490  1
  V  V31  1  0.74508973  0.11670420  0.37872478  1
  V  V32  1  -0.01320027  0.25503835  0.24792598  1
  V  V33  1  0.12111998  0.74647752  0.87220794  1
  V  V34  1  0.51384787  0.13368557  0.60205197  1
  V  V35  1  0.50601564  0.10777307  0.12987170  1
  V  V36  1  0.23767244  0.49284039  0.74386249  1
  V  V37  1  0.11687644  0.37740350  0.24303718  1
  V  V38  1  0.77017658  0.75778664  0.00364903  1
  V  V39  1  0.38258306  0.37732766  0.00080002  1
  V  V40  1  0.24391527  0.26193699  0.00675811  1
  V  V41  1  0.62220720  0.26438605  0.34825014  1
  V  V42  1  0.11213468  0.62618515  0.50592681  1
  V  V43  1  0.85747831  0.62833876  0.75122022  1
  V  V44  1  -0.01244083  0.24633997  0.74081649  1
  V  V45  1  0.73521970  0.25424572  0.50071916  1
  V  V46  1  0.73252590  0.87694702  0.14157738  1
  V  V47  1  0.87496452  0.22024810  0.61523405  1
  V  V48  1  -0.00843477  0.88504874  0.36631785  1
  V  V49  1  0.73223456  0.37973978  0.11712858  1
  V  V50  1  -0.00728916  0.00301283  -0.00178662  1
  V  V51  1  0.27201926  0.86945989  0.62322897  1
  V  V52  1  0.74585984  0.74610897  0.49525786  1
  V  V53  1  0.24697280  0.75639111  -0.00204300  1
  V  V54  1  0.26098367  0.12697276  0.37378043  1
  V  V55  1  0.74653564  0.49857779  0.24605973  1
  V  V56  1  0.88132223  0.76856838  0.60530017  1
  V  V57  1  0.13451483  0.00431150  0.60411984  1
  V  V58  1  0.76939262  0.38917440  0.62461104  1
  V  V59  1  0.12774314  0.76401884  0.36032651  1
  V  V60  1  -0.00359281  0.12316039  0.12253863  1
  V  V61  1  0.25708031  0.11249584  0.88126080  1
  V  V62  1  0.63636761  0.63557900  -0.02459984  1
  V  V63  1  0.48116197  0.85372594  0.42945530  1
  V  V64  1  0.00230589  0.87984521  0.87542734  1
  V  V65  1  0.49037095  0.76402667  0.24507979  1
  V  V66  1  0.24026207  0.49614072  0.23854413  1
  V  V67  1  0.36780144  0.75423500  0.11273696  1
  V  V68  1  0.11302104  0.48741962  0.62076186  1
  V  V69  1  0.10744726  0.49812182  0.11912270  1
  Zn  Zn70  1  0.37066509  0.36688980  0.50222308  1
  Zn  Zn71  1  0.25905963  0.62245289  0.86728157  1
  Zn  Zn72  1  0.53433172  0.48042774  -0.00399475  1
  Zn  Zn73  1  0.62996248  0.50013571  0.59648056  1
  Zn  Zn74  1  0.37732245  0.48551301  0.37361115  1
  Zn  Zn75  1  0.72893933  -0.04060370  0.74648342  1
  Zn  Zn76  1  0.17716067  0.19556026  0.19224986  1
  Zn  Zn77  1  0.16026220  0.17049047  0.70404267  1
  Zn  Zn78  1  0.18331030  0.68776675  0.17966539  1
  Zn  Zn79  1  0.19323200  0.67726471  0.68694320  1
  Zn  Zn80  1  0.68593953  0.18297721  0.18311296  1
  Zn  Zn81  1  0.68775776  0.19378682  0.68991141  1
  Zn  Zn82  1  0.68716039  0.69113970  0.18814515  1
  Zn  Zn83  1  0.71243579  0.75282278  0.70722344  1
  Zn  Zn84  1  0.29468984  0.31782855  0.33895415  1
  Zn  Zn85  1  0.30627187  0.31322406  0.81446718  1
  Zn  Zn86  1  0.32351081  0.81193362  0.31892651  1
  Zn  Zn87  1  0.31301373  0.80136056  0.80958325  1
  Zn  Zn88  1  0.80504911  0.31815527  0.31307246  1
  Zn  Zn89  1  0.80986082  0.33608036  0.81246741  1
  Zn  Zn90  1  0.79922564  0.82002051  0.32271964  1
  Zn  Zn91  1  0.82271153  0.80934738  0.82577344  1
  Zn  Zn92  1  0.17930629  0.43549527  0.43684204  1
  Zn  Zn93  1  0.18931888  0.44264292  0.93506442  1
  Zn  Zn94  1  0.21266346  0.93851946  0.42749254  1
  Zn  Zn95  1  0.18784071  0.93634313  1.06220121  1
  Zn  Zn96  1  0.68621200  0.44293077  0.43613458  1
  Zn  Zn97  1  0.71173369  0.44358534  0.92595781  1
  Zn  Zn98  1  0.67215010  0.92562808  0.40707060  1
  Zn  Zn99  1  0.69953531  0.93834361  0.94512472  1
  Zn  Zn100  1  0.30165406  0.11747822  0.09571181  1
  Zn  Zn101  1  0.33539017  0.14965963  0.54295986  1
  Zn  Zn102  1  0.30395247  0.56462024  0.05534762  1
  Zn  Zn103  1  0.29633700  0.54612651  0.54947544  1
  Zn  Zn104  1  0.81068199  0.06237860  0.05761894  1
  Zn  Zn105  1  0.79301761  0.05166916  0.55795468  1
  Zn  Zn106  1  0.81248846  0.56081811  0.05639661  1
  Zn  Zn107  1  0.82553254  0.57702362  0.57127116  1
  Zn  Zn108  1  0.43576379  0.43922013  0.17874643  1
  Zn  Zn109  1  0.43732953  0.42349972  0.68494531  1
  Zn  Zn110  1  0.41281795  0.95724695  0.21514504  1
  Zn  Zn111  1  0.44434780  0.95674636  0.67917320  1
  Zn  Zn112  1  0.92826573  0.44395471  0.18785408  1
  Zn  Zn113  1  0.94369573  0.44358596  0.71760551  1
  Zn  Zn114  1  0.93659201  0.92926712  0.18985205  1
  Zn  Zn115  1  0.94937550  0.94368476  0.68078013  1
  Zn  Zn116  1  0.05592227  0.05630545  0.30732566  1
  Zn  Zn117  1  0.06742175  0.06922214  0.81112859  1
  Zn  Zn118  1  0.05689472  0.56998971  0.31181271  1
  Zn  Zn119  1  0.05183264  0.55532332  0.81107107  1
  Zn  Zn120  1  0.55938500  0.06602252  0.31545918  1
  Zn  Zn121  1  0.59181649  0.09521026  0.78044267  1
  Zn  Zn122  1  0.56077010  0.56630019  0.31334838  1
  Zn  Zn123  1  0.57769807  0.54837043  0.82628798  1
  Zn  Zn124  1  0.44401975  0.21341347  0.42427922  1
  Zn  Zn125  1  0.43645957  0.18862270  0.94603106  1
  Zn  Zn126  1  0.43856895  0.67076011  0.42896622  1
  Zn  Zn127  1  0.43338930  0.68557685  0.91729383  1
  Zn  Zn128  1  0.93320941  0.18468822  0.43655522  1
  Zn  Zn129  1  0.92401627  0.21991820  0.91799294  1
  Zn  Zn130  1  0.94123682  0.69607535  0.42422588  1
  Zn  Zn131  1  0.93307421  0.68325345  0.93536038  1
  Zn  Zn132  1  0.04757744  0.31789256  0.05309400  1
  Zn  Zn133  1  0.05140799  0.31018695  0.56475111  1
  Zn  Zn134  1  0.06105256  0.81841901  0.06476594  1
  Zn  Zn135  1  0.06987100  0.82111492  0.54907674  1
  Zn  Zn136  1  0.56628194  0.30233485  0.06373172  1
  Zn  Zn137  1  0.55092181  0.32310083  0.57952790  1
  Zn  Zn138  1  0.56896258  0.80705978  0.07235407  1
  Zn  Zn139  1  0.58033608  0.80027434  0.57625056  1
  O  O140  1  0.10676387  0.13690997  0.11629360  1
  O  O141  1  0.15061868  0.10243086  0.61505487  1
  O  O142  1  0.10965422  0.62071027  0.11796542  1
  O  O143  1  0.12413090  0.62477983  0.60926854  1
  O  O144  1  0.62407979  0.12478427  0.10644731  1
  O  O145  1  0.61841225  0.11319246  0.63803862  1
  O  O146  1  0.60659129  0.62677391  0.12919441  1
  O  O147  1  0.65266417  0.61051348  0.64300075  1
  O  O148  1  0.38680168  0.36933496  0.37785702  1
  O  O149  1  0.36726065  0.37952027  0.89078460  1
  O  O150  1  0.37452523  0.88420062  0.40744650  1
  O  O151  1  0.39338395  0.86973241  0.87833484  1
  O  O152  1  0.88405619  0.38804686  0.36898981  1
  O  O153  1  0.90169146  0.32916001  0.87688507  1
  O  O154  1  0.89427296  0.87284362  0.36204923  1
  O  O155  1  0.89504706  0.89200745  0.86651114  1
  O  O156  1  0.28115911  0.01281988  0.37345281  1
  O  O157  1  0.24985037  0.01144693  0.87040601  1
  O  O158  1  0.23402877  0.51330198  0.35740882  1
  O  O159  1  0.25377274  0.49944409  0.86114517  1
  O  O160  1  0.74971079  0.01859742  0.38401870  1
  O  O161  1  0.76980648  -0.00960209  0.86468761  1
  O  O162  1  0.76715746  0.49371233  0.36425649  1
  O  O163  1  0.81305004  0.43713338  0.87369667  1
  O  O164  1  0.22903511  0.50869177  0.13299458  1
  O  O165  1  0.23768894  0.50281563  0.63517842  1
  O  O166  1  0.30540310  1.01409444  0.14544385  1
  O  O167  1  0.24596811  0.97661881  0.63284369  1
  O  O168  1  0.75552879  0.49085033  0.13407710  1
  O  O169  1  0.75466285  0.49101698  0.60951880  1
  O  O170  1  0.76494971  0.98071727  0.12277821  1
  O  O171  1  0.73066120  1.00264688  0.63905712  1
  O  O172  1  -0.00105440  0.37035740  0.25279889  1
  O  O173  1  0.00838149  0.34476394  0.73593228  1
  O  O174  1  0.01749869  0.90564278  0.26693102  1
  O  O175  1  0.01436712  0.87209925  0.75394303  1
  O  O176  1  0.50687079  0.41445393  0.27177241  1
  O  O177  1  0.52268963  0.38017173  0.75078654  1
  O  O178  1  0.49373845  0.86031412  0.22955505  1
  O  O179  1  0.49574413  0.89106484  0.77595492  1
  O  O180  1  0.52990255  0.13181742  0.22466195  1
  O  O181  1  0.48144704  0.12396102  0.77199095  1
  O  O182  1  0.48244139  0.61790419  0.23512707  1
  O  O183  1  0.50913179  0.57659746  0.72401782  1
  O  O184  1  0.98669291  0.13379430  0.24215673  1
  O  O185  1  1.04294203  0.15068337  0.73352326  1
  O  O186  1  0.99059810  0.62821274  0.23585869  1
  O  O187  1  1.00746394  0.64281118  0.74208008  1
  O  O188  1  0.36141504  0.26212011  0.00559852  1
  O  O189  1  0.37998079  0.24983975  0.50716516  1
  O  O190  1  0.35714117  0.73467518  0.00041922  1
  O  O191  1  0.35636274  0.73079947  0.49108700  1
  O  O192  1  0.87201514  0.23833561  0.01717737  1
  O  O193  1  0.86867280  0.24509023  0.51245061  1
  O  O194  1  0.87134109  0.74740065  0.00825647  1
  O  O195  1  0.88746114  0.76320025  0.50312867  1
  O  O196  1  0.11674950  0.25845355  0.48211673  1
  O  O197  1  0.13155226  0.24490707  0.99893514  1
  O  O198  1  0.13725982  0.74125822  0.49071443  1
  O  O199  1  0.12847025  0.74255828  0.99099672  1
  O  O200  1  0.63595596  0.25784763  0.50878040  1
  O  O201  1  0.62646771  0.24466326  0.98589150  1
  O  O202  1  0.63910369  0.73467859  0.49770296  1
  O  O203  1  0.62720378  0.73604405  1.00446332  1
  O  O204  1  0.49081162  0.27974873  0.14805857  1
  O  O205  1  0.51932101  0.22872130  0.63760355  1
  O  O206  1  0.48713230  0.73629870  0.12788317  1
  O  O207  1  0.58877764  0.65495329  0.64258925  1
  O  O208  1  0.98547727  0.24428169  0.12896752  1
  O  O209  1  0.98299544  0.24184544  0.62389269  1
  O  O210  1  0.99760924  0.74343672  0.12505192  1
  O  O211  1  0.99977700  0.76222919  0.63002120  1
  O  O212  1  -0.00347466  0.26252702  0.36750849  1
  O  O213  1  0.02098968  0.23559675  0.85675499  1
  O  O214  1  0.01978501  0.77085592  0.37536520  1
  O  O215  1  0.00650685  0.76034681  0.86525019  1
  O  O216  1  0.52275419  0.24567614  0.35604680  1
  O  O217  1  0.50512530  0.25700213  0.88074850  1
  O  O218  1  0.45424502  0.76642232  0.35105501  1
  O  O219  1  0.50785397  0.77336066  0.86983470  1
  O  O220  1  0.24386347  0.13410716  0.47272377  1
  O  O221  1  0.24294451  0.12985762  0.99442371  1
  O  O222  1  0.23896381  0.63126884  0.48929712  1
  O  O223  1  0.22954825  0.62996232  0.99295232  1
  O  O224  1  0.75152120  0.13837784  0.48746335  1
  O  O225  1  0.73994097  0.11957478  0.98219156  1
  O  O226  1  0.77859831  0.65124264  0.48784983  1
  O  O227  1  0.74090292  0.63891124  1.00797216  1
  O  O228  1  0.24629133  0.36300493  0.00754755  1
  O  O229  1  0.26208554  0.36084651  0.45064682  1
  O  O230  1  0.24254014  0.85450618  -0.00926358  1
  O  O231  1  0.25427784  0.85922053  0.51354713  1
  O  O232  1  0.75105876  0.38220451  0.01948557  1
  O  O233  1  0.75262995  0.36171584  0.51462513  1
  O  O234  1  0.74829928  0.86359291  0.01228403  1
  O  O235  1  0.75074517  0.83344524  0.43097720  1
  O  O236  1  0.12031985  0.49632586  0.23967914  1
  O  O237  1  0.13018937  0.49983564  0.73874434  1
  O  O238  1  0.15973102  1.03686179  0.25330465  1
  O  O239  1  0.13833139  0.99115344  0.74497175  1
  O  O240  1  0.64940300  0.51852051  0.26343478  1
  O  O241  1  0.64787035  0.47781047  0.77323475  1
  O  O242  1  0.61702099  0.97090630  0.31750576  1
  O  O243  1  0.61881545  0.99078406  0.75595149  1
  O  O244  1  0.44294350  0.02598403  0.31822442  1
  O  O245  1  0.36215466  0.01215906  0.74480516  1
  O  O246  1  0.35644393  0.50145950  0.24325712  1
  O  O247  1  0.37630444  0.48603494  0.76266105  1
  O  O248  1  0.87799207  0.01592303  0.25176674  1
  O  O249  1  0.88981890  0.00822212  0.75709231  1
  O  O250  1  0.86672909  0.51263880  0.25664019  1
  O  O251  1  0.86680061  0.53041375  0.72338837  1
  O  O252  1  0.10484980  0.37156458  0.36331872  1
  O  O253  1  0.12402199  0.36119453  0.88791347  1
  O  O254  1  0.14591989  0.86394987  0.37228091  1
  O  O255  1  0.11999744  0.86150255  0.86009080  1
  O  O256  1  0.63540247  0.36113912  0.37602765  1
  O  O257  1  0.63493475  0.36424886  0.87371727  1
  O  O258  1  0.58555873  0.83280969  0.39279975  1
  O  O259  1  0.60187404  0.88678676  0.87963773  1
  O  O260  1  0.40469850  0.15622958  0.12353117  1
  O  O261  1  0.39797929  0.12569355  0.63929449  1
  O  O262  1  0.38043315  0.62345575  0.12239810  1
  O  O263  1  0.39905272  0.61626737  0.59955192  1
  O  O264  1  0.87361640  0.13569517  0.13571246  1
  O  O265  1  0.86758271  0.12259541  0.62075921  1
  O  O266  1  0.88681265  0.62359881  0.13164579  1
  O  O267  1  0.87345262  0.66069753  0.63529209  1
  O  O268  1  0.25755439  0.23044852  0.11485212  1
  O  O269  1  0.24105281  0.23899574  0.61116878  1
  O  O270  1  0.25563329  0.74286440  0.10903582  1
  O  O271  1  0.25310426  0.75470191  0.61738783  1
  O  O272  1  0.75819642  0.26520213  0.13169492  1
  O  O273  1  0.76158433  0.24701535  0.61559051  1
  O  O274  1  0.74191866  0.76382869  0.11995017  1
  O  O275  1  0.76373784  0.77148027  0.59713869  1
  O  O276  1  0.21763004  0.23216345  0.34641227  1
  O  O277  1  0.24362726  0.24542440  0.89446804  1
  O  O278  1  0.24750773  0.74157742  0.37966282  1
  O  O279  1  0.23610182  0.74265496  0.87998872  1
  O  O280  1  0.74553408  0.25172807  0.38874958  1
  O  O281  1  0.76004905  0.24339781  0.87259476  1
  O  O282  1  0.70583649  0.70310265  0.35976409  1
  O  O283  1  0.75691873  0.75558215  0.90203974  1
  O  O284  1  0.00539004  0.12281065  0.00345925  1
  O  O285  1  -0.00833003  0.10571632  0.49568822  1
  O  O286  1  0.00726548  0.63225569  0.01095032  1
  O  O287  1  0.01432656  0.63325465  0.49039250  1
  O  O288  1  0.51330627  0.13163109  0.01145612  1
  O  O289  1  0.51428766  0.14070026  0.50299740  1
  O  O290  1  0.51242948  0.62993859  0.00273446  1
  O  O291  1  0.45667266  0.61943902  0.55136857  1
  O  O292  1  0.45383533  0.38368096  0.58219113  1
  O  O293  1  0.48559106  0.37382099  1.00543573  1
  O  O294  1  0.48283367  0.80777133  0.51957764  1
  O  O295  1  0.49882225  0.86257205  0.98404965  1
  O  O296  1  0.99539434  0.37657302  0.48542093  1
  O  O297  1  0.98636544  0.38482505  0.98687757  1
  O  O298  1  1.01246884  0.89169659  0.48093606  1
  O  O299  1  1.01209360  0.89021101  0.98547831  1
  O  O300  1  0.49989471  0.46533319  0.33197915  1
  O  O301  1  0.48873835  0.49413317  0.88280027  1
  O  O302  1  0.49710877  0.95204242  0.44233860  1
  O  O303  1  0.48725572  0.98018912  0.89763863  1
  O  O304  1  0.99175445  0.49058756  0.36860670  1
  O  O305  1  0.97765617  0.47632539  0.84341181  1
  O  O306  1  0.99885896  0.99686854  0.38725409  1
  O  O307  1  0.99876123  1.00112437  0.87620585  1
  O  O308  1  -0.01305010  0.01532863  0.11434083  1
  O  O309  1  0.02402056  -0.00764780  0.60635143  1
  O  O310  1  0.00504757  0.50973038  0.12601133  1
  O  O311  1  0.01505190  0.49809196  0.63620321  1
  O  O312  1  0.47914626  0.01176712  0.13633736  1
  O  O313  1  0.51516395  0.01658389  0.61881776  1
  O  O314  1  0.49717429  0.50993150  0.10877539  1
  O  O315  1  0.51412876  0.52557115  0.66690899  1
  O  O316  1  0.22607642  0.38565091  0.25713519  1
  O  O317  1  0.25465967  0.39202921  0.74953407  1
  O  O318  1  0.32295530  0.90180054  0.25345847  1
  O  O319  1  0.25097056  0.87310980  0.74454489  1
  O  O320  1  0.75470488  0.39125156  0.23946737  1
  O  O321  1  0.74302751  0.36078662  0.72617636  1
  O  O322  1  0.73355026  0.86394017  0.24371530  1
  O  O323  1  0.74268801  0.84833774  0.75766041  1
  O  O324  1  0.20984667  0.10208026  0.26080664  1
  O  O325  1  0.25454883  0.11822106  0.76378272  1
  O  O326  1  0.25333549  0.61922119  0.24960753  1
  O  O327  1  0.25297106  0.60750953  0.75187530  1
  O  O328  1  0.75872014  0.12598832  0.25505282  1
  O  O329  1  0.73530085  0.12064967  0.77179855  1
  O  O330  1  0.76586826  0.61569265  0.23341300  1
  O  O331  1  0.75991112  0.65689779  0.75219480  1
  O  O332  1  0.35434459  0.15677088  0.35932718  1
  O  O333  1  0.35956432  0.13141895  0.87607292  1
  O  O334  1  0.36360189  0.61186052  0.35875336  1
  O  O335  1  0.37086191  0.59289402  0.89362909  1
  O  O336  1  0.86165162  0.13576235  0.35953183  1
  O  O337  1  0.86580646  0.11902021  0.87437478  1
  O  O338  1  0.89000190  0.61447878  0.35899393  1
  O  O339  1  0.88644087  0.62928305  0.85000038  1
  O  O340  1  0.10925237  0.38220775  0.13226814  1
  O  O341  1  0.12320141  0.38813849  0.60775353  1
  O  O342  1  0.12706270  0.87708878  0.13045692  1
  O  O343  1  0.13545536  0.87602109  0.63416233  1
  O  O344  1  0.63216288  0.37838792  0.12114208  1
  O  O345  1  0.63223316  0.38681965  0.63663632  1
  O  O346  1  0.63173968  0.88445390  0.12162381  1
  O  O347  1  0.61113708  0.89172399  0.63123885  1
  O  O348  1  0.10200389  0.26027603  0.25054629  1
  O  O349  1  0.15510102  0.26361113  0.76905854  1
  O  O350  1  0.13390752  0.74826648  0.26160404  1
  O  O351  1  0.12040520  0.75366708  0.75127742  1
  O  O352  1  0.64157338  0.26433908  0.24941579  1
  O  O353  1  0.62889075  0.25958467  0.76903177  1
  O  O354  1  0.59176067  0.73312231  0.26434552  1
  O  O355  1  0.60111805  0.73340017  0.67292517  1
  O  O356  1  0.35862249  0.27130171  0.24176179  1
  O  O357  1  0.36531143  0.23781522  0.75275237  1
  O  O358  1  0.37312188  0.73503535  0.22883196  1
  O  O359  1  0.38977988  0.72126054  0.80885637  1
  O  O360  1  0.87855268  0.24935983  0.24378791  1
  O  O361  1  0.88449750  0.23771039  0.73567309  1
  O  O362  1  0.86189872  0.73416288  0.26627134  1
  O  O363  1  0.89676608  0.75267110  0.74837367  1
  O  O364  1  0.36478201  0.48561981  0.48802518  1
  O  O365  1  0.36109162  0.48021875  0.99806330  1
  O  O366  1  0.38426525  1.04827261  0.48629594  1
  O  O367  1  0.29450113  0.97848351  1.07347148  1
  O  O368  1  0.87367059  0.51390312  0.48260030  1
  O  O369  1  0.88490827  0.50632181  0.98710870  1
  O  O370  1  0.88087250  0.99234691  0.51097298  1
  O  O371  1  0.88924544  1.00923560  0.98252766  1
  O  O372  1  0.11708814  0.01527951  0.00371043  1
  O  O373  1  0.14506503  -0.00845959  0.50534113  1
  O  O374  1  0.12580845  0.50854252  0.00647370  1
  O  O375  1  0.12897415  0.51398691  0.50775881  1
  O  O376  1  0.62581795  0.01781675  -0.01579885  1
  O  O377  1  0.64425254  -0.01417313  0.50754771  1
  O  O378  1  0.63834756  0.52051135  -0.02412583  1
  O  O379  1  0.61083526  0.50522819  0.48765201  1
  O  O380  1  0.36663351  0.37077376  0.11380369  1
  O  O381  1  0.26000850  0.31010294  0.61449949  1
  O  O382  1  0.37859511  0.85004108  0.11276816  1
  O  O383  1  0.37014838  0.87653788  0.63462328  1
  O  O384  1  0.87577161  0.36277207  0.12464656  1
  O  O385  1  0.86831549  0.37849137  0.63512357  1
  O  O386  1  0.85340227  0.88413110  0.13155629  1
  O  O387  1  0.88194805  0.86618003  0.63250576  1
  O  O388  1  0.10030285  0.14104398  0.37684854  1
  O  O389  1  0.13935988  0.13404737  0.88499553  1
  O  O390  1  0.12987313  0.63626128  0.37810996  1
  O  O391  1  0.10994311  0.63224060  0.88020271  1
  O  O392  1  0.64296787  0.14249783  0.36350119  1
  O  O393  1  0.63164762  0.14478972  0.88076679  1
  O  O394  1  0.54993375  0.64295791  0.39855846  1
  O  O395  1  0.62149610  0.64223660  0.87494746  1
