# generated using pymatgen
data_V35Zn35O128
_symmetry_space_group_name_H-M   'P 1'
_cell_length_a   16.91320868
_cell_length_b   16.99431418
_cell_length_c   16.92781757
_cell_angle_alpha   89.57400442
_cell_angle_beta   89.81316140
_cell_angle_gamma   90.82407108
_symmetry_Int_Tables_number   1
_chemical_formula_structural   V35Zn35O128
_chemical_formula_sum   'V70 Zn70 O256'
_cell_volume   4864.86990654
_cell_formula_units_Z   2
loop_
 _symmetry_equiv_pos_site_id
 _symmetry_equiv_pos_as_xyz
  1  'x, y, z'
loop_
 _atom_site_type_symbol
 _atom_site_label
 _atom_site_symmetry_multiplicity
 _atom_site_fract_x
 _atom_site_fract_y
 _atom_site_fract_z
 _atom_site_occupancy
  V  V0  1  0.86054981  0.12129905  0.74603225  1
  V  V1  1  0.39196102  0.63045755  0.23814993  1
  V  V2  1  0.03089873  0.10441993  0.12206056  1
  V  V3  1  0.50283618  0.49753304  -0.00048671  1
  V  V4  1  0.87131203  0.00183198  0.88687716  1
  V  V5  1  0.26775083  0.14100501  0.37373086  1
  V  V6  1  0.25420394  -0.00392603  0.24480586  1
  V  V7  1  0.62244622  0.86607587  0.75636589  1
  V  V8  1  0.25821343  0.37500682  0.13811858  1
  V  V9  1  0.08043112  0.78202046  0.35263005  1
  V  V10  1  0.51954250  0.76490063  0.25904605  1
  V  V11  1  -0.00892583  0.25529087  0.24519165  1
  V  V12  1  0.49498862  0.87435320  0.88108365  1
  V  V13  1  0.74376925  0.63172499  0.86768835  1
  V  V14  1  0.24658736  0.63026888  0.38640424  1
  V  V15  1  0.36999715  0.51345377  0.86552432  1
  V  V16  1  0.62310673  0.12668560  0.50376324  1
  V  V17  1  0.87416375  0.89358651  0.48644496  1
  V  V18  1  0.62101393  0.25535170  0.37643671  1
  V  V19  1  0.36939012  0.87203559  0.01416438  1
  V  V20  1  0.25825791  0.50118950  0.25286458  1
  V  V21  1  0.75066552  0.87879361  0.63679906  1
  V  V22  1  0.63303581  0.50614798  0.12517525  1
  V  V23  1  -0.00044991  0.85548445  0.87641195  1
  V  V24  1  0.00374295  0.25076297  0.74704715  1
  V  V25  1  0.75867113  0.87964486  0.14513664  1
  V  V26  1  0.74611768  0.50214556  0.74609591  1
  V  V27  1  0.61660846  0.37487270  0.75357917  1
  V  V28  1  0.75309073  0.75962153  -0.00430189  1
  V  V29  1  0.00202615  0.10906349  0.62602937  1
  V  V30  1  0.74241422  0.13190409  0.88686991  1
  V  V31  1  -0.02891215  0.37652735  0.38448602  1
  V  V32  1  0.49960807  0.62827393  0.60200234  1
  V  V33  1  0.88986947  0.63493274  0.74806558  1
  V  V34  1  0.12040877  0.49520421  0.12672337  1
  V  V35  1  0.25387739  0.12331773  0.86910565  1
  V  V36  1  0.26062870  0.73601683  0.02539069  1
  V  V37  1  0.49947546  0.23930631  0.25137090  1
  V  V38  1  0.61905236  0.63363473  -0.00670130  1
  V  V39  1  -0.02211938  0.59729063  0.57373337  1
  V  V40  1  0.37751132  0.00510647  0.86726974  1
  V  V41  1  0.15155008  0.73078716  0.86303436  1
  V  V42  1  0.13845854  0.49676534  0.62300187  1
  V  V43  1  0.38055394  0.48957981  0.38449656  1
  V  V44  1  0.25351938  0.24175244  0.00518391  1
  V  V45  1  -0.04733923  0.32430815  0.90675659  1
  V  V46  1  0.38228791  0.37344302  -0.00996526  1
  V  V47  1  0.90757015  0.77529505  0.63518146  1
  V  V48  1  0.48803389  0.73928552  0.75468338  1
  V  V49  1  0.50844649  0.48503026  0.50124266  1
  V  V50  1  0.75705528  0.25430667  0.50171977  1
  V  V51  1  0.35911667  0.75675220  0.61626908  1
  V  V52  1  0.62638159  0.00242437  0.63560233  1
  V  V53  1  0.00001546  0.01255956  0.47089103  1
  V  V54  1  0.60356833  -0.00432999  0.13416459  1
  V  V55  1  0.62773887  0.38286019  0.25117825  1
  V  V56  1  0.37797315  -0.01895641  0.37471730  1
  V  V57  1  0.13226956  0.25030988  0.87999466  1
  V  V58  1  0.48243683  0.12763559  0.63147315  1
  V  V59  1  0.88718521  0.50182587  0.87826631  1
  V  V60  1  0.75198372  0.35635629  0.10668211  1
  V  V61  1  0.75572870  0.11656958  0.37152890  1
  V  V62  1  0.75163086  0.37654221  0.62417639  1
  V  V63  1  0.48902064  0.24716938  0.75385225  1
  V  V64  1  0.13346401  0.26483281  0.37310396  1
  V  V65  1  0.11520412  0.61549175  0.00029864  1
  V  V66  1  0.38495093  0.23987400  0.13513854  1
  V  V67  1  0.89394464  0.74082440  0.12008831  1
  V  V68  1  0.49424762  -0.01275894  0.50094623  1
  V  V69  1  0.25669383  0.34367361  0.62586704  1
  Zn  Zn70  1  0.12484234  0.38253310  0.75282580  1
  Zn  Zn71  1  0.18693367  -0.04456353  0.72324509  1
  Zn  Zn72  1  0.88169179  0.25687049  0.62208694  1
  Zn  Zn73  1  0.13696217  0.13312089  0.49878286  1
  Zn  Zn74  1  0.62526799  0.25193993  0.88148782  1
  Zn  Zn75  1  0.75578019  0.74565054  0.50622771  1
  Zn  Zn76  1  0.19118237  0.18620422  0.19823646  1
  Zn  Zn77  1  0.17993056  0.16057667  0.69713005  1
  Zn  Zn78  1  0.17793500  0.67820601  0.19658754  1
  Zn  Zn79  1  0.18636628  0.66620041  0.68523455  1
  Zn  Zn80  1  0.68349919  0.18410083  0.18902954  1
  Zn  Zn81  1  0.67971065  0.19429156  0.68791428  1
  Zn  Zn82  1  0.64731546  0.71547511  0.16617498  1
  Zn  Zn83  1  0.70590973  0.66175293  0.64848935  1
  Zn  Zn84  1  0.32047535  0.31275520  0.45000536  1
  Zn  Zn85  1  0.30644558  0.31941095  0.80769630  1
  Zn  Zn86  1  0.31054574  0.80716279  0.30006898  1
  Zn  Zn87  1  0.31237917  0.81484484  0.79950604  1
  Zn  Zn88  1  0.80595697  0.30549597  0.30171843  1
  Zn  Zn89  1  0.80917170  0.31078985  0.80866038  1
  Zn  Zn90  1  0.86653486  0.81996254  0.29614044  1
  Zn  Zn91  1  0.81418479  0.81800375  0.81276650  1
  Zn  Zn92  1  0.18947074  0.44129404  0.45235182  1
  Zn  Zn93  1  0.19444574  0.43343235  0.94092767  1
  Zn  Zn94  1  0.16122675  0.97263650  0.38881465  1
  Zn  Zn95  1  0.20414486  0.90840118  0.90673655  1
  Zn  Zn96  1  0.68062676  0.43585668  0.44388167  1
  Zn  Zn97  1  0.68947786  0.44069832  0.93285591  1
  Zn  Zn98  1  0.68856895  0.93618744  0.44805320  1
  Zn  Zn99  1  0.68280081  0.94807354  0.93247105  1
  Zn  Zn100  1  0.32461375  0.05766039  0.05749356  1
  Zn  Zn101  1  0.31047638  0.06073931  0.55320352  1
  Zn  Zn102  1  0.31840397  0.55888420  0.06127417  1
  Zn  Zn103  1  0.32201520  0.56814082  0.56684082  1
  Zn  Zn104  1  0.73020287  0.05918776  0.05878979  1
  Zn  Zn105  1  0.81115780  0.06652638  0.56285097  1
  Zn  Zn106  1  0.80890140  0.56409334  0.05768750  1
  Zn  Zn107  1  0.81628851  0.54935959  0.55079937  1
  Zn  Zn108  1  0.44575143  0.43681342  0.19172115  1
  Zn  Zn109  1  0.43027502  0.43825737  0.68126939  1
  Zn  Zn110  1  0.43797728  0.93514824  0.19666506  1
  Zn  Zn111  1  0.43391924  0.93419973  0.68818275  1
  Zn  Zn112  1  0.94869308  0.39665257  0.16863266  1
  Zn  Zn113  1  0.93957254  0.44379433  0.68705187  1
  Zn  Zn114  1  0.93049975  0.93672848  0.06157345  1
  Zn  Zn115  1  0.94859240  0.94000665  0.70956980  1
  Zn  Zn116  1  0.07500337  0.08736890  0.29834242  1
  Zn  Zn117  1  0.05968855  0.05612133  0.81495207  1
  Zn  Zn118  1  0.08206630  0.52445374  0.33188762  1
  Zn  Zn119  1  0.07275755  0.55637761  0.79198421  1
  Zn  Zn120  1  0.56745623  0.05727843  0.31497228  1
  Zn  Zn121  1  0.55789273  0.06133594  0.81580710  1
  Zn  Zn122  1  0.53341530  0.61590036  0.36439115  1
  Zn  Zn123  1  0.55795513  0.55503514  0.81326465  1
  Zn  Zn124  1  0.44428961  0.18820103  0.44256553  1
  Zn  Zn125  1  0.44321128  0.19003145  0.94093544  1
  Zn  Zn126  1  0.40864246  0.70553649  0.42705537  1
  Zn  Zn127  1  0.43577248  0.68953889  0.94154977  1
  Zn  Zn128  1  0.93937881  0.19263255  0.43310590  1
  Zn  Zn129  1  0.94978696  0.14958536  0.93953632  1
  Zn  Zn130  1  0.95457212  0.72611854  0.43953751  1
  Zn  Zn131  1  0.93047427  0.67728046  0.94309240  1
  Zn  Zn132  1  0.07166325  0.31143344  0.05916851  1
  Zn  Zn133  1  0.07246424  0.32122327  0.55455509  1
  Zn  Zn134  1  0.06934750  0.81023134  0.03318255  1
  Zn  Zn135  1  0.07210651  0.83113484  0.53598948  1
  Zn  Zn136  1  0.56390835  0.31754633  0.06805548  1
  Zn  Zn137  1  0.56246869  0.30997685  0.57179967  1
  Zn  Zn138  1  0.56359831  0.82454181  0.06937122  1
  Zn  Zn139  1  0.56168845  0.80944691  0.57161245  1
  O  O140  1  0.13168533  0.12182917  0.12211916  1
  O  O141  1  0.10025982  0.13968191  0.61049230  1
  O  O142  1  0.12885947  0.60518397  0.11572750  1
  O  O143  1  0.07269535  0.60279660  0.60902000  1
  O  O144  1  0.64257054  0.09723135  0.13035212  1
  O  O145  1  0.62102524  0.11850458  0.61962395  1
  O  O146  1  0.63527323  0.61296537  0.10865435  1
  O  O147  1  0.59651049  0.63594202  0.63035295  1
  O  O148  1  0.37504115  0.39114600  0.37725245  1
  O  O149  1  0.37617594  0.37325936  0.88945521  1
  O  O150  1  0.36972556  0.88355741  0.37858320  1
  O  O151  1  0.38460242  0.88246926  0.87727293  1
  O  O152  1  0.87076663  0.36549595  0.37631169  1
  O  O153  1  0.87246860  0.39252838  0.86800388  1
  O  O154  1  0.86036895  0.88612256  0.38953634  1
  O  O155  1  0.88536930  0.89847948  0.85988033  1
  O  O156  1  0.27122940  0.01008418  0.37390905  1
  O  O157  1  0.26178713  0.01717205  0.88194592  1
  O  O158  1  0.26154007  0.49977587  0.37030014  1
  O  O159  1  0.27095775  0.49072034  0.87747679  1
  O  O160  1  0.73465354  0.01747522  0.38538716  1
  O  O161  1  0.76101559  0.01481475  0.87398510  1
  O  O162  1  0.76725530  0.50260296  0.38919140  1
  O  O163  1  0.75435481  0.51096862  0.86118958  1
  O  O164  1  0.25799405  0.48720706  0.13294916  1
  O  O165  1  0.24055353  0.50060186  0.61375365  1
  O  O166  1  0.26981539  1.01740663  0.14824713  1
  O  O167  1  0.24628551  0.97819399  0.61502404  1
  O  O168  1  0.73532170  0.49253720  0.11332819  1
  O  O169  1  0.75497730  0.48612451  0.63305772  1
  O  O170  1  0.77463097  0.97890279  0.12691026  1
  O  O171  1  0.73741774  0.99197600  0.62096425  1
  O  O172  1  -0.00486348  0.36336444  0.27073940  1
  O  O173  1  -0.01157268  0.34454488  0.78520544  1
  O  O174  1  0.13366474  0.88407756  0.10162335  1
  O  O175  1  0.02431354  0.90995467  0.78887714  1
  O  O176  1  0.52013591  0.36496695  0.24493731  1
  O  O177  1  0.51125361  0.36450939  0.73554722  1
  O  O178  1  0.49385120  0.86080770  0.26331644  1
  O  O179  1  0.50323117  0.86819072  0.75890022  1
  O  O180  1  0.51057443  0.14151298  0.25356988  1
  O  O181  1  0.50066546  0.13189548  0.73954803  1
  O  O182  1  0.49327978  0.62112801  0.25087473  1
  O  O183  1  0.50457930  0.64105332  0.75974926  1
  O  O184  1  1.00588387  0.14079956  0.22320803  1
  O  O185  1  0.99014048  0.13457449  0.73604129  1
  O  O186  1  0.88638102  0.57334103  0.27370865  1
  O  O187  1  0.98684828  0.63158772  0.76176496  1
  O  O188  1  0.37748413  0.26042170  0.01159532  1
  O  O189  1  0.39685850  0.26011122  0.50806871  1
  O  O190  1  0.36872633  0.75411659  0.00714130  1
  O  O191  1  0.37106523  0.75925626  0.51569178  1
  O  O192  1  0.88913627  0.26062186  -0.05207286  1
  O  O193  1  0.85962053  0.24589071  0.50386950  1
  O  O194  1  0.85608021  0.74784201  -0.00230687  1
  O  O195  1  0.88664926  0.78173363  0.52291020  1
  O  O196  1  0.11560552  0.24694606  0.47824193  1
  O  O197  1  0.14431875  0.25399910  0.99458514  1
  O  O198  1  0.07756285  0.75004441  0.45624495  1
  O  O199  1  0.14394285  0.72634964  1.00107486  1
  O  O200  1  0.62854451  0.24563969  0.49633529  1
  O  O201  1  0.59438529  0.22856686  0.99767356  1
  O  O202  1  0.63876166  0.78118554  0.48389464  1
  O  O203  1  0.62804097  0.73630158  0.99972015  1
  O  O204  1  0.49351709  0.25432868  0.13735791  1
  O  O205  1  0.50254190  0.23342655  0.63570004  1
  O  O206  1  0.52903768  0.74954912  0.14925216  1
  O  O207  1  0.48942392  0.74569557  0.63604485  1
  O  O208  1  1.00446710  0.28626384  0.14566207  1
  O  O209  1  1.00118354  0.26404580  0.64209353  1
  O  O210  1  0.99255591  0.75802060  0.10245729  1
  O  O211  1  1.00465010  0.79423267  0.63446525  1
  O  O212  1  0.00883598  0.25519248  0.36440278  1
  O  O213  1  0.01650078  0.23333155  0.87580589  1
  O  O214  1  -0.02439509  0.78898226  0.34168411  1
  O  O215  1  -0.03026670  0.76028930  0.86775839  1
  O  O216  1  0.51263374  0.24969336  0.36625155  1
  O  O217  1  0.50811457  0.23861589  0.85717878  1
  O  O218  1  0.50097601  0.72658326  0.36298730  1
  O  O219  1  0.49084408  0.76389495  0.86506854  1
  O  O220  1  0.25083823  0.12158894  0.48255915  1
  O  O221  1  0.26670833  0.13936994  0.99569570  1
  O  O222  1  0.25916688  0.62128016  0.48525575  1
  O  O223  1  0.25431899  0.63377237  1.00580105  1
  O  O224  1  0.73778230  0.13524637  0.50051731  1
  O  O225  1  0.75773812  0.13790883  0.98529334  1
  O  O226  1  0.75399947  0.63931472  0.54642753  1
  O  O227  1  0.73827137  0.63412476  0.98606927  1
  O  O228  1  0.26857620  0.36370577  0.00913084  1
  O  O229  1  0.24636312  0.36649014  0.51686209  1
  O  O230  1  0.26375188  0.85066158  -0.00589616  1
  O  O231  1  0.21418564  0.91953503  0.56557956  1
  O  O232  1  0.73337187  0.36804580  0.00645352  1
  O  O233  1  0.74395802  0.37076434  0.51581009  1
  O  O234  1  0.74035230  0.85546574  -0.02605100  1
  O  O235  1  0.76850194  0.88027927  0.51644617  1
  O  O236  1  0.14263841  0.49998932  0.23444027  1
  O  O237  1  0.05256091  0.46614052  0.70647043  1
  O  O238  1  0.15118113  1.00590217  0.26923074  1
  O  O239  1  0.13718937  1.05179158  0.73628224  1
  O  O240  1  0.62522278  0.48865916  0.23272226  1
  O  O241  1  0.63192142  0.48861101  0.75252873  1
  O  O242  1  0.60998716  0.98973362  0.23800212  1
  O  O243  1  0.61102840  0.99118706  0.73871754  1
  O  O244  1  0.37941525  0.00198109  0.27035026  1
  O  O245  1  0.37537176  -0.00271767  0.76738218  1
  O  O246  1  0.37574685  0.50298131  0.26011217  1
  O  O247  1  0.39378180  0.49901527  0.76838865  1
  O  O248  1  0.88472489  -0.00339610  0.26821592  1
  O  O249  1  0.87800881  0.01992793  0.75469602  1
  O  O250  1  0.85944217  0.51456194  0.24082789  1
  O  O251  1  0.86588573  0.51497588  0.75349490  1
  O  O252  1  0.13479692  0.36675240  0.37666929  1
  O  O253  1  0.13892670  0.35693813  0.87060413  1
  O  O254  1  0.12646838  0.87029256  0.36063062  1
  O  O255  1  0.10792037  0.82696951  0.89436601  1
  O  O256  1  0.63547421  0.36954202  0.36136670  1
  O  O257  1  0.62758335  0.37260556  0.85892748  1
  O  O258  1  0.63371841  0.83528804  0.42303690  1
  O  O259  1  0.60747556  0.88688965  0.86406370  1
  O  O260  1  0.37961010  0.14337580  0.11799378  1
  O  O261  1  0.38435147  0.11575898  0.62544298  1
  O  O262  1  0.38035342  0.61400157  0.13957503  1
  O  O263  1  0.39088839  0.63982681  0.62436476  1
  O  O264  1  0.86719649  0.05011551  0.22347959  1
  O  O265  1  0.88341963  0.13113102  0.63196669  1
  O  O266  1  0.87650319  0.64080391  0.10315295  1
  O  O267  1  0.90741669  0.66063283  0.62858188  1
  O  O268  1  0.26343887  0.25808516  0.12672126  1
  O  O269  1  0.24063389  0.24435781  0.63292786  1
  O  O270  1  0.24700800  0.74305025  0.12358415  1
  O  O271  1  0.26054994  0.73118495  0.63404504  1
  O  O272  1  0.73870430  0.25724718  0.12059101  1
  O  O273  1  0.74923435  0.25977052  0.61787340  1
  O  O274  1  0.74131091  0.76204043  0.10558099  1
  O  O275  1  0.74667706  0.77511349  0.62802952  1
  O  O276  1  0.24836443  0.24812424  0.37530238  1
  O  O277  1  0.25439754  0.24344452  0.88668697  1
  O  O278  1  0.25619226  0.73041077  0.36701112  1
  O  O279  1  0.25128315  0.73945149  0.87577216  1
  O  O280  1  0.73680073  0.24465067  0.38565373  1
  O  O281  1  0.74104179  0.23554163  0.86215358  1
  O  O282  1  0.78806186  0.73116606  0.38550543  1
  O  O283  1  0.75420249  0.73752942  0.87553462  1
  O  O284  1  -0.01164944  0.15423276  0.04534627  1
  O  O285  1  -0.01478721  0.11547969  0.51216848  1
  O  O286  1  0.01644158  0.62383524  -0.00152646  1
  O  O287  1  -0.03218163  0.62076537  0.47714747  1
  O  O288  1  0.54025264  0.16809716  0.00511669  1
  O  O289  1  0.50846474  0.12009663  0.51564005  1
  O  O290  1  0.51467632  0.61955540  -0.00459463  1
  O  O291  1  0.50127081  0.63361792  0.50091197  1
  O  O292  1  0.50492120  0.38616190  0.50993921  1
  O  O293  1  0.48896746  0.37919464  1.00443101  1
  O  O294  1  0.50266928  0.89022944  0.51235370  1
  O  O295  1  0.48903002  0.86161872  0.98757598  1
  O  O296  1  0.99174968  0.35838537  0.48315535  1
  O  O297  1  1.00502453  0.36643200  0.98050764  1
  O  O298  1  0.98805150  0.90344241  0.49357373  1
  O  O299  1  0.99454470  0.88326371  0.97752257  1
  O  O300  1  0.49166000  0.50868778  0.38971202  1
  O  O301  1  0.49208408  0.49924464  0.89226054  1
  O  O302  1  0.49345727  1.00371326  0.39219029  1
  O  O303  1  0.48846856  0.98853630  0.87632206  1
  O  O304  1  0.99268793  0.47688172  0.37243860  1
  O  O305  1  0.98621729  0.50956262  0.86524717  1
  O  O306  1  0.99454458  1.02937056  0.37349564  1
  O  O307  1  0.97582976  1.04281186  0.88851838  1
  O  O308  1  0.00337563  0.00663255  0.11636255  1
  O  O309  1  0.00131900  0.00996516  0.62873742  1
  O  O310  1  0.02279650  0.47811861  0.13045372  1
  O  O311  1  -0.07557848  0.50878260  0.58452583  1
  O  O312  1  0.50399592  -0.00986954  0.11945697  1
  O  O313  1  0.50197251  0.00972972  0.62018757  1
  O  O314  1  0.51636435  0.49248475  0.11090271  1
  O  O315  1  0.48642639  0.51586981  0.60691385  1
  O  O316  1  0.25696799  0.38191710  0.23804458  1
  O  O317  1  0.24001277  0.37007954  0.73457965  1
  O  O318  1  0.26309638  0.89549264  0.24980300  1
  O  O319  1  0.22768247  0.88491512  0.79583844  1
  O  O320  1  0.73291437  0.36571226  0.23559532  1
  O  O321  1  0.73957818  0.38253171  0.74514607  1
  O  O322  1  0.77043292  0.86763726  0.24305683  1
  O  O323  1  0.73059026  0.87477024  0.75292030  1
  O  O324  1  0.25787106  0.12135700  0.26896668  1
  O  O325  1  0.26981484  0.13970369  0.77263137  1
  O  O326  1  0.26205318  0.60979285  0.25101191  1
  O  O327  1  0.16275677  0.56333244  0.71992014  1
  O  O328  1  0.74165282  0.13437187  0.27350485  1
  O  O329  1  0.75988113  0.12809390  0.73902056  1
  O  O330  1  0.69839897  0.62045405  0.30479005  1
  O  O331  1  0.75387977  0.61909885  0.74727076  1
  O  O332  1  0.37030878  0.12930214  0.37959257  1
  O  O333  1  0.37827986  0.11002472  0.88885760  1
  O  O334  1  0.36489964  0.61355312  0.36215953  1
  O  O335  1  0.37800583  0.61190677  0.88233856  1
  O  O336  1  0.85467726  0.12937150  0.38590983  1
  O  O337  1  0.85673927  0.12263189  0.86096903  1
  O  O338  1  0.84236233  0.67787133  0.38459428  1
  O  O339  1  0.86336353  0.61921214  0.86417302  1
  O  O340  1  0.15079491  0.38601213  0.11197065  1
  O  O341  1  0.14081508  0.38067245  0.62705976  1
  O  O342  1  0.15831842  0.95162915  0.06947700  1
  O  O343  1  0.15354423  0.88222442  0.60636380  1
  O  O344  1  0.63342533  0.38357743  0.12954979  1
  O  O345  1  0.63989558  0.36999334  0.63963732  1
  O  O346  1  0.64694942  0.88604172  0.12625369  1
  O  O347  1  0.62813120  0.88318613  0.63871033  1
  O  O348  1  0.11834810  0.24780445  0.26537628  1
  O  O349  1  0.11149913  0.24405657  0.75939024  1
  O  O350  1  0.11412324  0.73037246  0.27191908  1
  O  O351  1  0.13334222  0.73052881  0.76545742  1
  O  O352  1  0.61722045  0.25774307  0.25704904  1
  O  O353  1  0.61628402  0.26230027  0.75192281  1
  O  O354  1  0.62211498  0.75622431  0.26932757  1
  O  O355  1  0.60806864  0.76673346  0.74995283  1
  O  O356  1  0.39111200  0.25025872  0.24138334  1
  O  O357  1  0.39150440  0.25876706  0.75736727  1
  O  O358  1  0.38538480  0.73401845  0.24874625  1
  O  O359  1  0.38474894  0.74587485  0.74786515  1
  O  O360  1  0.89100634  0.24347512  0.25395739  1
  O  O361  1  0.88496518  0.23554234  0.75399946  1
  O  O362  1  0.87729113  0.74067308  0.21974479  1
  O  O363  1  0.87136064  0.74941323  0.73630046  1
  O  O364  1  0.38251415  0.50302295  0.48856859  1
  O  O365  1  0.38234100  0.48600473  0.99754169  1
  O  O366  1  0.38821896  0.99936982  0.49377371  1
  O  O367  1  0.36692180  0.97716662  0.98863280  1
  O  O368  1  0.82826270  0.52020153  0.43081917  1
  O  O369  1  0.87015646  0.51008004  0.97676168  1
  O  O370  1  0.88147642  0.99783922  0.50336054  1
  O  O371  1  0.86438556  0.99823787  0.98679028  1
  O  O372  1  0.14003794  -0.03304612  -0.00579912  1
  O  O373  1  0.10407430  0.01122232  0.48323995  1
  O  O374  1  0.13743859  0.50816669  0.00924963  1
  O  O375  1  0.11279284  0.49224664  0.52344251  1
  O  O376  1  0.63684718  -0.00528079  0.02226304  1
  O  O377  1  0.61290349  0.00782061  0.51206896  1
  O  O378  1  0.62048047  0.50781739  0.00329053  1
  O  O379  1  0.60838704  0.50493812  0.49463303  1
  O  O380  1  0.37056925  0.36901160  0.12137078  1
  O  O381  1  0.35640328  0.36889302  0.63221653  1
  O  O382  1  0.37762292  0.87775260  0.11193203  1
  O  O383  1  0.36680636  0.85659334  0.64062525  1
  O  O384  1  0.85023650  0.38010760  0.12156377  1
  O  O385  1  0.85627707  0.36889966  0.64462606  1
  O  O386  1  0.86155359  0.85482725  0.10932933  1
  O  O387  1  0.87052572  0.87843410  0.64530674  1
  O  O388  1  0.14240262  0.13921123  0.37646048  1
  O  O389  1  0.14715029  0.13649038  0.87783188  1
  O  O390  1  0.14748589  0.60520065  0.37149714  1
  O  O391  1  0.12509431  0.62632806  0.88796829  1
  O  O392  1  0.62496212  0.13404226  0.39020234  1
  O  O393  1  0.64045377  0.11669618  0.86913390  1
  O  O394  1  0.65947104  0.61909021  0.36791209  1
  O  O395  1  0.63201405  0.61748099  0.88400811  1
