# generated using pymatgen
data_V35Zn35O128
_symmetry_space_group_name_H-M   'P 1'
_cell_length_a   16.92777306
_cell_length_b   16.87998825
_cell_length_c   16.96988074
_cell_angle_alpha   89.71626156
_cell_angle_beta   89.98033498
_cell_angle_gamma   90.24042916
_symmetry_Int_Tables_number   1
_chemical_formula_structural   V35Zn35O128
_chemical_formula_sum   'V70 Zn70 O256'
_cell_volume   4848.88160640
_cell_formula_units_Z   2
loop_
 _symmetry_equiv_pos_site_id
 _symmetry_equiv_pos_as_xyz
  1  'x, y, z'
loop_
 _atom_site_type_symbol
 _atom_site_label
 _atom_site_symmetry_multiplicity
 _atom_site_fract_x
 _atom_site_fract_y
 _atom_site_fract_z
 _atom_site_occupancy
  V  V0  1  0.89854236  0.25253831  0.11652244  1
  V  V1  1  0.74562134  0.11727879  0.86346220  1
  V  V2  1  0.86695667  0.51939568  0.86833795  1
  V  V3  1  0.11485852  0.35050838  0.23349208  1
  V  V4  1  0.49997834  0.62215799  0.14280747  1
  V  V5  1  0.88407305  0.02629985  0.37813389  1
  V  V6  1  0.88968323  0.13429098  0.23114969  1
  V  V7  1  0.05914459  0.29596896  0.82419545  1
  V  V8  1  0.86765087  0.37373792  -0.01804310  1
  V  V9  1  0.62202111  0.24479388  0.87028415  1
  V  V10  1  0.24738184  -0.00550464  0.75481841  1
  V  V11  1  0.23431598  0.25005933  0.50366930  1
  V  V12  1  0.96807232  0.42914988  0.43469783  1
  V  V13  1  0.88946170  0.13450129  0.74249385  1
  V  V14  1  0.74367678  0.88996043  0.63382828  1
  V  V15  1  0.62479450  0.62413946  0.00505198  1
  V  V16  1  0.63059457  0.24147757  0.37531848  1
  V  V17  1  0.37497188  0.86864603  0.48678943  1
  V  V18  1  0.75130627  0.23685622  0.49816771  1
  V  V19  1  0.76478680  0.37079031  0.61792785  1
  V  V20  1  0.36726726  0.74647764  0.13099631  1
  V  V21  1  0.12389435  0.00046114  0.12023881  1
  V  V22  1  0.37263177  0.38085391  0.48887782  1
  V  V23  1  0.62426390  0.00438803  0.62535874  1
  V  V24  1  0.49641369  0.50229321  0.49237761  1
  V  V25  1  0.24330437  0.87064796  0.62051250  1
  V  V26  1  -0.00080363  0.86574132  0.86269531  1
  V  V27  1  0.74872555  0.50674462  0.75603775  1
  V  V28  1  0.76449927  0.62183764  0.37665068  1
  V  V29  1  0.62491288  0.77137637  0.36812170  1
  V  V30  1  0.14100114  0.75238096  0.85712424  1
  V  V31  1  0.28611684  0.23789458  -0.03364736  1
  V  V32  1  0.73864279  0.24281746  -0.00089055  1
  V  V33  1  0.74720500  0.01025029  0.24840520  1
  V  V34  1  0.24915113  0.87207527  0.12277325  1
  V  V35  1  0.11228860  0.86247524  0.26086303  1
  V  V36  1  0.37519133  0.23496330  0.17003868  1
  V  V37  1  0.51153354  0.37723829  0.36267115  1
  V  V38  1  0.24834494  0.00904563  0.25699151  1
  V  V39  1  0.62776209  0.62825812  0.49352195  1
  V  V40  1  0.50005293  0.24175186  0.74563892  1
  V  V41  1  0.03413119  0.57655048  0.62868152  1
  V  V42  1  0.11858711  0.01730713  0.61414511  1
  V  V43  1  0.74873609  0.76442678  0.49791246  1
  V  V44  1  0.49858311  0.63130880  0.63358565  1
  V  V45  1  0.26864111  0.41525604  0.63404165  1
  V  V46  1  0.13532148  0.12303121  -0.02031962  1
  V  V47  1  0.86405896  0.74287638  0.64467437  1
  V  V48  1  0.37241260  0.24837082  0.61714943  1
  V  V49  1  0.38342080  0.88570380  0.00225639  1
  V  V50  1  0.62114187  0.37173646  0.75129938  1
  V  V51  1  0.51372968  0.12524256  0.14039143  1
  V  V52  1  0.75279455  0.74175751  -0.00728433  1
  V  V53  1  -0.00703253  0.00166607  0.00179126  1
  V  V54  1  0.37199349  0.01827511  0.37438127  1
  V  V55  1  0.74242212  0.37016402  0.13107119  1
  V  V56  1  0.87372894  -0.00617965  0.86805293  1
  V  V57  1  0.13024332  0.64287259  -0.00027989  1
  V  V58  1  0.25341017  0.36107089  0.11482263  1
  V  V59  1  0.23985399  0.50873635  0.28065867  1
  V  V60  1  0.50057645  0.77364753  0.25172078  1
  V  V61  1  0.61603185  0.48859531  0.13663421  1
  V  V62  1  0.37712442  0.75276657  0.63506191  1
  V  V63  1  0.50385092  0.12608895  0.60207784  1
  V  V64  1  0.74835090  0.86416371  0.13778391  1
  V  V65  1  0.62926594  0.49765316  0.62440082  1
  V  V66  1  -0.01509940  0.63362595  0.12269706  1
  V  V67  1  0.88828306  0.88359333  0.49612924  1
  V  V68  1  0.00335321  0.50049319  -0.00778895  1
  V  V69  1  0.36985202  0.12214430  0.75023874  1
  Zn  Zn70  1  0.52669075  -0.00291325  0.00859757  1
  Zn  Zn71  1  0.44342924  -0.03593364  0.84170645  1
  Zn  Zn72  1  0.76334461  0.50753578  0.25323457  1
  Zn  Zn73  1  0.25852078  0.53320211  0.78785613  1
  Zn  Zn74  1  0.88164043  0.85584618  0.01204548  1
  Zn  Zn75  1  0.51199233  0.99220567  0.47868436  1
  Zn  Zn76  1  0.18451364  0.18536943  0.17507899  1
  Zn  Zn77  1  0.18419157  0.19003183  0.69068229  1
  Zn  Zn78  1  0.13935886  0.65415693  0.21364298  1
  Zn  Zn79  1  0.19557879  0.67468859  0.68783578  1
  Zn  Zn80  1  0.69386340  0.19395047  0.20270613  1
  Zn  Zn81  1  0.69039484  0.18345794  0.68221334  1
  Zn  Zn82  1  0.68789448  0.68367159  0.19523177  1
  Zn  Zn83  1  0.69191019  0.68663098  0.67632728  1
  Zn  Zn84  1  0.29854852  0.32109229  0.31682259  1
  Zn  Zn85  1  0.31570667  0.37001278  0.83710055  1
  Zn  Zn86  1  0.30488912  0.81288843  0.30442058  1
  Zn  Zn87  1  0.32520159  0.81505915  0.81246106  1
  Zn  Zn88  1  0.86029446  0.34936833  0.29074794  1
  Zn  Zn89  1  0.80845587  0.30732346  0.80257984  1
  Zn  Zn90  1  0.80792015  0.82772324  0.32351191  1
  Zn  Zn91  1  0.73288589  0.79535402  0.80065091  1
  Zn  Zn92  1  0.16468860  0.39610527  0.42569013  1
  Zn  Zn93  1  0.14792445  0.44704710  0.87273101  1
  Zn  Zn94  1  0.18372751  0.93270734  0.43940940  1
  Zn  Zn95  1  0.18667270  0.92650379  0.93753626  1
  Zn  Zn96  1  0.69050591  0.43502070  0.43890837  1
  Zn  Zn97  1  0.57254364  0.42948630  0.94978175  1
  Zn  Zn98  1  0.69718683  0.96315401  0.43624507  1
  Zn  Zn99  1  0.69140872  0.92556244  0.93940854  1
  Zn  Zn100  1  0.31218889  0.07057336  0.06940907  1
  Zn  Zn101  1  0.30208828  0.06296837  0.55441892  1
  Zn  Zn102  1  0.27217233  0.50625172  -0.01026000  1
  Zn  Zn103  1  0.31732198  0.57947930  0.54199381  1
  Zn  Zn104  1  0.69052179  0.06580824  0.06985978  1
  Zn  Zn105  1  0.81680957  0.06780291  0.56008760  1
  Zn  Zn106  1  0.80953856  0.55680117  0.06341963  1
  Zn  Zn107  1  0.85737819  0.54946825  0.56492460  1
  Zn  Zn108  1  0.41673096  0.43673827  0.18735332  1
  Zn  Zn109  1  0.43818774  0.43491567  0.68586189  1
  Zn  Zn110  1  0.43496409  0.95027404  0.18541192  1
  Zn  Zn111  1  0.43859048  0.94043316  0.67216706  1
  Zn  Zn112  1  0.92788141  0.44435141  0.16695293  1
  Zn  Zn113  1  0.94534138  0.42995465  0.70388139  1
  Zn  Zn114  1  0.93086222  0.93772782  0.18675899  1
  Zn  Zn115  1  0.93385910  0.94069437  0.68297669  1
  Zn  Zn116  1  0.05363953  0.04852858  0.30081561  1
  Zn  Zn117  1  0.06389611  0.05566448  0.80488662  1
  Zn  Zn118  1  0.04305797  0.50464102  0.26606084  1
  Zn  Zn119  1  0.05595108  0.57826597  0.80957907  1
  Zn  Zn120  1  0.56177423  0.06602706  0.31830163  1
  Zn  Zn121  1  0.56217308  -0.16883841  0.80871845  1
  Zn  Zn122  1  0.57173620  0.56359992  0.31115338  1
  Zn  Zn123  1  0.57119414  0.66805555  0.81859963  1
  Zn  Zn124  1  0.43187914  0.20091630  0.42313963  1
  Zn  Zn125  1  0.45829492  0.14270351  0.93088888  1
  Zn  Zn126  1  0.45972520  0.71114128  0.45277137  1
  Zn  Zn127  1  0.45761823  0.71261249  0.95798661  1
  Zn  Zn128  1  0.92215995  0.23131933  0.41612932  1
  Zn  Zn129  1  0.93224332  0.17369669  0.94224186  1
  Zn  Zn130  1  0.93992737  0.68208951  0.47143910  1
  Zn  Zn131  1  0.93226067  0.68689771  0.93699288  1
  Zn  Zn132  1  0.08056669  0.32552721  0.01811174  1
  Zn  Zn133  1  0.08885429  0.37437798  0.59195652  1
  Zn  Zn134  1  0.06102232  0.81313875  0.06097284  1
  Zn  Zn135  1  0.04930475  0.80451794  0.58199811  1
  Zn  Zn136  1  0.50028070  0.27304331  0.03927142  1
  Zn  Zn137  1  0.56391199  0.31434916  0.55545141  1
  Zn  Zn138  1  0.57142124  0.81549021  0.06837357  1
  Zn  Zn139  1  0.56229449  0.82132552  0.56037032  1
  O  O140  1  0.13522487  0.10340268  0.10810052  1
  O  O141  1  0.12633044  0.11731543  0.62255714  1
  O  O142  1  0.11173661  0.62757726  0.10108701  1
  O  O143  1  0.12265747  0.62526572  0.61519470  1
  O  O144  1  0.62148401  0.13089193  0.13796773  1
  O  O145  1  0.61023265  0.12367315  0.61880484  1
  O  O146  1  0.61786881  0.61337926  0.13289447  1
  O  O147  1  0.61700896  0.62010558  0.61266276  1
  O  O148  1  0.38720942  0.37118970  0.38583883  1
  O  O149  1  0.42913378  0.39462914  0.87425911  1
  O  O150  1  0.36442681  0.87189517  0.38563582  1
  O  O151  1  0.37392507  0.87606844  0.89870207  1
  O  O152  1  0.92910119  0.34210301  0.38252655  1
  O  O153  1  0.86506966  0.37200036  0.88199603  1
  O  O154  1  0.88476454  0.86860804  0.39495751  1
  O  O155  1  0.88054896  0.89070130  0.88407593  1
  O  O156  1  0.25307874  -0.00406521  0.36326482  1
  O  O157  1  0.24677414  -0.01715515  0.85360124  1
  O  O158  1  0.23342554  0.47593762  0.37863874  1
  O  O159  1  0.26499207  0.46509536  0.88390619  1
  O  O160  1  0.77727160  -0.00636321  0.36170367  1
  O  O161  1  0.76476123  0.01069302  0.88425629  1
  O  O162  1  0.74843262  0.51947676  0.38472631  1
  O  O163  1  0.75555195  0.49655639  0.85946827  1
  O  O164  1  0.27714962  0.45784900  0.09118909  1
  O  O165  1  0.25423729  0.51125308  0.60909803  1
  O  O166  1  0.24528174  0.99075080  0.13624899  1
  O  O167  1  0.24264932  0.98659251  0.62601736  1
  O  O168  1  0.74544081  0.48142487  0.12747327  1
  O  O169  1  0.74533635  0.49001215  0.63074451  1
  O  O170  1  0.74927099  0.99988716  0.14473582  1
  O  O171  1  0.73581187  0.99657122  0.60961180  1
  O  O172  1  0.02050651  0.39497040  0.21421206  1
  O  O173  1  0.00798649  0.36313338  0.76757356  1
  O  O174  1  0.01388617  0.88419731  0.24410732  1
  O  O175  1  -0.00850048  0.87960426  0.76504006  1
  O  O176  1  0.49244501  0.39049331  0.26707839  1
  O  O177  1  0.51117918  0.35678032  0.73370936  1
  O  O178  1  0.50321021  0.87218129  0.24485106  1
  O  O179  1  0.48329636  0.89508710  0.76364855  1
  O  O180  1  0.50072837  0.11988830  0.24100874  1
  O  O181  1  0.48680398  0.13333736  0.72673191  1
  O  O182  1  0.50605706  0.63572549  0.24610628  1
  O  O183  1  0.50541929  0.62095837  0.73070748  1
  O  O184  1  0.98905420  0.12464496  0.24444085  1
  O  O185  1  0.98905244  0.12297196  0.75367966  1
  O  O186  1  1.02337066  0.60938746  0.21956229  1
  O  O187  1  0.99363619  0.60324286  0.71724171  1
  O  O188  1  0.38519549  0.23075323  -0.01789189  1
  O  O189  1  0.36672837  0.26091762  0.50271536  1
  O  O190  1  0.38183897  0.76419740  0.02620050  1
  O  O191  1  0.37674684  0.76169004  0.50609335  1
  O  O192  1  0.86727050  0.25505426  0.00357773  1
  O  O193  1  0.85342687  0.24909133  0.50329482  1
  O  O194  1  0.85857586  0.73897947  0.00741682  1
  O  O195  1  0.86409082  0.76656096  0.51577549  1
  O  O196  1  0.14240749  0.27493629  0.53721871  1
  O  O197  1  0.12489186  0.22071231  0.99645045  1
  O  O198  1  0.04019848  0.74693937  0.47654480  1
  O  O199  1  0.13103503  0.74731127  0.99363452  1
  O  O200  1  0.63812011  0.26456990  0.49007761  1
  O  O201  1  0.63741860  0.25631658  0.98333788  1
  O  O202  1  0.62599711  0.74957789  0.48766280  1
  O  O203  1  0.63720300  0.73603994  1.01479389  1
  O  O204  1  0.48163899  0.24109123  0.15201145  1
  O  O205  1  0.49583923  0.24141822  0.62118126  1
  O  O206  1  0.50452874  0.74776079  0.14447149  1
  O  O207  1  0.49792481  0.73944891  0.61658551  1
  O  O208  1  0.99274700  0.26178877  0.10005741  1
  O  O209  1  0.99917186  0.26204575  0.62510985  1
  O  O210  1  0.99336529  0.73494820  0.11409910  1
  O  O211  1  0.96535658  0.75579595  0.64169071  1
  O  O212  1  0.04872640  0.20791274  0.40112553  1
  O  O213  1  -0.00439309  0.23927853  0.87715117  1
  O  O214  1  -0.04295490  0.72536395  0.30537548  1
  O  O215  1  -0.01295124  0.76534795  0.87566709  1
  O  O216  1  0.51327379  0.26970032  0.38219582  1
  O  O217  1  0.51433543  0.23000650  0.85745343  1
  O  O218  1  0.51313612  0.75406507  0.36394864  1
  O  O219  1  0.50207786  0.74599167  0.86446498  1
  O  O220  1  0.24537758  0.14909418  0.50232714  1
  O  O221  1  0.24937708  0.13232264  0.99054733  1
  O  O222  1  0.25114222  0.63819595  0.46528565  1
  O  O223  1  0.22480407  0.61176788  0.99092138  1
  O  O224  1  0.74290020  0.13680189  0.50726230  1
  O  O225  1  0.75156599  0.13967897  0.99256492  1
  O  O226  1  0.73817284  0.64436025  0.49438290  1
  O  O227  1  0.73596370  0.63260739  1.02206793  1
  O  O228  1  0.25926516  0.32935716  0.00783321  1
  O  O229  1  0.26319190  0.37924328  0.52345973  1
  O  O230  1  0.25805844  0.87510669  0.01707044  1
  O  O231  1  0.26186878  0.87586272  0.51284183  1
  O  O232  1  0.76100068  0.36090598  0.00470573  1
  O  O233  1  0.75347653  0.38162571  0.51666203  1
  O  O234  1  0.75243931  0.85176549  0.01255796  1
  O  O235  1  0.75420895  0.87139463  0.49648556  1
  O  O236  1  0.15136097  0.47687867  0.23264811  1
  O  O237  1  0.14306969  0.51241312  0.78208458  1
  O  O238  1  0.13176483  0.99158692  0.24129398  1
  O  O239  1  0.14346657  1.00229260  0.73565087  1
  O  O240  1  0.64028524  0.50272733  0.23902549  1
  O  O241  1  0.63435101  0.48822539  0.73857151  1
  O  O242  1  0.65056089  1.01151860  0.27339455  1
  O  O243  1  0.62264134  1.00858301  0.72108821  1
  O  O244  1  0.35825747  -0.00547153  0.26207830  1
  O  O245  1  0.37045638  0.01190140  0.74278833  1
  O  O246  1  0.33454417  0.48885107  0.24637923  1
  O  O247  1  0.44679842  0.46742877  0.84202948  1
  O  O248  1  0.87616326  0.01895165  0.25656217  1
  O  O249  1  0.87946688  0.00567683  0.76633198  1
  O  O250  1  0.86479127  0.46037718  0.25852395  1
  O  O251  1  0.86271154  0.49365608  0.76037991  1
  O  O252  1  0.11091873  0.35379738  0.33349478  1
  O  O253  1  0.10994907  0.34771316  0.90284418  1
  O  O254  1  0.12878339  0.87376816  0.36021427  1
  O  O255  1  0.11049190  0.86010842  0.87615794  1
  O  O256  1  0.61507546  0.38057868  0.37294073  1
  O  O257  1  0.62221492  0.36120876  0.86035855  1
  O  O258  1  0.63223911  0.86841132  0.37868920  1
  O  O259  1  0.65824497  0.86651773  0.85427302  1
  O  O260  1  0.38182017  0.13249410  0.13523676  1
  O  O261  1  0.38413613  0.13121432  0.61810152  1
  O  O262  1  0.39415891  0.64250176  0.13085065  1
  O  O263  1  0.38991875  0.63957072  0.61385055  1
  O  O264  1  0.88315343  0.14288705  0.12636283  1
  O  O265  1  0.87282901  0.11019771  0.64529778  1
  O  O266  1  0.88518427  0.61357153  0.12860983  1
  O  O267  1  0.83958679  0.64489554  0.62485624  1
  O  O268  1  0.27227919  0.23807628  0.12341421  1
  O  O269  1  0.26782552  0.24868827  0.62454247  1
  O  O270  1  0.26655602  0.75498936  0.13893639  1
  O  O271  1  0.26805108  0.75877277  0.62877182  1
  O  O272  1  0.74303241  0.25454981  0.10894123  1
  O  O273  1  0.73969342  0.26474283  0.61533075  1
  O  O274  1  0.75457250  0.76145061  0.14446965  1
  O  O275  1  0.74351987  0.77289624  0.61282569  1
  O  O276  1  0.23455512  0.28516645  0.40596715  1
  O  O277  1  0.27798328  0.26575469  0.86928576  1
  O  O278  1  0.24559969  0.73530224  0.37604248  1
  O  O279  1  0.24040494  0.75936608  0.86784539  1
  O  O280  1  0.74070014  0.25498684  0.39149985  1
  O  O281  1  0.74592669  0.23982836  0.87994294  1
  O  O282  1  0.73937049  0.74833386  0.37924361  1
  O  O283  1  0.75134057  0.73292622  0.89564018  1
  O  O284  1  0.01684996  0.10585125  -0.00891869  1
  O  O285  1  -0.00712117  0.20724493  0.57782558  1
  O  O286  1  -0.00000839  0.61826688  0.00224656  1
  O  O287  1  -0.02975151  0.60143369  0.54987556  1
  O  O288  1  0.51365424  0.15775365  0.03052730  1
  O  O289  1  0.49164941  0.13152997  0.50284605  1
  O  O290  1  0.51657951  0.63937678  0.03101187  1
  O  O291  1  0.51028399  0.62070787  0.50047590  1
  O  O292  1  0.49348536  0.38729174  0.49418281  1
  O  O293  1  0.50492320  0.37927653  1.02077381  1
  O  O294  1  0.48095478  0.87936712  0.50087052  1
  O  O295  1  0.48866754  0.87918147  1.01567144  1
  O  O296  1  1.05889013  0.40394076  0.48374069  1
  O  O297  1  0.97857081  0.39057701  0.99717892  1
  O  O298  1  0.98396688  0.88087791  0.51810592  1
  O  O299  1  0.99660827  0.88443406  0.99081813  1
  O  O300  1  0.50986203  0.49627343  0.38610391  1
  O  O301  1  0.51330722  0.49999681  0.86983333  1
  O  O302  1  0.47674033  1.00338623  0.36862722  1
  O  O303  1  0.48844127  1.03572864  0.91005637  1
  O  O304  1  0.99440804  0.49983267  0.36869008  1
  O  O305  1  0.97637281  0.51113482  0.88081612  1
  O  O306  1  0.98128113  1.00004323  0.37346081  1
  O  O307  1  0.99549535  0.98936503  0.88052505  1
  O  O308  1  0.00873986  -0.00837785  0.10840956  1
  O  O309  1  0.02240434  -0.00822526  0.63368508  1
  O  O310  1  -0.01001038  0.50943874  0.09572210  1
  O  O311  1  0.03098176  0.46958960  0.63369228  1
  O  O312  1  0.49651370  0.02067023  0.11960339  1
  O  O313  1  0.50499820  0.01408972  0.61002663  1
  O  O314  1  0.50538625  0.51001104  0.14453142  1
  O  O315  1  0.50592056  0.51104394  0.61781989  1
  O  O316  1  0.23419683  0.35458185  0.22696112  1
  O  O317  1  0.32487727  0.43259455  0.73085253  1
  O  O318  1  0.23698054  0.88098491  0.24005947  1
  O  O319  1  0.26663795  0.88685029  0.73182261  1
  O  O320  1  0.75414862  0.35336902  0.22778876  1
  O  O321  1  0.73734617  0.37575570  0.73753963  1
  O  O322  1  0.76193010  0.89133650  0.24406088  1
  O  O323  1  0.75176353  0.89306434  0.73004073  1
  O  O324  1  0.23731687  0.10708012  0.24761473  1
  O  O325  1  0.26361976  0.11105060  0.73481550  1
  O  O326  1  0.22515193  0.61029401  0.27292014  1
  O  O327  1  0.28106944  0.62921844  0.74193526  1
  O  O328  1  0.77252818  0.11999947  0.24629711  1
  O  O329  1  0.75661328  0.12593725  0.76071547  1
  O  O330  1  0.75614385  0.62874480  0.27215086  1
  O  O331  1  0.74000452  0.60405043  0.74361928  1
  O  O332  1  0.36638946  0.11665954  0.38073555  1
  O  O333  1  0.37484027  0.13157494  0.84691581  1
  O  O334  1  0.29072157  0.67873182  0.40781532  1
  O  O335  1  0.38766753  0.61001215  0.92111444  1
  O  O336  1  0.88593977  0.13004312  0.36893496  1
  O  O337  1  0.86576476  0.11674491  0.86610379  1
  O  O338  1  0.86134652  0.63726327  0.39915139  1
  O  O339  1  0.86345736  0.61726565  0.87248430  1
  O  O340  1  0.14642663  0.35940887  0.10850452  1
  O  O341  1  0.18036831  0.37970617  0.66380830  1
  O  O342  1  0.13254206  0.88199221  0.12571210  1
  O  O343  1  0.14317492  0.85690675  0.61946602  1
  O  O344  1  0.63343534  0.38433622  0.12643665  1
  O  O345  1  0.62641671  0.38647662  0.62801723  1
  O  O346  1  0.64765061  0.87782260  0.12624620  1
  O  O347  1  0.63162623  0.88873461  0.62046483  1
  O  O348  1  0.10538909  0.24963730  0.21979776  1
  O  O349  1  0.12384790  0.24356441  0.76566314  1
  O  O350  1  0.12194848  0.76374124  0.24406454  1
  O  O351  1  0.12861317  0.74218978  0.75866943  1
  O  O352  1  0.63454750  0.25514439  0.27482967  1
  O  O353  1  0.62078902  0.25205712  0.75084208  1
  O  O354  1  0.61841379  0.75438931  0.26306011  1
  O  O355  1  0.63529153  0.74224617  0.75577105  1
  O  O356  1  0.36307040  0.23706294  0.26954774  1
  O  O357  1  0.38480757  0.24136852  0.73110156  1
  O  O358  1  0.39152483  0.75936319  0.24429421  1
  O  O359  1  0.38686357  0.75811809  0.73280698  1
  O  O360  1  0.88260751  0.24781342  0.22885174  1
  O  O361  1  0.87378041  0.23498514  0.74787251  1
  O  O362  1  0.90014111  0.74931083  0.26595353  1
  O  O363  1  0.83358042  0.75934816  0.73877626  1
  O  O364  1  0.38816858  0.49730684  0.50057314  1
  O  O365  1  0.38856009  0.55559785  0.97299741  1
  O  O366  1  0.36639148  0.99182750  0.48318104  1
  O  O367  1  0.36865123  0.98455635  1.01608295  1
  O  O368  1  0.89744894  0.46819926  0.49629752  1
  O  O369  1  0.86504532  0.48976635  0.98214834  1
  O  O370  1  0.87021168  0.99689542  0.48566032  1
  O  O371  1  0.89288875  1.01011695  0.98780021  1
  O  O372  1  0.12317007  -0.00058290  0.00229861  1
  O  O373  1  0.13175496  -0.00275058  0.51507811  1
  O  O374  1  0.10307983  0.50376374  -0.02257588  1
  O  O375  1  0.06772315  0.64093438  0.40006508  1
  O  O376  1  0.63786808  -0.00293680  0.00187149  1
  O  O377  1  0.62027557  0.00110795  0.50477357  1
  O  O378  1  0.62292604  0.51117099  0.02655718  1
  O  O379  1  0.61983274  0.50919234  0.50841680  1
  O  O380  1  0.36801042  0.34340490  0.13978029  1
  O  O381  1  0.37931026  0.36690247  0.60904188  1
  O  O382  1  0.36722172  0.86952959  0.12723336  1
  O  O383  1  0.37181639  0.86573460  0.61255216  1
  O  O384  1  0.86280867  0.36195286  0.11037592  1
  O  O385  1  0.86222177  0.37813784  0.63738910  1
  O  O386  1  0.85726402  0.88764227  0.11877857  1
  O  O387  1  0.85622897  0.88549921  0.61375250  1
  O  O388  1  0.08184270  0.14090440  0.39946803  1
  O  O389  1  0.13251547  0.10813003  0.88169606  1
  O  O390  1  0.10004356  0.69580760  0.43890548  1
  O  O391  1  0.10539047  0.65107566  0.88582264  1
  O  O392  1  0.61527398  0.14233943  0.38488255  1
  O  O393  1  0.64404168  0.13253969  0.86991533  1
  O  O394  1  0.63253965  0.63452502  0.38378262  1
  O  O395  1  0.61663779  0.61056227  0.90704556  1
