# generated using pymatgen
data_V35Zn35O128
_symmetry_space_group_name_H-M   'P 1'
_cell_length_a   16.96140308
_cell_length_b   16.98853511
_cell_length_c   16.86782910
_cell_angle_alpha   89.77728042
_cell_angle_beta   90.34023320
_cell_angle_gamma   90.01490902
_symmetry_Int_Tables_number   1
_chemical_formula_structural   V35Zn35O128
_chemical_formula_sum   'V70 Zn70 O256'
_cell_volume   4860.33214285
_cell_formula_units_Z   2
loop_
 _symmetry_equiv_pos_site_id
 _symmetry_equiv_pos_as_xyz
  1  'x, y, z'
loop_
 _atom_site_type_symbol
 _atom_site_label
 _atom_site_symmetry_multiplicity
 _atom_site_fract_x
 _atom_site_fract_y
 _atom_site_fract_z
 _atom_site_occupancy
  V  V0  1  0.75191448  0.12861122  0.88176298  1
  V  V1  1  0.24657392  -0.00263778  0.27223174  1
  V  V2  1  0.74885815  0.87683381  0.61443657  1
  V  V3  1  0.11723163  0.51014054  0.61923763  1
  V  V4  1  0.73369491  0.64383718  0.85925802  1
  V  V5  1  -0.00406313  0.25255661  0.73563785  1
  V  V6  1  0.62422083  0.75852398  0.36138126  1
  V  V7  1  0.74815299  0.62419095  0.36784690  1
  V  V8  1  0.00434928  0.87125160  0.86817106  1
  V  V9  1  0.61707474  0.23705683  0.36285059  1
  V  V10  1  0.14077745  -0.00877706  0.12691306  1
  V  V11  1  0.85945226  0.50145964  0.86690833  1
  V  V12  1  0.73018121  0.88456561  0.12778831  1
  V  V13  1  -0.02249450  0.63132068  0.62634521  1
  V  V14  1  -0.01044205  0.37864074  0.87237484  1
  V  V15  1  0.87182736  0.50176776  0.38917053  1
  V  V16  1  0.24021779  0.09058045  0.86991257  1
  V  V17  1  0.23216194  0.47971200  0.22084371  1
  V  V18  1  0.62037852  0.59431619  0.00443420  1
  V  V19  1  0.37314317  0.00252118  0.39557989  1
  V  V20  1  0.76567732  0.02887502  0.28939047  1
  V  V21  1  0.49169742  0.37712978  0.37672038  1
  V  V22  1  0.12832875  0.74759282  0.86455287  1
  V  V23  1  0.87772176  0.86381446  0.00650349  1
  V  V24  1  0.24537939  0.37962449  0.61869182  1
  V  V25  1  0.73518956  0.25241698  0.48795902  1
  V  V26  1  0.37808264  0.12872941  0.25294351  1
  V  V27  1  -0.02063812  0.73843525  0.24446111  1
  V  V28  1  0.62591674  0.47690272  0.61898696  1
  V  V29  1  0.25531601  0.49687941  0.75567659  1
  V  V30  1  0.74841196  0.00611782  0.72864757  1
  V  V31  1  0.74128306  0.36094858  0.12674440  1
  V  V32  1  0.11945036  0.38481860  0.75007868  1
  V  V33  1  0.13183552  0.14035405  0.50727043  1
  V  V34  1  0.13351341  0.85605514  0.25680855  1
  V  V35  1  0.13294863  0.24817324  0.87052418  1
  V  V36  1  -0.00057482  0.12338931  0.14759028  1
  V  V37  1  0.36785604  0.25333069  0.64563739  1
  V  V38  1  -0.01021438  0.50576289  0.01710814  1
  V  V39  1  -0.00056784  0.87586149  0.36949237  1
  V  V40  1  0.50399024  0.12336340  0.12431342  1
  V  V41  1  0.48817410  0.50231390  0.50336822  1
  V  V42  1  0.50093960  0.64057206  0.12776391  1
  V  V43  1  -0.03458061  0.74562475  0.75682956  1
  V  V44  1  0.53205407  0.01416977  0.49795064  1
  V  V45  1  0.37990960  0.91876151  -0.01313796  1
  V  V46  1  0.61039643  0.38451225  0.24830818  1
  V  V47  1  0.00927216  0.00219561  0.00250224  1
  V  V48  1  0.49564276  0.87574634  0.37572785  1
  V  V49  1  0.75069673  0.50616263  0.23732569  1
  V  V50  1  0.87318952  0.28428855  0.60842109  1
  V  V51  1  0.38258669  0.63298137  0.76483206  1
  V  V52  1  0.13040197  0.65404260  0.50742628  1
  V  V53  1  0.88274725  0.00489756  0.87110547  1
  V  V54  1  0.88721740  0.12287555  0.72302688  1
  V  V55  1  0.36501175  0.08779052  0.74491746  1
  V  V56  1  0.50443305  0.36050058  0.87790486  1
  V  V57  1  0.62406862  0.63249664  0.50617480  1
  V  V58  1  0.24119531  0.61051955  0.88864816  1
  V  V59  1  0.36493393  0.35746240  0.49262458  1
  V  V60  1  0.74159583  0.46057243  0.74283370  1
  V  V61  1  0.30840529  0.60415145  0.33136781  1
  V  V62  1  0.00929715  0.37454211  0.37721681  1
  V  V63  1  0.76437497  0.75033883  0.49791320  1
  V  V64  1  0.87197676  0.36192380  0.01033197  1
  V  V65  1  0.10899699  -0.01639982  0.63042592  1
  V  V66  1  0.14763505  0.25930247  0.36827389  1
  V  V67  1  0.88289042  0.89537026  0.49116560  1
  V  V68  1  0.10938769  0.62881543  0.01198095  1
  V  V69  1  0.72428278  0.75441856  0.00380926  1
  Zn  Zn70  1  0.26981424  0.33042174  0.11392173  1
  Zn  Zn71  1  0.34923119  0.81954367  0.52605353  1
  Zn  Zn72  1  0.49614559  0.12498679  0.62164597  1
  Zn  Zn73  1  0.45217378  0.72089529  0.62727641  1
  Zn  Zn74  1  0.62960673  0.11704642  0.00518238  1
  Zn  Zn75  1  0.35363898  0.77868390  0.06704309  1
  Zn  Zn76  1  0.17613489  0.17409203  0.20875331  1
  Zn  Zn77  1  0.18764173  0.18691214  0.69148076  1
  Zn  Zn78  1  0.15151930  0.64533895  0.22509860  1
  Zn  Zn79  1  0.18669345  0.67985529  0.69321848  1
  Zn  Zn80  1  0.68418863  0.18497020  0.19771841  1
  Zn  Zn81  1  0.72171857  0.20301973  0.68698992  1
  Zn  Zn82  1  0.68174479  0.68855980  0.17881628  1
  Zn  Zn83  1  0.65743610  0.70784447  0.67405592  1
  Zn  Zn84  1  0.31502946  0.33079407  0.28441375  1
  Zn  Zn85  1  0.33849491  0.26297569  0.85819740  1
  Zn  Zn86  1  0.27136472  0.80935792  0.36842377  1
  Zn  Zn87  1  0.33947022  0.79412942  0.86683014  1
  Zn  Zn88  1  0.79223791  0.33801426  0.34301512  1
  Zn  Zn89  1  0.82316820  0.30529915  0.81121009  1
  Zn  Zn90  1  0.81422561  0.81229079  0.30687385  1
  Zn  Zn91  1  0.79151030  0.83007662  0.82035725  1
  Zn  Zn92  1  0.18904781  0.45804000  0.42968042  1
  Zn  Zn93  1  0.17184097  0.42918563  0.95867269  1
  Zn  Zn94  1  0.20391509  0.94067941  0.48152178  1
  Zn  Zn95  1  0.20401437  0.91144630  0.95483595  1
  Zn  Zn96  1  0.68359861  0.43529556  0.43470429  1
  Zn  Zn97  1  0.69083736  0.42223641  0.93752546  1
  Zn  Zn98  1  0.69355899  0.94858801  0.41681118  1
  Zn  Zn99  1  0.68288884  0.94349628  0.92267371  1
  Zn  Zn100  1  0.28652373  0.11915122  0.07707730  1
  Zn  Zn101  1  0.29660021  0.07180695  0.56613927  1
  Zn  Zn102  1  0.32564906  0.58524460  0.13193757  1
  Zn  Zn103  1  0.33371903  0.61595473  0.55064754  1
  Zn  Zn104  1  0.82264383  0.05880081  0.06689316  1
  Zn  Zn105  1  0.81472247  0.06714234  0.53422994  1
  Zn  Zn106  1  0.80187861  0.55989832  0.05476328  1
  Zn  Zn107  1  0.79883786  0.56037924  0.56663779  1
  Zn  Zn108  1  0.41707337  0.44719191  0.19018866  1
  Zn  Zn109  1  0.43580762  0.43728319  0.68355775  1
  Zn  Zn110  1  0.43252647  0.94481177  0.18807867  1
  Zn  Zn111  1  0.43010161  0.93896899  0.65129439  1
  Zn  Zn112  1  0.92749283  0.43015777  0.19739718  1
  Zn  Zn113  1  0.93432348  0.44994907  0.68568961  1
  Zn  Zn114  1  0.93542980  0.94075279  0.19307947  1
  Zn  Zn115  1  0.93519554  0.93430202  0.67834257  1
  Zn  Zn116  1  0.04140048  0.08406087  0.35406828  1
  Zn  Zn117  1  0.06449841  0.05986821  0.80225768  1
  Zn  Zn118  1  0.03740830  0.53243516  0.28476795  1
  Zn  Zn119  1  0.05037843  0.56733457  0.81231180  1
  Zn  Zn120  1  0.56389056  0.03781269  0.27794712  1
  Zn  Zn121  1  0.58008914  0.10481563  0.77940470  1
  Zn  Zn122  1  0.55136625  0.56611049  0.31464393  1
  Zn  Zn123  1  0.56922261  0.54951291  0.81251856  1
  Zn  Zn124  1  0.43703899  0.18617607  0.43080065  1
  Zn  Zn125  1  0.41164080  0.10135053  0.95239287  1
  Zn  Zn126  1  0.44205873  0.68335074  0.42177502  1
  Zn  Zn127  1  0.41724754  0.65445776  0.96756123  1
  Zn  Zn128  1  0.97491424  0.20903933  0.46242712  1
  Zn  Zn129  1  0.95117792  0.18804470  0.93814942  1
  Zn  Zn130  1  0.98750979  0.65454227  0.40810504  1
  Zn  Zn131  1  0.92772083  0.68770156  1.07749318  1
  Zn  Zn132  1  0.12641435  0.25965454  0.06680298  1
  Zn  Zn133  1  0.06182658  0.33080188  0.55117769  1
  Zn  Zn134  1  0.06603022  0.81406056  0.06596202  1
  Zn  Zn135  1  0.04338509  0.81246229  0.57261615  1
  Zn  Zn136  1  0.56103683  0.28929994  0.07180324  1
  Zn  Zn137  1  0.56994443  0.28013113  0.58069464  1
  Zn  Zn138  1  0.52944480  0.84949695  0.06828698  1
  Zn  Zn139  1  0.55233127  0.83774277  0.57689272  1
  O  O140  1  0.11742209  0.09256383  0.13953141  1
  O  O141  1  0.11994434  0.14492779  0.61023295  1
  O  O142  1  0.12449781  0.63120052  0.10875011  1
  O  O143  1  0.11201580  0.62455177  0.62797967  1
  O  O144  1  0.61250157  0.13247867  0.12858440  1
  O  O145  1  0.60675333  0.17393084  0.63016755  1
  O  O146  1  0.61557454  0.61905919  0.10994598  1
  O  O147  1  0.63272182  0.61153185  0.60708513  1
  O  O148  1  0.38239933  0.37110985  0.37890941  1
  O  O149  1  0.40144412  0.36567280  0.87908559  1
  O  O150  1  0.39153468  0.88209285  0.38787185  1
  O  O151  1  0.34689041  0.90532017  0.88705824  1
  O  O152  1  0.88776186  0.39892033  0.36709949  1
  O  O153  1  0.87001938  0.38259193  0.88361699  1
  O  O154  1  0.88078792  0.86833169  0.38317057  1
  O  O155  1  0.88316053  0.88626109  0.88145491  1
  O  O156  1  0.25962925  -0.01060101  0.37885515  1
  O  O157  1  0.20773189  -0.00172595  0.87647673  1
  O  O158  1  0.25720770  0.54043336  0.39325862  1
  O  O159  1  0.22963665  0.50158466  0.86690025  1
  O  O160  1  0.77547016  0.02575118  0.39315380  1
  O  O161  1  0.76942755  0.01012768  0.85320115  1
  O  O162  1  0.75105081  0.50565945  0.36511954  1
  O  O163  1  0.74135592  0.48255936  0.85290085  1
  O  O164  1  0.24701455  0.50066259  0.12164395  1
  O  O165  1  0.23592930  0.49473884  0.64455564  1
  O  O166  1  0.24110106  0.99910743  0.13684933  1
  O  O167  1  0.22278285  0.98805134  0.59053310  1
  O  O168  1  0.74591726  0.48816234  0.13459625  1
  O  O169  1  0.73785558  0.48960140  0.63418702  1
  O  O170  1  0.75254730  0.98378680  0.11648534  1
  O  O171  1  0.76547476  1.00411225  0.62343990  1
  O  O172  1  0.00870411  0.42061263  0.27598238  1
  O  O173  1  0.00206371  0.37568365  0.75117713  1
  O  O174  1  0.00164013  0.85921479  0.25395292  1
  O  O175  1  -0.01290674  0.86198874  0.76048319  1
  O  O176  1  0.50625281  0.39293775  0.25700636  1
  O  O177  1  0.50114903  0.37338230  0.77169844  1
  O  O178  1  0.50491388  0.89351966  0.27771696  1
  O  O179  1  0.49531507  0.91356957  0.77401099  1
  O  O180  1  0.47931544  0.13004869  0.26284675  1
  O  O181  1  0.46998005  0.10497632  0.74176921  1
  O  O182  1  0.51714703  0.63170269  0.22773952  1
  O  O183  1  0.47840934  0.60911595  0.78426547  1
  O  O184  1  1.00382915  0.11377402  0.24864525  1
  O  O185  1  0.99502230  0.14444374  0.75257684  1
  O  O186  1  1.01761139  0.64097446  0.24878396  1
  O  O187  1  0.98646189  0.63947864  0.74844852  1
  O  O188  1  0.39263705  0.21135064  -0.06037496  1
  O  O189  1  0.36748403  0.25741653  0.50073092  1
  O  O190  1  0.39891546  0.76449729  -0.04046663  1
  O  O191  1  0.39420637  0.71179207  0.51911371  1
  O  O192  1  0.88602329  0.26565110  -0.00356233  1
  O  O193  1  0.88673385  0.25792657  0.51005628  1
  O  O194  1  0.88137575  0.76384614  -0.00127889  1
  O  O195  1  0.86050909  0.74292861  0.49601149  1
  O  O196  1  0.10993794  0.24893735  0.48764455  1
  O  O197  1  0.08538786  0.24183114  0.95878723  1
  O  O198  1  0.11857180  0.75276561  0.51315096  1
  O  O199  1  0.10804248  0.73280025  0.98945334  1
  O  O200  1  0.63012463  0.25410341  0.48494544  1
  O  O201  1  0.62722205  0.23154809  1.00365773  1
  O  O202  1  0.62891180  0.73565591  0.49518124  1
  O  O203  1  0.62864652  0.76272295  0.99263209  1
  O  O204  1  0.48878723  0.22600844  0.12895237  1
  O  O205  1  0.46884464  0.24991081  0.62226002  1
  O  O206  1  0.51466076  0.73887336  0.11221819  1
  O  O207  1  0.55720099  0.75431538  0.65393330  1
  O  O208  1  1.03338378  0.21605012  0.12055195  1
  O  O209  1  0.98968730  0.27126898  0.62960330  1
  O  O210  1  0.99885154  0.75472543  0.13717423  1
  O  O211  1  0.98599751  0.74383855  0.64771456  1
  O  O212  1  0.00046493  0.27464050  0.36718974  1
  O  O213  1  -0.02034043  0.26894876  0.85122120  1
  O  O214  1  -0.00697332  0.75555792  0.35399376  1
  O  O215  1  0.00632765  0.75551358  0.86112089  1
  O  O216  1  0.50826603  0.26686855  0.38452950  1
  O  O217  1  0.50902679  0.25867952  0.86427190  1
  O  O218  1  0.51300683  0.76539882  0.38091790  1
  O  O219  1  0.52818799  0.78303155  0.86274277  1
  O  O220  1  0.23226634  0.13775936  0.49786836  1
  O  O221  1  0.25406810  0.12557922  0.96343948  1
  O  O222  1  0.22886775  0.64093972  0.52966164  1
  O  O223  1  0.22306471  0.60769049  0.98867339  1
  O  O224  1  0.76214840  0.15571852  0.49466556  1
  O  O225  1  0.76185818  0.11728321  0.98348237  1
  O  O226  1  0.73823721  0.63045564  0.49095712  1
  O  O227  1  0.72835319  0.63666738  0.99774695  1
  O  O228  1  0.33359323  0.42649224  0.00040668  1
  O  O229  1  0.25879293  0.39501967  0.51035315  1
  O  O230  1  0.28299602  0.86514115  0.02243353  1
  O  O231  1  0.25556429  0.84383284  0.47395020  1
  O  O232  1  0.75958735  0.37321576  0.01478014  1
  O  O233  1  0.76011105  0.35487401  0.46558379  1
  O  O234  1  0.76135706  0.86395361  0.00276691  1
  O  O235  1  0.76557798  0.87269539  0.49670845  1
  O  O236  1  0.14756155  0.53154868  0.25831409  1
  O  O237  1  0.12125344  0.49568680  0.74648755  1
  O  O238  1  0.14202076  0.98136651  0.25020389  1
  O  O239  1  0.13240105  1.01549874  0.72522634  1
  O  O240  1  0.63088404  0.48765053  0.25564856  1
  O  O241  1  0.63319107  0.49435891  0.73266495  1
  O  O242  1  0.66716660  0.99112777  0.28503909  1
  O  O243  1  0.65086829  1.01615720  0.73588903  1
  O  O244  1  0.35939552  -0.00604889  0.26648400  1
  O  O245  1  0.35025010  -0.00264663  0.70512457  1
  O  O246  1  0.32742326  0.49157072  0.26542065  1
  O  O247  1  0.35724153  0.49425899  0.75105811  1
  O  O248  1  0.85155413  -0.01506537  0.25354090  1
  O  O249  1  0.88472017  0.01071350  0.75251133  1
  O  O250  1  0.85204190  0.50120311  0.25626351  1
  O  O251  1  0.84753514  0.48648554  0.75216112  1
  O  O252  1  0.11950898  0.37615398  0.38396672  1
  O  O253  1  0.10622206  0.37194366  0.86626391  1
  O  O254  1  0.10796895  0.86507841  0.36300649  1
  O  O255  1  0.11798283  0.85385871  0.88712993  1
  O  O256  1  0.61389379  0.37073676  0.36229924  1
  O  O257  1  0.61057068  0.35834517  0.87912718  1
  O  O258  1  0.62855243  0.85966728  0.38011174  1
  O  O259  1  0.68543914  0.86969490  0.84381325  1
  O  O260  1  0.38000640  0.11223987  0.14593680  1
  O  O261  1  0.35519138  0.14290750  0.63753870  1
  O  O262  1  0.38462470  0.66759028  0.08461208  1
  O  O263  1  0.38172800  0.63091656  0.65886114  1
  O  O264  1  0.90112511  0.12149167  0.11937582  1
  O  O265  1  0.88084010  0.12487821  0.62366669  1
  O  O266  1  0.86162628  0.61699987  0.12648144  1
  O  O267  1  0.87919038  0.61725756  0.62414160  1
  O  O268  1  0.22883478  0.21485350  0.11388847  1
  O  O269  1  0.25164444  0.27291504  0.63349524  1
  O  O270  1  0.32375424  0.77094725  0.19600010  1
  O  O271  1  0.25307786  0.77922459  0.65295169  1
  O  O272  1  0.74933014  0.26416513  0.13668043  1
  O  O273  1  0.76467530  0.26620990  0.60388899  1
  O  O274  1  0.74154091  0.75707225  0.10771131  1
  O  O275  1  0.74312763  0.76933549  0.61355956  1
  O  O276  1  0.24450775  0.27980376  0.37299027  1
  O  O277  1  0.22871424  0.27238069  0.88014636  1
  O  O278  1  0.28833295  0.69852847  0.36643113  1
  O  O279  1  0.23323036  0.72923934  0.87712743  1
  O  O280  1  0.72799730  0.24498079  0.37265944  1
  O  O281  1  0.76394237  0.22685181  0.86304415  1
  O  O282  1  0.73855962  0.74477695  0.37932920  1
  O  O283  1  0.75495724  0.73955517  0.89218311  1
  O  O284  1  0.00881290  0.10217821  -0.00998248  1
  O  O285  1  0.02384829  0.11105672  0.46679488  1
  O  O286  1  -0.00348761  0.61472189  0.00648446  1
  O  O287  1  0.00407116  0.64188500  0.52662217  1
  O  O288  1  0.50166998  0.10295444  0.02240691  1
  O  O289  1  0.49717816  0.11605754  0.49992671  1
  O  O290  1  0.51742031  0.61047900  0.00002492  1
  O  O291  1  0.51917447  0.60848748  0.49134636  1
  O  O292  1  0.47730182  0.38836732  0.49554148  1
  O  O293  1  0.50629516  0.35286719  0.98208901  1
  O  O294  1  0.52230759  0.90117191  0.48584345  1
  O  O295  1  0.48343257  0.90798310  0.97577334  1
  O  O296  1  0.99965070  0.39436201  0.47767224  1
  O  O297  1  0.98137864  0.39205086  0.98755542  1
  O  O298  1  0.98763507  0.86489293  0.48348532  1
  O  O299  1  0.99385143  0.87907656  0.98988857  1
  O  O300  1  0.51103254  0.48722984  0.39390548  1
  O  O301  1  0.51508666  0.46559985  0.88071702  1
  O  O302  1  0.48899831  0.99854740  0.38758938  1
  O  O303  1  0.51852782  0.95731916  0.82801045  1
  O  O304  1  0.96975031  0.53811262  0.38152677  1
  O  O305  1  0.97613314  0.49170997  0.86249312  1
  O  O306  1  1.00036904  0.97445327  0.35881722  1
  O  O307  1  1.00384440  0.98934001  0.87546486  1
  O  O308  1  0.00518019  0.00213756  0.11860676  1
  O  O309  1  0.00866208  0.00248440  0.62444182  1
  O  O310  1  -0.01095929  0.49183261  0.11443061  1
  O  O311  1  0.00537461  0.52241910  0.63857206  1
  O  O312  1  0.51412069  0.02216907  0.17172916  1
  O  O313  1  0.51098388  0.00481122  0.60328025  1
  O  O314  1  0.44019154  0.54007211  0.13303293  1
  O  O315  1  0.51282402  0.49223627  0.61420153  1
  O  O316  1  0.21610193  0.38021759  0.22889109  1
  O  O317  1  0.23251561  0.38801450  0.74647800  1
  O  O318  1  0.23806099  0.87232217  0.27338171  1
  O  O319  1  0.25913099  0.83584704  0.70048168  1
  O  O320  1  0.73936391  0.38560735  0.24334124  1
  O  O321  1  0.74110671  0.36196002  0.74417354  1
  O  O322  1  0.75090455  0.85955860  0.22461765  1
  O  O323  1  0.77200678  0.89558991  0.72083675  1
  O  O324  1  0.25294164  0.09926466  0.25872450  1
  O  O325  1  0.26273781  0.13387526  0.76293256  1
  O  O326  1  0.27033200  0.62703704  0.23024168  1
  O  O327  1  0.25356511  0.60992279  0.76100085  1
  O  O328  1  0.76034467  0.12332079  0.25175612  1
  O  O329  1  0.77240821  0.11713703  0.74630173  1
  O  O330  1  0.73120146  0.61087139  0.25252963  1
  O  O331  1  0.71616068  0.65742986  0.76113153  1
  O  O332  1  0.37350989  0.10521824  0.37374034  1
  O  O333  1  0.35564682  0.07302366  0.85120780  1
  O  O334  1  0.41146101  0.60436573  0.34642218  1
  O  O335  1  0.34721135  0.61218849  0.88054830  1
  O  O336  1  0.88476998  0.20128533  0.29146682  1
  O  O337  1  0.88054270  0.11487174  0.86903069  1
  O  O338  1  0.84943735  0.62235986  0.37422363  1
  O  O339  1  0.83355292  0.60303188  0.86920831  1
  O  O340  1  0.18711566  0.35483969  0.04043276  1
  O  O341  1  0.12550108  0.38771561  0.63108646  1
  O  O342  1  0.12059725  0.88086627  0.14587896  1
  O  O343  1  0.10904171  0.88279222  0.63226672  1
  O  O344  1  0.62921190  0.36697922  0.13659864  1
  O  O345  1  0.62123755  0.37813180  0.61425924  1
  O  O346  1  0.63086111  0.87826635  0.11467304  1
  O  O347  1  0.65234890  0.89512612  0.60751161  1
  O  O348  1  0.12627169  0.25500428  0.26864987  1
  O  O349  1  0.11341476  0.26488135  0.75426581  1
  O  O350  1  0.13312389  0.75685100  0.24505196  1
  O  O351  1  0.12305934  0.74653452  0.76317882  1
  O  O352  1  0.62156873  0.26766912  0.25844176  1
  O  O353  1  0.61222536  0.20069007  0.71669350  1
  O  O354  1  0.62774330  0.74802182  0.26326588  1
  O  O355  1  0.58575077  0.78290847  0.81962930  1
  O  O356  1  0.35170624  0.22195910  0.26646421  1
  O  O357  1  0.36674629  0.25930650  0.74553115  1
  O  O358  1  0.38109912  0.77867019  0.24148711  1
  O  O359  1  0.37718798  0.73261188  0.77740331  1
  O  O360  1  0.87043847  0.26314238  0.25519667  1
  O  O361  1  0.87699297  0.24691562  0.72288197  1
  O  O362  1  0.87981347  0.73863761  0.24481469  1
  O  O363  1  0.86825003  0.75391341  0.76662545  1
  O  O364  1  0.39082812  0.51914809  0.51277024  1
  O  O365  1  0.38303662  0.48000569  1.00393992  1
  O  O366  1  0.36787705  1.00351353  0.49655262  1
  O  O367  1  0.35871520  1.01541129  1.00971392  1
  O  O368  1  0.85504114  0.50152555  0.48708603  1
  O  O369  1  0.87516875  0.49492625  0.98796479  1
  O  O370  1  0.88917046  0.99318054  0.49115376  1
  O  O371  1  0.88972693  0.99214847  0.98742314  1
  O  O372  1  0.12251710  -0.02397836  0.02050355  1
  O  O373  1  0.12481190  0.01843871  0.51411863  1
  O  O374  1  0.09376334  0.51135500  -0.01074852  1
  O  O375  1  0.12665152  0.50812691  0.51903802  1
  O  O376  1  0.63444294  0.00550278  -0.00472008  1
  O  O377  1  0.62973853  0.02010080  0.48541517  1
  O  O378  1  0.63560326  0.49669960  0.00538126  1
  O  O379  1  0.62589980  0.50134178  0.50947626  1
  O  O380  1  0.36245337  0.35166852  0.17264874  1
  O  O381  1  0.36470136  0.36908815  0.61796579  1
  O  O382  1  0.41583638  0.87551829  0.10119095  1
  O  O383  1  0.42515657  0.83854736  0.60857624  1
  O  O384  1  0.86470207  0.37401555  0.11744898  1
  O  O385  1  0.87505425  0.38234838  0.61448005  1
  O  O386  1  0.87674839  0.88076079  0.10601124  1
  O  O387  1  0.87212874  0.87745439  0.59856994  1
  O  O388  1  0.13727615  0.15167556  0.37920023  1
  O  O389  1  0.13846562  0.14172691  0.85038592  1
  O  O390  1  0.10884135  0.62961708  0.41095775  1
  O  O391  1  0.12242534  0.63124747  0.87781658  1
  O  O392  1  0.60552314  0.14124094  0.35449730  1
  O  O393  1  0.64884732  0.11638374  0.87036496  1
  O  O394  1  0.62877198  0.63374194  0.38123471  1
  O  O395  1  0.63451920  0.61039435  0.88747226  1
