# generated using pymatgen
data_V35Zn35O128
_symmetry_space_group_name_H-M   'P 1'
_cell_length_a   16.94202882
_cell_length_b   16.86587490
_cell_length_c   16.86725261
_cell_angle_alpha   90.28241089
_cell_angle_beta   89.93183342
_cell_angle_gamma   89.65426869
_symmetry_Int_Tables_number   1
_chemical_formula_structural   V35Zn35O128
_chemical_formula_sum   'V70 Zn70 O256'
_cell_volume   4819.53495940
_cell_formula_units_Z   2
loop_
 _symmetry_equiv_pos_site_id
 _symmetry_equiv_pos_as_xyz
  1  'x, y, z'
loop_
 _atom_site_type_symbol
 _atom_site_label
 _atom_site_symmetry_multiplicity
 _atom_site_fract_x
 _atom_site_fract_y
 _atom_site_fract_z
 _atom_site_occupancy
  V  V0  1  0.70550229  0.62973018  0.37127280  1
  V  V1  1  0.51038238  0.50132784  0.51723261  1
  V  V2  1  0.35723050  0.51994354  0.87525211  1
  V  V3  1  0.37768028  0.50603998  0.38475408  1
  V  V4  1  0.49459691  0.36473754  0.36509755  1
  V  V5  1  0.34785718  0.83445140  0.50580240  1
  V  V6  1  0.74403755  0.25375359  -0.00537933  1
  V  V7  1  0.24713973  0.24856413  0.50203553  1
  V  V8  1  0.13122127  0.39668525  0.74693817  1
  V  V9  1  0.62919216  -0.00339266  0.62182835  1
  V  V10  1  0.70641918  -0.02246551  0.24176438  1
  V  V11  1  0.37342051  0.87502205  -0.01930656  1
  V  V12  1  0.87860127  -0.00676912  0.89192775  1
  V  V13  1  0.11265259  0.76545972  0.34719125  1
  V  V14  1  0.63220127  0.39136891  0.73399085  1
  V  V15  1  0.55650584  0.20737250  0.19980486  1
  V  V16  1  0.12355141  0.37423652  0.24521396  1
  V  V17  1  0.12360283  -0.00316859  0.13991857  1
  V  V18  1  0.12489919  0.11870256  -0.01278210  1
  V  V19  1  0.24578006  -0.01308992  0.76487068  1
  V  V20  1  0.25730330  0.11496117  0.35833902  1
  V  V21  1  0.49712116  0.25252177  0.76531276  1
  V  V22  1  0.88058880  0.89090160  0.48114010  1
  V  V23  1  0.50631929  0.76167625  0.25054730  1
  V  V24  1  0.75131979  -0.00623247  0.75430668  1
  V  V25  1  0.63669389  0.12873483  0.50761206  1
  V  V26  1  0.86787009  0.13587477  0.75712720  1
  V  V27  1  0.25540414  0.88518354  0.14448077  1
  V  V28  1  0.09758578  0.76558879  0.87733767  1
  V  V29  1  0.37926735  0.25140787  0.12859169  1
  V  V30  1  0.87081349  0.76241135  0.60971534  1
  V  V31  1  -0.00607026  0.76309906  0.73756163  1
  V  V32  1  0.24849530  0.23978605  -0.01170466  1
  V  V33  1  0.25495209  0.50193159  0.24266666  1
  V  V34  1  0.38533138  0.62510394  0.24443214  1
  V  V35  1  0.72310246  0.75514504  0.49391172  1
  V  V36  1  0.48576698  0.14086676  0.62340919  1
  V  V37  1  0.64884317  0.38049945  0.25637210  1
  V  V38  1  0.87801290  0.62488185  0.73877408  1
  V  V39  1  0.46906702  0.00339384  0.50045444  1
  V  V40  1  0.38196355  0.11418909  0.23826299  1
  V  V41  1  0.24952756  0.37641104  0.12029937  1
  V  V42  1  0.24658216  0.38538317  0.62627068  1
  V  V43  1  -0.02336602  0.48612013  0.51166786  1
  V  V44  1  0.01083222  0.37618772  0.87479319  1
  V  V45  1  0.37197575  0.38077467  -0.00799358  1
  V  V46  1  0.54061894  0.02139096  -0.00230549  1
  V  V47  1  0.02891081  0.23662454  0.74942307  1
  V  V48  1  0.87490771  0.38329961  -0.00519399  1
  V  V49  1  0.63355257  0.50359712  0.12568197  1
  V  V50  1  0.62774131  0.24818174  0.39171517  1
  V  V51  1  -0.00477871  0.11477138  0.61694438  1
  V  V52  1  0.12526442  0.25646004  0.36847140  1
  V  V53  1  0.50976567  0.87521747  0.38347489  1
  V  V54  1  0.60845852  0.62574591  0.00365845  1
  V  V55  1  0.38312547  0.36293716  0.51138157  1
  V  V56  1  0.00267439  0.13025394  0.12384013  1
  V  V57  1  0.37013370  0.12240235  0.76646126  1
  V  V58  1  0.88309253  0.26274680  0.12847270  1
  V  V59  1  0.14616797  0.07387878  0.50691107  1
  V  V60  1  0.36985302  0.75383848  0.12887462  1
  V  V61  1  0.86056613  0.34761495  0.53406959  1
  V  V62  1  0.10817356  0.62132895  0.01320279  1
  V  V63  1  0.50483927  0.38912347  0.87861387  1
  V  V64  1  0.89292296  0.09805153  0.27969312  1
  V  V65  1  0.60930189  0.87158945  0.76065937  1
  V  V66  1  0.23820275  0.74783903  -0.00949638  1
  V  V67  1  0.75478872  0.63865647  0.88454790  1
  V  V68  1  0.38457371  0.71987518  0.64195750  1
  V  V69  1  0.87487986  0.50098829  0.86734947  1
  Zn  Zn70  1  0.31745253  0.60556141  0.73142315  1
  Zn  Zn71  1  0.69253993  0.10838581  0.91682253  1
  Zn  Zn72  1  0.75557550  0.75183665  0.02987716  1
  Zn  Zn73  1  0.15754931  0.64197198  0.46326532  1
  Zn  Zn74  1  0.10520770  0.90283375  0.69928911  1
  Zn  Zn75  1  -0.01191905  0.69391347  0.23904285  1
  Zn  Zn76  1  0.19348225  0.18694800  0.18396514  1
  Zn  Zn77  1  0.20208496  0.15641031  0.67541404  1
  Zn  Zn78  1  0.19214277  0.68303946  0.20076250  1
  Zn  Zn79  1  0.18995805  0.73150972  0.64923704  1
  Zn  Zn80  1  0.73503288  0.16163250  0.18489450  1
  Zn  Zn81  1  0.67324102  0.18791354  0.74166608  1
  Zn  Zn82  1  0.67909032  0.69328221  0.18403659  1
  Zn  Zn83  1  0.70615503  0.70411225  0.69646851  1
  Zn  Zn84  1  0.31192513  0.31214562  0.31232116  1
  Zn  Zn85  1  0.31433657  0.31056759  0.80804508  1
  Zn  Zn86  1  0.31300426  0.81021275  0.32445662  1
  Zn  Zn87  1  0.30549484  0.79779621  0.80049731  1
  Zn  Zn88  1  0.81931634  0.28806646  0.32148843  1
  Zn  Zn89  1  0.80752239  0.31539977  0.81134073  1
  Zn  Zn90  1  0.78803393  0.81943044  0.31813474  1
  Zn  Zn91  1  0.81194508  0.81737746  0.81481779  1
  Zn  Zn92  1  0.19751937  0.44365585  0.43722927  1
  Zn  Zn93  1  0.18682411  0.44536915  0.93835803  1
  Zn  Zn94  1  0.19234696  0.92164464  0.41669551  1
  Zn  Zn95  1  0.19120315  0.93819397  0.94244539  1
  Zn  Zn96  1  0.69838335  0.44080106  0.44288413  1
  Zn  Zn97  1  0.69563662  0.44651851  0.93663113  1
  Zn  Zn98  1  0.70197841  0.94581568  0.43534055  1
  Zn  Zn99  1  0.69776911  0.92941684  0.93103474  1
  Zn  Zn100  1  0.31732871  0.05682049  0.05801849  1
  Zn  Zn101  1  0.29025581  -0.01012854  0.58212294  1
  Zn  Zn102  1  0.30993161  0.57058727  0.06035220  1
  Zn  Zn103  1  0.28159634  0.57926687  0.55894022  1
  Zn  Zn104  1  0.80769976  0.06824232  0.07075655  1
  Zn  Zn105  1  0.81440851  0.07178949  0.56963347  1
  Zn  Zn106  1  0.79502945  0.59111075  0.09905281  1
  Zn  Zn107  1  0.83136430  0.56679882  0.47358751  1
  Zn  Zn108  1  0.44647159  0.43900444  0.17707262  1
  Zn  Zn109  1  0.43183231  0.44370180  0.69548240  1
  Zn  Zn110  1  0.49936427  0.95392831  0.18745304  1
  Zn  Zn111  1  0.43151771  0.94178657  0.68489816  1
  Zn  Zn112  1  0.91891698  0.42107302  0.20866650  1
  Zn  Zn113  1  0.94113505  0.43543973  0.68491201  1
  Zn  Zn114  1  0.93332871  0.94044323  0.16485432  1
  Zn  Zn115  1  0.92826998  0.94228693  0.67735844  1
  Zn  Zn116  1  0.06646219  0.07474086  0.31946191  1
  Zn  Zn117  1  0.05360839  0.04700305  0.81754751  1
  Zn  Zn118  1  0.06594787  0.54411385  0.32685652  1
  Zn  Zn119  1  0.16666216  0.59430258  0.81498717  1
  Zn  Zn120  1  0.56104243  0.06019576  0.32475880  1
  Zn  Zn121  1  0.55356123  0.05696346  0.81481397  1
  Zn  Zn122  1  0.55517064  0.55734002  0.31077825  1
  Zn  Zn123  1  0.56577286  0.55935147  0.83093108  1
  Zn  Zn124  1  0.43391259  0.18297340  0.43362855  1
  Zn  Zn125  1  0.44835247  0.18725059  0.94810061  1
  Zn  Zn126  1  0.46294053  0.68225376  0.43580638  1
  Zn  Zn127  1  0.43904362  0.70939310  0.94113481  1
  Zn  Zn128  1  0.92761334  0.20445327  0.43965945  1
  Zn  Zn129  1  0.93972790  0.19071588  0.93384048  1
  Zn  Zn130  1  0.97729841  0.69372404  0.44528323  1
  Zn  Zn131  1  0.93851875  0.68743222  0.93481165  1
  Zn  Zn132  1  0.06760761  0.30984607  0.06027824  1
  Zn  Zn133  1  0.06199304  0.30685238  0.56398876  1
  Zn  Zn134  1  0.08930515  0.77968307  0.11777068  1
  Zn  Zn135  1  0.06491567  0.82535888  0.53783263  1
  Zn  Zn136  1  0.56647378  0.34110599  0.06740298  1
  Zn  Zn137  1  0.69161112  0.30346488  0.57988185  1
  Zn  Zn138  1  0.55541386  0.82562312  0.05359263  1
  Zn  Zn139  1  0.54884058  0.81732326  0.57438740  1
  O  O140  1  0.12041842  0.11792059  0.12546034  1
  O  O141  1  0.11254456  0.12135586  0.59596186  1
  O  O142  1  0.11675727  0.64481946  0.11672168  1
  O  O143  1  0.18969840  0.64987581  0.56874882  1
  O  O144  1  0.62470977  0.15325969  0.15195949  1
  O  O145  1  0.60700146  0.11539204  0.61384117  1
  O  O146  1  0.61056426  0.60683254  0.12268606  1
  O  O147  1  0.64406458  0.60743997  0.63344603  1
  O  O148  1  0.38452935  0.37320043  0.38357613  1
  O  O149  1  0.37017245  0.38743512  0.87982236  1
  O  O150  1  0.37940316  0.86238891  0.40444753  1
  O  O151  1  0.35708963  0.86300697  0.88279173  1
  O  O152  1  0.88539606  0.30781211  0.41031157  1
  O  O153  1  0.88560826  0.37824952  0.87489504  1
  O  O154  1  0.86850427  0.87086391  0.38127401  1
  O  O155  1  0.84196540  0.89597500  0.89047449  1
  O  O156  1  0.24458501  0.01639009  0.36755404  1
  O  O157  1  0.24957449  0.00232722  0.86549020  1
  O  O158  1  0.28059255  0.47602710  0.34713757  1
  O  O159  1  0.25119352  0.51651801  0.87194807  1
  O  O160  1  0.72591280  0.00635224  0.33781162  1
  O  O161  1  0.74805486  0.01249865  0.86223579  1
  O  O162  1  0.74856541  0.53209425  0.39460965  1
  O  O163  1  0.76917203  0.50822724  0.87250279  1
  O  O164  1  0.26218236  0.49020241  0.13306395  1
  O  O165  1  0.25137720  0.48284246  0.62745214  1
  O  O166  1  0.24223388  0.99217616  0.12438556  1
  O  O167  1  0.24005477  1.04239743  0.66707458  1
  O  O168  1  0.73624592  0.49939273  0.13291254  1
  O  O169  1  0.68911033  0.55092843  0.61914033  1
  O  O170  1  0.74659004  1.04045512  0.16529051  1
  O  O171  1  0.73466530  1.01149967  0.63941939  1
  O  O172  1  0.02690663  0.39385011  0.24405022  1
  O  O173  1  0.02310235  0.36226206  0.74683077  1
  O  O174  1  -0.05024815  0.83168032  0.20220734  1
  O  O175  1  -0.00443661  0.86949866  0.73889689  1
  O  O176  1  0.49669027  0.37225861  0.26468928  1
  O  O177  1  0.49017403  0.37088415  0.76652077  1
  O  O178  1  0.48683927  0.87094848  0.27066257  1
  O  O179  1  0.50967323  0.88871272  0.74761837  1
  O  O180  1  0.49622791  0.14067439  0.25495218  1
  O  O181  1  0.49714128  0.13659095  0.74103340  1
  O  O182  1  0.49231303  0.64365416  0.25643492  1
  O  O183  1  0.51346521  0.66262905  0.78907773  1
  O  O184  1  0.99165721  0.12277900  0.24188233  1
  O  O185  1  0.99811604  0.13081580  0.74987524  1
  O  O186  1  0.97421250  0.57082548  0.26044277  1
  O  O187  1  0.97648498  0.65338727  0.76077876  1
  O  O188  1  0.36653694  0.25506891  0.00758062  1
  O  O189  1  0.36727064  0.25898108  0.49597248  1
  O  O190  1  0.35082506  0.74803499  0.01218499  1
  O  O191  1  0.38813072  0.73799920  0.50563225  1
  O  O192  1  0.87593646  0.26319712  0.00308549  1
  O  O193  1  0.86133528  0.24479495  0.53602748  1
  O  O194  1  0.87355238  0.76720811  0.00267617  1
  O  O195  1  0.88878757  0.75666123  0.50719132  1
  O  O196  1  0.13475095  0.26286497  0.48008321  1
  O  O197  1  0.14198074  0.23797127  1.00470741  1
  O  O198  1  0.08768639  0.74011714  0.46347625  1
  O  O199  1  0.12850401  0.75652432  1.00563010  1
  O  O200  1  0.62081794  0.24206587  0.50003731  1
  O  O201  1  0.64786359  0.27772688  1.01365201  1
  O  O202  1  0.62613040  0.75511539  0.51544104  1
  O  O203  1  0.63107859  0.72520063  1.02302532  1
  O  O204  1  0.49887572  0.26026626  0.12889619  1
  O  O205  1  0.49731438  0.23910800  0.63021997  1
  O  O206  1  0.48147003  0.77070094  0.14211547  1
  O  O207  1  0.47810605  0.75844105  0.63462924  1
  O  O208  1  0.99660690  0.24409374  0.12262360  1
  O  O209  1  1.01011552  0.23401526  0.64300996  1
  O  O210  1  0.97129417  0.77143012  0.14904420  1
  O  O211  1  0.98605544  0.74933094  0.63437969  1
  O  O212  1  0.02920814  0.23900469  0.37248984  1
  O  O213  1  -0.00120819  0.26118354  0.85484090  1
  O  O214  1  -0.00051808  0.73870809  0.34313558  1
  O  O215  1  -0.00604430  0.76885489  0.87368688  1
  O  O216  1  0.50378188  0.26081919  0.38282339  1
  O  O217  1  0.49707661  0.26268283  0.86952323  1
  O  O218  1  0.50090810  0.76389836  0.36560552  1
  O  O219  1  0.50499399  0.72265543  0.83494519  1
  O  O220  1  0.23252451  0.12987469  0.47621083  1
  O  O221  1  0.24603766  0.13368416  1.00255958  1
  O  O222  1  0.23223910  0.55201175  0.46068633  1
  O  O223  1  0.23536852  0.64409166  1.01176967  1
  O  O224  1  0.73485609  0.12870974  0.50720337  1
  O  O225  1  0.74979572  0.14760985  1.00744795  1
  O  O226  1  0.75268410  0.65118152  0.48587765  1
  O  O227  1  0.76652567  0.62568045  0.98785534  1
  O  O228  1  0.25236898  0.36701881  0.00351916  1
  O  O229  1  0.25838086  0.36903899  0.51015766  1
  O  O230  1  0.25640293  0.86343585  0.00802909  1
  O  O231  1  0.25096238  0.84185256  0.48184396  1
  O  O232  1  0.77033917  0.37397703  -0.00499088  1
  O  O233  1  0.75500687  0.36538725  0.50706995  1
  O  O234  1  0.71684078  0.86496010  0.02757316  1
  O  O235  1  0.75685268  0.85671703  0.48806383  1
  O  O236  1  0.15131656  0.49015830  0.25557196  1
  O  O237  1  0.12812019  0.49409043  0.75003610  1
  O  O238  1  0.12040333  1.00495573  0.23935034  1
  O  O239  1  0.13424863  0.98974227  0.76235621  1
  O  O240  1  0.61744787  0.48517036  0.24483569  1
  O  O241  1  0.60582644  0.48962965  0.75286511  1
  O  O242  1  0.60070180  0.99275920  0.23880158  1
  O  O243  1  0.62755922  0.99572580  0.73909503  1
  O  O244  1  0.40534216  0.01808007  0.22942600  1
  O  O245  1  0.36628481  0.01423276  0.75156739  1
  O  O246  1  0.38323728  0.50930191  0.24560869  1
  O  O247  1  0.37133830  0.51141627  0.76793996  1
  O  O248  1  0.88136112  0.00065323  0.24862155  1
  O  O249  1  0.85910894  -0.00372531  0.75611438  1
  O  O250  1  0.90622414  0.52622351  0.26477875  1
  O  O251  1  0.88653516  0.51711786  0.75161455  1
  O  O252  1  0.14652607  0.36627527  0.35590413  1
  O  O253  1  0.12161334  0.38013103  0.86009089  1
  O  O254  1  0.11006261  0.86736119  0.36227412  1
  O  O255  1  0.12264433  0.86259565  0.88895621  1
  O  O256  1  0.61031978  0.36571481  0.37550338  1
  O  O257  1  0.60526560  0.39170023  0.88390373  1
  O  O258  1  0.60781849  0.88242030  0.38457505  1
  O  O259  1  0.62595805  0.87298767  0.86070206  1
  O  O260  1  0.37556215  0.13500873  0.12978236  1
  O  O261  1  0.38743061  0.12468449  0.64033204  1
  O  O262  1  0.37261040  0.63912078  0.13284018  1
  O  O263  1  0.36834081  0.61614033  0.62220845  1
  O  O264  1  0.89163746  0.14306381  0.12382309  1
  O  O265  1  0.88722657  0.11343305  0.64862784  1
  O  O266  1  0.91821293  0.58678638  0.11878048  1
  O  O267  1  0.87112642  0.64100597  0.63939652  1
  O  O268  1  0.26109439  0.25875203  0.11517499  1
  O  O269  1  0.24110304  0.24504521  0.60557442  1
  O  O270  1  0.25221092  0.76567094  0.13205284  1
  O  O271  1  0.30290491  0.77727821  0.61949871  1
  O  O272  1  0.77909366  0.25137073  0.11690585  1
  O  O273  1  0.72339636  0.22402774  0.64948838  1
  O  O274  1  0.77568231  0.69979476  0.13040199  1
  O  O275  1  0.76390333  0.74934493  0.60638063  1
  O  O276  1  0.25294954  0.24363753  0.38335265  1
  O  O277  1  0.25648914  0.25431910  0.89085688  1
  O  O278  1  0.21684601  0.75162326  0.34634680  1
  O  O279  1  0.23826780  0.75099739  0.88882906  1
  O  O280  1  0.72417791  0.24890867  0.37912884  1
  O  O281  1  0.75270012  0.25257529  0.89273016  1
  O  O282  1  0.72299576  0.74500764  0.38085864  1
  O  O283  1  0.75648508  0.74121890  0.88612617  1
  O  O284  1  0.01771101  0.13501162  0.00825444  1
  O  O285  1  -0.02620960  0.13291799  0.52239878  1
  O  O286  1  0.00787975  0.63478206  0.00546997  1
  O  O287  1  -0.05221834  0.58790256  0.47479998  1
  O  O288  1  0.50742428  0.11721875  0.01518753  1
  O  O289  1  0.49691576  0.11683116  0.50701791  1
  O  O290  1  0.51119259  0.62813431  -0.01287793  1
  O  O291  1  0.49635312  0.60047960  0.50288403  1
  O  O292  1  0.48314564  0.37797028  0.49649055  1
  O  O293  1  0.48197050  0.36483248  0.98399173  1
  O  O294  1  0.49487406  0.88969394  0.49514671  1
  O  O295  1  0.46991754  0.82437183  0.97847569  1
  O  O296  1  0.97652838  0.37004583  0.52407703  1
  O  O297  1  1.00405320  0.36451174  0.97833909  1
  O  O298  1  0.98112307  0.89124816  0.49788298  1
  O  O299  1  0.91282621  0.83684738  1.02776451  1
  O  O300  1  0.48779103  0.48429511  0.37938599  1
  O  O301  1  0.48091833  0.49196001  0.87861083  1
  O  O302  1  0.49463494  0.99335118  0.39266246  1
  O  O303  1  0.51248562  0.99704731  0.90260015  1
  O  O304  1  1.03205947  0.46456494  0.40545490  1
  O  O305  1  0.99099624  0.47670554  0.86338983  1
  O  O306  1  1.07953977  1.05690693  0.43399877  1
  O  O307  1  0.97739392  0.98494802  0.87441705  1
  O  O308  1  0.01563440  0.00910918  0.12021765  1
  O  O309  1  0.00677962  0.01244426  0.63164448  1
  O  O310  1  -0.04026970  0.52480487  0.11550524  1
  O  O311  1  -0.00414332  0.50377783  0.60947415  1
  O  O312  1  0.51972695  -0.04861288  0.07625338  1
  O  O313  1  0.50438910  0.00699951  0.60926995  1
  O  O314  1  0.53712590  0.45133313  0.11074926  1
  O  O315  1  0.49498422  0.48956616  0.61617397  1
  O  O316  1  0.25504666  0.37959020  0.23341464  1
  O  O317  1  0.23994943  0.36647399  0.73796323  1
  O  O318  1  0.26515617  0.88424850  0.24309161  1
  O  O319  1  0.25860916  0.88800319  0.74507869  1
  O  O320  1  0.74334452  0.38124140  0.28630875  1
  O  O321  1  0.72777767  0.37894603  0.76452979  1
  O  O322  1  0.73718083  0.88029176  0.23559027  1
  O  O323  1  0.73780281  0.89126277  0.75110456  1
  O  O324  1  0.27179100  0.12131820  0.24604981  1
  O  O325  1  0.27293081  0.14850359  0.76918437  1
  O  O326  1  0.26595122  0.60709945  0.24606852  1
  O  O327  1  0.21638703  0.65261622  0.73295684  1
  O  O328  1  0.81302758  0.16644432  0.26877968  1
  O  O329  1  0.76650878  0.11453452  0.75220922  1
  O  O330  1  0.71026379  0.62423733  0.27091975  1
  O  O331  1  0.76765196  0.63776336  0.76723975  1
  O  O332  1  0.36767175  0.13034354  0.35361970  1
  O  O333  1  0.39669565  0.12763045  0.86373021  1
  O  O334  1  0.38327390  0.60845825  0.36736385  1
  O  O335  1  0.37537671  0.61668244  0.89221206  1
  O  O336  1  0.91230635  0.10233852  0.37795799  1
  O  O337  1  0.88452144  0.11338863  0.86213493  1
  O  O338  1  0.85112810  0.65513749  0.33089277  1
  O  O339  1  0.87070096  0.61923352  0.87092366  1
  O  O340  1  0.13929442  0.37184306  0.13068632  1
  O  O341  1  0.13706790  0.37204710  0.63399276  1
  O  O342  1  0.13844081  0.88858363  0.12767053  1
  O  O343  1  0.13625177  0.83015223  0.62231216  1
  O  O344  1  0.65224489  0.36383095  0.15637283  1
  O  O345  1  0.63286900  0.38678812  0.63389280  1
  O  O346  1  0.65826138  0.87433773  0.08429503  1
  O  O347  1  0.61959107  0.89550756  0.62428593  1
  O  O348  1  0.13519163  0.26755416  0.24886986  1
  O  O349  1  0.12730884  0.23061796  0.74945464  1
  O  O350  1  0.10269405  0.74778946  0.23551905  1
  O  O351  1  0.09955739  0.75493985  0.76866406  1
  O  O352  1  0.61697595  0.26185724  0.26802263  1
  O  O353  1  0.59912878  0.27926678  0.74670179  1
  O  O354  1  0.60364201  0.76123308  0.23519470  1
  O  O355  1  0.62731974  0.77505070  0.73007350  1
  O  O356  1  0.37385878  0.24805863  0.23327764  1
  O  O357  1  0.39121081  0.24608507  0.75006297  1
  O  O358  1  0.37560965  0.74167060  0.24781759  1
  O  O359  1  0.36877013  0.71875151  0.74784083  1
  O  O360  1  0.88389797  0.30528193  0.22479693  1
  O  O361  1  0.87280407  0.23639599  0.75605744  1
  O  O362  1  0.85726826  0.70735524  0.27704148  1
  O  O363  1  0.87576419  0.75963427  0.73769870  1
  O  O364  1  0.37775568  0.48631605  0.48856767  1
  O  O365  1  0.35976670  0.49031210  0.99060834  1
  O  O366  1  0.37316307  1.02392016  0.49602356  1
  O  O367  1  0.37498183  0.97572559  0.99948586  1
  O  O368  1  0.87275215  0.46215106  0.49825951  1
  O  O369  1  0.88369709  0.48485509  0.98293816  1
  O  O370  1  0.84620240  0.98632375  0.49854584  1
  O  O371  1  0.86665403  1.01684365  0.99021178  1
  O  O372  1  0.13531863  0.01640886  0.01134037  1
  O  O373  1  0.18558116  -0.01975023  0.52321581  1
  O  O374  1  0.12813366  0.52189117  0.00055229  1
  O  O375  1  0.08484817  0.47962386  0.47238912  1
  O  O376  1  0.64478337  0.02221290  -0.01139991  1
  O  O377  1  0.63298809  0.01132679  0.50888584  1
  O  O378  1  0.63787749  0.51370947  0.01274429  1
  O  O379  1  0.60677543  0.48297908  0.49752607  1
  O  O380  1  0.37082289  0.37025976  0.11220594  1
  O  O381  1  0.36379721  0.37319997  0.61701490  1
  O  O382  1  0.36033211  0.86784986  0.11638898  1
  O  O383  1  0.37048794  0.90575937  0.58751038  1
  O  O384  1  0.89881258  0.37466749  0.09971538  1
  O  O385  1  0.86271967  0.37001349  0.63496545  1
  O  O386  1  0.86848881  0.87985645  0.07541486  1
  O  O387  1  0.87033413  0.86714286  0.61055023  1
  O  O388  1  0.15447962  0.15052574  0.33658645  1
  O  O389  1  0.11713742  0.11716385  0.88879824  1
  O  O390  1  0.11977859  0.63505581  0.35711146  1
  O  O391  1  0.11527289  0.65416949  0.89774861  1
  O  O392  1  0.61077764  0.13726542  0.39504017  1
  O  O393  1  0.62655229  0.14186297  0.83462841  1
  O  O394  1  0.60676147  0.62303160  0.38953562  1
  O  O395  1  0.64498055  0.61669996  0.89410505  1
