# generated using pymatgen
data_V35Zn35O128
_symmetry_space_group_name_H-M   'P 1'
_cell_length_a   16.87719399
_cell_length_b   16.90640710
_cell_length_c   16.91366688
_cell_angle_alpha   89.88431915
_cell_angle_beta   89.96642396
_cell_angle_gamma   89.83844455
_symmetry_Int_Tables_number   1
_chemical_formula_structural   V35Zn35O128
_chemical_formula_sum   'V70 Zn70 O256'
_cell_volume   4825.99261072
_cell_formula_units_Z   2
loop_
 _symmetry_equiv_pos_site_id
 _symmetry_equiv_pos_as_xyz
  1  'x, y, z'
loop_
 _atom_site_type_symbol
 _atom_site_label
 _atom_site_symmetry_multiplicity
 _atom_site_fract_x
 _atom_site_fract_y
 _atom_site_fract_z
 _atom_site_occupancy
  V  V0  1  0.48613244  0.12556984  0.62804910  1
  V  V1  1  0.75103538  0.12611047  0.38229412  1
  V  V2  1  -0.00364761  0.51602154  0.48674539  1
  V  V3  1  0.67670132  0.18119078  0.04823977  1
  V  V4  1  0.12408633  0.00579528  0.13495847  1
  V  V5  1  0.75856439  0.88021088  0.12235821  1
  V  V6  1  0.25446682  0.86963758  0.11448333  1
  V  V7  1  0.11844609  0.50228893  0.62649911  1
  V  V8  1  0.51194590  0.38309159  0.86940982  1
  V  V9  1  0.51043197  0.38395873  0.38241006  1
  V  V10  1  0.12120034  0.86499922  0.75816061  1
  V  V11  1  0.48236875  0.24253317  0.75059397  1
  V  V12  1  0.11920531  0.50029998  0.12151179  1
  V  V13  1  0.62590462  0.38100741  0.23181812  1
  V  V14  1  0.23417869  0.24557915  0.49705823  1
  V  V15  1  0.36771588  0.00587895  0.87878386  1
  V  V16  1  0.75803418  0.00347379  0.25599247  1
  V  V17  1  0.62006214  -0.00357068  0.62781685  1
  V  V18  1  0.12562391  0.36752740  0.75673694  1
  V  V19  1  0.61778376  0.12056645  0.50343720  1
  V  V20  1  0.36850886  0.24944404  0.12267471  1
  V  V21  1  -0.01253521  0.51338516  -0.01307166  1
  V  V22  1  0.46431474  0.71425985  0.24067112  1
  V  V23  1  0.24800158  0.37076429  0.11836233  1
  V  V24  1  0.25154557  -0.00311382  0.74612012  1
  V  V25  1  0.11934743  0.36734389  0.26419742  1
  V  V26  1  -0.05746798  0.18440052  0.07634868  1
  V  V27  1  0.61725398  0.87993147  0.25591092  1
  V  V28  1  0.00389276  0.12203199  0.61177734  1
  V  V29  1  0.49859242  0.73836225  0.74524603  1
  V  V30  1  0.62531678  0.00155797  0.12028542  1
  V  V31  1  0.88620704  0.75624404  0.14305522  1
  V  V32  1  -0.00177141  0.24514973  0.75239421  1
  V  V33  1  0.37116056  0.12134199  0.25774215  1
  V  V34  1  0.76394922  0.62745058  0.87324592  1
  V  V35  1  0.23621311  0.12628953  0.37574027  1
  V  V36  1  0.77156429  0.75538128  0.00085842  1
  V  V37  1  0.61676050  0.74883435  0.89954024  1
  V  V38  1  0.75438114  -0.01418659  0.75374084  1
  V  V39  1  -0.00491063  -0.01260364  -0.00370899  1
  V  V40  1  0.49128799  0.00076647  0.00473474  1
  V  V41  1  0.12460645  -0.00146626  0.61395522  1
  V  V42  1  0.25115443  0.37083887  0.62693022  1
  V  V43  1  -0.01406838  0.37140385  0.88444080  1
  V  V44  1  0.13894833  0.63472743  -0.01466073  1
  V  V45  1  0.90341704  0.76226164  0.62439649  1
  V  V46  1  -0.00433483  0.89095936  0.38030063  1
  V  V47  1  -0.00209601  0.62883865  0.14140609  1
  V  V48  1  0.87559167  0.12202834  0.74882707  1
  V  V49  1  0.12645202  0.86300676  0.25433617  1
  V  V50  1  -0.00540749  0.25828301  0.26743782  1
  V  V51  1  0.38800630  0.37317628  -0.00008529  1
  V  V52  1  0.89032446  0.36722894  0.50262087  1
  V  V53  1  0.12561164  0.73338297  0.38604671  1
  V  V54  1  0.74849940  0.25401217  0.52720963  1
  V  V55  1  0.13504585  0.13536917  0.00432433  1
  V  V56  1  0.24570327  0.13982632  0.87330304  1
  V  V57  1  0.35207658  0.49676791  0.87235881  1
  V  V58  1  0.49477590  0.13124016  0.12408178  1
  V  V59  1  0.62980810  0.24347175  0.86029843  1
  V  V60  1  0.38591904  -0.00781599  0.38723457  1
  V  V61  1  0.37435191  0.36971348  0.49431271  1
  V  V62  1  0.87952957  0.13030887  0.25514121  1
  V  V63  1  0.74958802  0.11761520  0.87573504  1
  V  V64  1  0.26225132  0.77804032  0.49294883  1
  V  V65  1  0.62848669  0.73696114  0.36637252  1
  V  V66  1  0.25028226  0.50524575  0.25828332  1
  V  V67  1  0.61613349  0.87170461  0.74891295  1
  V  V68  1  0.36720834  0.61559097  0.74661832  1
  V  V69  1  0.48837026  0.87451008  0.88781627  1
  Zn  Zn70  1  0.62059517  0.25149499  0.38267639  1
  Zn  Zn71  1  0.38997062  0.70305866  0.58293756  1
  Zn  Zn72  1  0.86491589  0.89147428  0.49663522  1
  Zn  Zn73  1  0.36920813  0.50086668  0.37742301  1
  Zn  Zn74  1  0.74349287  0.76350256  0.50953265  1
  Zn  Zn75  1  0.49639347  0.25425995  0.25626463  1
  Zn  Zn76  1  0.18467871  0.18852705  0.19194059  1
  Zn  Zn77  1  0.18603690  0.18635835  0.68730415  1
  Zn  Zn78  1  0.19061617  0.68857181  0.18315368  1
  Zn  Zn79  1  0.19694666  0.69098656  0.66857354  1
  Zn  Zn80  1  0.69103327  0.20213563  0.21199426  1
  Zn  Zn81  1  0.68219960  0.17564744  0.69233312  1
  Zn  Zn82  1  0.69566911  0.69505384  0.19097836  1
  Zn  Zn83  1  0.75648551  0.64351189  0.65994733  1
  Zn  Zn84  1  0.30775645  0.31022616  0.31100368  1
  Zn  Zn85  1  0.31331603  0.31514260  0.81513270  1
  Zn  Zn86  1  0.30635449  0.81703098  0.30685804  1
  Zn  Zn87  1  0.31393032  0.81429017  0.80432985  1
  Zn  Zn88  1  0.81022080  0.31474295  0.31670898  1
  Zn  Zn89  1  0.81625083  0.30567695  0.81323725  1
  Zn  Zn90  1  0.80753789  0.81331640  0.31975842  1
  Zn  Zn91  1  0.78727259  0.77604125  0.78844907  1
  Zn  Zn92  1  0.18085096  0.43888859  0.44520175  1
  Zn  Zn93  1  0.17935769  0.43041920  0.94094729  1
  Zn  Zn94  1  0.19234809  0.94486312  0.42892313  1
  Zn  Zn95  1  0.17664763  0.94148113  0.93987454  1
  Zn  Zn96  1  0.72747094  0.42639360  0.42466271  1
  Zn  Zn97  1  0.80383138  0.44263647  0.94351503  1
  Zn  Zn98  1  0.68498474  0.93773999  0.44205104  1
  Zn  Zn99  1  0.68207527  0.93370057  0.93808596  1
  Zn  Zn100  1  0.30595267  0.05583483  0.06634499  1
  Zn  Zn101  1  0.30884271  0.06148538  0.55761783  1
  Zn  Zn102  1  0.30051731  0.54308029  0.05157491  1
  Zn  Zn103  1  0.45040941  0.54421102  0.54850864  1
  Zn  Zn104  1  0.81724296  0.05716424  0.06410419  1
  Zn  Zn105  1  0.80818351  0.05497831  0.56861702  1
  Zn  Zn106  1  0.80527120  0.57378592  0.07844144  1
  Zn  Zn107  1  0.97402438  0.61873657  0.66136458  1
  Zn  Zn108  1  0.43684997  0.44374221  0.19127512  1
  Zn  Zn109  1  0.43178757  0.42718072  0.69488506  1
  Zn  Zn110  1  0.42929863  0.93909707  0.19143710  1
  Zn  Zn111  1  0.44099762  0.94509729  0.70254019  1
  Zn  Zn112  1  0.74067684  0.51055288  0.24108168  1
  Zn  Zn113  1  0.93710908  0.42473690  0.67799409  1
  Zn  Zn114  1  0.94767052  0.94105850  0.19130146  1
  Zn  Zn115  1  0.94363572  0.93438153  0.68937198  1
  Zn  Zn116  1  0.05514480  0.06608081  0.31369563  1
  Zn  Zn117  1  0.07011023  0.05446714  0.81655219  1
  Zn  Zn118  1  0.06764109  0.55822492  0.31340000  1
  Zn  Zn119  1  0.08369726  0.55504523  0.81162941  1
  Zn  Zn120  1  0.56120451  0.06134767  0.31335778  1
  Zn  Zn121  1  0.56025566  0.06193689  0.81514043  1
  Zn  Zn122  1  0.55562061  0.55804370  0.30963035  1
  Zn  Zn123  1  0.57810950  0.57087981  0.82006516  1
  Zn  Zn124  1  0.43398787  0.19581289  0.44289348  1
  Zn  Zn125  1  0.43672427  0.18741505  0.93887605  1
  Zn  Zn126  1  0.46563850  0.73016160  0.43225010  1
  Zn  Zn127  1  0.41980710  0.68170914  0.93699282  1
  Zn  Zn128  1  0.93024145  0.18741662  0.44049322  1
  Zn  Zn129  1  0.95340895  0.16387824  0.91443018  1
  Zn  Zn130  1  0.93976720  0.70546485  0.44844299  1
  Zn  Zn131  1  0.96897558  0.67245849  0.85812887  1
  Zn  Zn132  1  0.05957791  0.31766837  0.06386345  1
  Zn  Zn133  1  0.06060550  0.30449805  0.56776992  1
  Zn  Zn134  1  0.07103864  0.81215934  0.06159838  1
  Zn  Zn135  1  0.07311450  0.81723786  0.55932695  1
  Zn  Zn136  1  0.62648386  0.36414769  0.01862749  1
  Zn  Zn137  1  0.56056432  0.31258944  0.56800188  1
  Zn  Zn138  1  0.55377350  0.81472372  0.07785794  1
  Zn  Zn139  1  0.58101908  0.69667398  0.56247627  1
  O  O140  1  0.13577758  0.11592294  0.11786651  1
  O  O141  1  0.11186878  0.11600923  0.63153366  1
  O  O142  1  0.11020661  0.62185705  0.11906150  1
  O  O143  1  0.13324530  0.60065666  0.63244154  1
  O  O144  1  0.61863206  0.12442461  0.12208620  1
  O  O145  1  0.61500923  0.11478880  0.62202689  1
  O  O146  1  0.60516832  0.58401656  0.03730586  1
  O  O147  1  0.67147648  0.53786072  0.67708500  1
  O  O148  1  0.37643738  0.37334470  0.38450844  1
  O  O149  1  0.38581427  0.38228225  0.87797010  1
  O  O150  1  0.36805176  0.89592782  0.36275597  1
  O  O151  1  0.38245730  0.88725704  0.87263819  1
  O  O152  1  0.83620558  0.38009756  0.40584018  1
  O  O153  1  0.88012417  0.37638325  0.88162260  1
  O  O154  1  0.89273129  0.86488489  0.37492164  1
  O  O155  1  0.91460817  0.83359191  0.87341366  1
  O  O156  1  0.26316662  0.02354893  0.37992510  1
  O  O157  1  0.25449859  0.00586219  0.86771248  1
  O  O158  1  0.24026999  0.49216568  0.36165583  1
  O  O159  1  0.25403787  0.48528484  0.86869751  1
  O  O160  1  0.74133406  0.01259559  0.36331325  1
  O  O161  1  0.73698945  0.00562719  0.86482555  1
  O  O162  1  0.75577933  0.52247881  0.35818818  1
  O  O163  1  0.75824437  0.52850267  0.87345793  1
  O  O164  1  0.24072965  0.48891490  0.13480280  1
  O  O165  1  0.22686036  0.47244544  0.61687729  1
  O  O166  1  0.23138842  0.99077498  0.12407319  1
  O  O167  1  0.24007466  1.01825557  0.64019961  1
  O  O168  1  0.62883385  0.52174476  0.06546623  1
  O  O169  1  0.74220448  0.54651282  0.53987643  1
  O  O170  1  0.74354599  0.99849210  0.13233098  1
  O  O171  1  0.73418586  1.00436101  0.64676193  1
  O  O172  1  0.01073693  0.36426306  0.25322302  1
  O  O173  1  0.00047059  0.36546341  0.75936905  1
  O  O174  1  0.01469587  0.87730834  0.26105221  1
  O  O175  1  0.02072608  0.87917203  0.75225917  1
  O  O176  1  0.50660487  0.38034612  0.26508857  1
  O  O177  1  0.49524086  0.35667245  0.76350291  1
  O  O178  1  0.51872806  0.88799524  0.24027610  1
  O  O179  1  0.49697074  0.86382503  0.76615661  1
  O  O180  1  0.48996126  0.12756279  0.24110690  1
  O  O181  1  0.50081188  0.13368396  0.74349136  1
  O  O182  1  0.47534288  0.61298781  0.24988214  1
  O  O183  1  0.50136145  0.63570541  0.76389810  1
  O  O184  1  0.98881410  0.13991810  0.25271132  1
  O  O185  1  0.99204624  0.13022990  0.76574076  1
  O  O186  1  0.99941779  0.61649394  0.23866414  1
  O  O187  1  1.01149291  0.62830489  0.76735125  1
  O  O188  1  0.37853501  0.26123572  0.00930603  1
  O  O189  1  0.36020985  0.26296008  0.50293301  1
  O  O190  1  0.32224699  0.75196831  -0.04196871  1
  O  O191  1  0.36813609  0.76403247  0.47960286  1
  O  O192  1  0.89084255  0.23000096  0.00560123  1
  O  O193  1  0.85310521  0.25232957  0.49848612  1
  O  O194  1  0.86891926  0.76461770  0.00986336  1
  O  O195  1  0.86466882  0.75960596  0.51461530  1
  O  O196  1  0.13499920  0.25396908  0.49479794  1
  O  O197  1  0.12202494  0.23492583  1.01091640  1
  O  O198  1  0.14498175  0.75127076  0.49286356  1
  O  O199  1  0.11580740  0.73239003  0.99517731  1
  O  O200  1  0.63113188  0.23753350  0.50812575  1
  O  O201  1  0.62341623  0.24553954  0.98864939  1
  O  O202  1  0.58766532  0.76045786  0.45916210  1
  O  O203  1  0.62424920  0.75920648  1.00058992  1
  O  O204  1  0.48567409  0.23717793  0.12656783  1
  O  O205  1  0.50369875  0.24109291  0.64237429  1
  O  O206  1  0.50585261  0.74711465  0.15244940  1
  O  O207  1  0.49886326  0.74499281  0.64482228  1
  O  O208  1  0.99391304  0.25246668  0.13337041  1
  O  O209  1  1.00296272  0.22959742  0.63950690  1
  O  O210  1  0.99510078  0.74466643  0.13068151  1
  O  O211  1  1.00408716  0.73975175  0.61560560  1
  O  O212  1  -0.00188436  0.24750262  0.36560771  1
  O  O213  1  -0.00378654  0.26373651  0.86942673  1
  O  O214  1  0.02205517  0.75541894  0.38375313  1
  O  O215  1  -0.02388777  0.79257040  0.88082450  1
  O  O216  1  0.50084310  0.26634133  0.37666895  1
  O  O217  1  0.50762569  0.24340895  0.86399432  1
  O  O218  1  0.51088536  0.75034351  0.33005213  1
  O  O219  1  0.50227405  0.75469474  0.89215269  1
  O  O220  1  0.25141609  0.13826893  0.49059828  1
  O  O221  1  0.24149470  0.12318899  0.99306264  1
  O  O222  1  0.28485415  0.62243979  0.45405771  1
  O  O223  1  0.23683811  0.62616413  1.01818846  1
  O  O224  1  0.73886188  0.13112313  0.49947958  1
  O  O225  1  0.74298867  0.11878772  0.99474350  1
  O  O226  1  0.79943556  0.58694288  0.40089989  1
  O  O227  1  0.75669569  0.64993446  0.99355875  1
  O  O228  1  0.25826316  0.37930022  0.01241849  1
  O  O229  1  0.25231861  0.36432052  0.50577040  1
  O  O230  1  0.23835306  0.88181019  0.01475246  1
  O  O231  1  0.25069667  0.87621359  0.50399417  1
  O  O232  1  0.85452146  0.37205457  0.09371151  1
  O  O233  1  0.72871946  0.35357188  0.51864588  1
  O  O234  1  0.74660256  0.87385036  0.01540323  1
  O  O235  1  0.74951164  0.87658661  0.50640299  1
  O  O236  1  0.12532697  0.48541825  0.23950058  1
  O  O237  1  0.12114418  0.47694523  0.73798995  1
  O  O238  1  0.11797025  1.00430845  0.23731473  1
  O  O239  1  0.13875784  0.99176477  0.74863452  1
  O  O240  1  0.62140910  0.48548934  0.24988825  1
  O  O241  1  0.64608544  0.50784516  0.74133290  1
  O  O242  1  0.63418222  0.99956783  0.23861849  1
  O  O243  1  0.62626073  0.99083816  0.75000756  1
  O  O244  1  0.37330641  0.01927151  0.25563687  1
  O  O245  1  0.36195667  0.00432634  0.76129303  1
  O  O246  1  0.35450809  0.49161964  0.25651649  1
  O  O247  1  0.37868750  0.50171395  0.76428035  1
  O  O248  1  0.86586551  0.01386987  0.24119040  1
  O  O249  1  0.85840048  -0.00378331  0.75039361  1
  O  O250  1  0.83274662  0.48558043  0.16472514  1
  O  O251  1  0.82587908  0.45700322  0.73409256  1
  O  O252  1  0.12936744  0.37283416  0.36145827  1
  O  O253  1  0.11547689  0.37547264  0.86172574  1
  O  O254  1  0.12027927  0.88239478  0.36322062  1
  O  O255  1  0.14011558  0.87177945  0.85830367  1
  O  O256  1  0.61386665  0.38317804  0.38972949  1
  O  O257  1  0.61392285  0.35374841  0.87922108  1
  O  O258  1  0.62632539  0.88601570  0.35640910  1
  O  O259  1  0.60751693  0.86909363  0.87417409  1
  O  O260  1  0.37413025  0.12921719  0.13416808  1
  O  O261  1  0.38777560  0.12053678  0.62239123  1
  O  O262  1  0.42675075  0.58436695  0.09015432  1
  O  O263  1  0.39314382  0.60286028  0.64701903  1
  O  O264  1  0.87313456  0.13171536  0.13614794  1
  O  O265  1  0.89079924  0.11027213  0.64224303  1
  O  O266  1  0.89293965  0.64483783  0.11637649  1
  O  O267  1  0.86685900  0.65502435  0.62911843  1
  O  O268  1  0.25872163  0.25807991  0.13078995  1
  O  O269  1  0.23930639  0.25773116  0.61211628  1
  O  O270  1  0.24081015  0.76895700  0.12628370  1
  O  O271  1  0.27102064  0.72963712  0.58989145  1
  O  O272  1  0.73254255  0.23727205  0.10849202  1
  O  O273  1  0.75008636  0.23813991  0.62601999  1
  O  O274  1  0.76326416  0.76126894  0.11673843  1
  O  O275  1  0.69015605  0.69873761  0.58588470  1
  O  O276  1  0.25176604  0.24076296  0.38581960  1
  O  O277  1  0.25264301  0.23893389  0.87479568  1
  O  O278  1  0.23833556  0.76138521  0.38471495  1
  O  O279  1  0.27113725  0.75467985  0.90078080  1
  O  O280  1  0.74031023  0.23438999  0.37903937  1
  O  O281  1  0.73763620  0.23992632  0.86731697  1
  O  O282  1  0.73172943  0.75409225  0.38525432  1
  O  O283  1  0.73480335  0.76829896  0.89446284  1
  O  O284  1  0.00876386  0.12567925  0.01307369  1
  O  O285  1  -0.00274516  0.13008686  0.51359099  1
  O  O286  1  0.01210024  0.61339416  -0.02559011  1
  O  O287  1  -0.01087957  0.61536012  0.50003187  1
  O  O288  1  0.49407308  0.11434336  0.01138821  1
  O  O289  1  0.50632248  0.13788840  0.51778957  1
  O  O290  1  0.46358634  0.63424511  0.03692961  1
  O  O291  1  0.48460635  0.64782826  0.51816146  1
  O  O292  1  0.48410264  0.36507754  0.49239635  1
  O  O293  1  0.49602753  0.37314050  0.98216893  1
  O  O294  1  0.45319314  0.87923369  0.55089832  1
  O  O295  1  0.50061839  0.88750499  0.99964659  1
  O  O296  1  0.98891517  0.34822438  0.48961937  1
  O  O297  1  1.00395575  0.38599465  0.98805983  1
  O  O298  1  1.01063242  0.87735740  0.48141289  1
  O  O299  1  1.01434412  0.88859912  0.99917868  1
  O  O300  1  0.49095055  0.48819713  0.38189905  1
  O  O301  1  0.51877873  0.48305955  0.86415359  1
  O  O302  1  0.48645126  1.00399735  0.37402388  1
  O  O303  1  0.49075358  0.99685770  0.88448277  1
  O  O304  1  1.00572702  0.50145633  0.38787016  1
  O  O305  1  1.00219331  0.48515395  0.88141959  1
  O  O306  1  0.99540486  0.99163721  0.37228601  1
  O  O307  1  1.00094866  1.01631706  0.89689123  1
  O  O308  1  0.01495820  -0.00080647  0.11666896  1
  O  O309  1  0.01353595  0.01241562  0.63123514  1
  O  O310  1  0.00487438  0.51969703  0.10507894  1
  O  O311  1  0.00434936  0.50600555  0.62947215  1
  O  O312  1  0.50493650  0.00972094  0.12269439  1
  O  O313  1  0.50725323  0.01587805  0.63928931  1
  O  O314  1  0.47361985  0.51831237  0.10575414  1
  O  O315  1  0.51446427  0.47169075  0.62394921  1
  O  O316  1  0.23608190  0.37613637  0.23968948  1
  O  O317  1  0.23667912  0.36001118  0.73933694  1
  O  O318  1  0.22993751  0.88135795  0.24391008  1
  O  O319  1  0.25332543  0.89195088  0.74420183  1
  O  O320  1  0.72992930  0.37762567  0.25597296  1
  O  O321  1  0.77625751  0.39963151  0.74420786  1
  O  O322  1  0.74788684  0.88864808  0.24269214  1
  O  O323  1  0.73483201  0.88151082  0.76106557  1
  O  O324  1  0.26188436  0.13800468  0.26400195  1
  O  O325  1  0.23807081  0.11832125  0.76785907  1
  O  O326  1  0.23626593  0.60349026  0.24339682  1
  O  O327  1  0.26945999  0.62973046  0.74284690  1
  O  O328  1  0.75657869  0.12276408  0.25903988  1
  O  O329  1  0.75556351  0.11106500  0.75775644  1
  O  O330  1  0.73083720  0.59640369  0.16595430  1
  O  O331  1  0.74646108  0.66206569  0.77318921  1
  O  O332  1  0.37707764  0.12706718  0.36477133  1
  O  O333  1  0.35890700  0.11729394  0.88458360  1
  O  O334  1  0.33808673  0.61955033  0.40132783  1
  O  O335  1  0.37528312  0.60176291  0.86863475  1
  O  O336  1  0.86398844  0.12837142  0.36545364  1
  O  O337  1  0.85856566  0.12180850  0.86518074  1
  O  O338  1  0.85493700  0.61981655  0.36170042  1
  O  O339  1  0.86162147  0.65050036  0.87891716  1
  O  O340  1  0.12954969  0.38432199  0.12531029  1
  O  O341  1  0.12151108  0.37238418  0.63847031  1
  O  O342  1  0.12564769  0.88278660  0.13890456  1
  O  O343  1  0.12360416  0.89478326  0.63289231  1
  O  O344  1  0.60959249  0.37174182  0.13446644  1
  O  O345  1  0.57903058  0.42330020  0.60917438  1
  O  O346  1  0.63728507  0.88526524  0.13455642  1
  O  O347  1  0.61089138  0.88422144  0.64523890  1
  O  O348  1  0.11156382  0.25890702  0.24559359  1
  O  O349  1  0.11209397  0.25789033  0.74948532  1
  O  O350  1  0.13081567  0.75791065  0.26561266  1
  O  O351  1  0.14564204  0.76913323  0.73221948  1
  O  O352  1  0.61558572  0.26803576  0.26107420  1
  O  O353  1  0.61889147  0.24877966  0.75851578  1
  O  O354  1  0.64166840  0.77050010  0.25375112  1
  O  O355  1  0.60513788  0.75944780  0.77222978  1
  O  O356  1  0.37723948  0.24457839  0.23977963  1
  O  O357  1  0.38326139  0.24550488  0.75421649  1
  O  O358  1  0.36655705  0.73888609  0.25038443  1
  O  O359  1  0.38720719  0.73282777  0.76263703  1
  O  O360  1  0.88362539  0.24835380  0.25497281  1
  O  O361  1  0.88356524  0.23531981  0.75271717  1
  O  O362  1  0.86462051  0.74629662  0.23955584  1
  O  O363  1  0.87763270  0.77471106  0.72465126  1
  O  O364  1  0.37104211  0.47866248  0.49873980  1
  O  O365  1  0.37016874  0.48581936  0.98154267  1
  O  O366  1  0.37447290  1.00337992  0.48752436  1
  O  O367  1  0.38138529  1.00204807  0.99414083  1
  O  O368  1  0.90056484  0.47835428  0.50489561  1
  O  O369  1  0.88537311  0.51395175  0.99886536  1
  O  O370  1  0.86701920  1.00453856  0.49175917  1
  O  O371  1  0.89372962  0.99784950  1.01180579  1
  O  O372  1  0.11486096  0.01529450  0.00953324  1
  O  O373  1  0.13585340  0.00185639  0.51579980  1
  O  O374  1  0.12064651  0.50624654  0.00885495  1
  O  O375  1  0.10196547  0.48289036  0.51635810  1
  O  O376  1  0.61489908  -0.00244912  0.01425216  1
  O  O377  1  0.62611966  0.01004315  0.51457859  1
  O  O378  1  0.71976127  0.42295213  0.01014990  1
  O  O379  1  0.68050723  0.52017209  0.50815289  1
  O  O380  1  0.37094416  0.36919520  0.11905215  1
  O  O381  1  0.35709597  0.37629538  0.62057195  1
  O  O382  1  0.35491415  0.88484098  0.12994337  1
  O  O383  1  0.40194649  0.88015191  0.60530137  1
  O  O384  1  0.86755873  0.40903368  0.15722600  1
  O  O385  1  0.87586013  0.36491687  0.60427347  1
  O  O386  1  0.87173219  0.86675804  0.13653985  1
  O  O387  1  0.89672314  0.86986066  0.60948609  1
  O  O388  1  0.13757301  0.12280440  0.36863416  1
  O  O389  1  0.13572292  0.12402760  0.89162044  1
  O  O390  1  0.12822502  0.63457218  0.37572489  1
  O  O391  1  0.14522111  0.61361102  0.88690475  1
  O  O392  1  0.62760216  0.12371562  0.38779942  1
  O  O393  1  0.63266392  0.13348046  0.87280974  1
  O  O394  1  0.62565093  0.63716605  0.35751352  1
  O  O395  1  0.63379408  0.64628804  0.88613716  1
