# generated using pymatgen
data_V35Zn35O128
_symmetry_space_group_name_H-M   'P 1'
_cell_length_a   16.85069945
_cell_length_b   16.89506387
_cell_length_c   16.86757682
_cell_angle_alpha   89.94119536
_cell_angle_beta   89.90952832
_cell_angle_gamma   90.07862919
_symmetry_Int_Tables_number   1
_chemical_formula_structural   V35Zn35O128
_chemical_formula_sum   'V70 Zn70 O256'
_cell_volume   4802.07885435
_cell_formula_units_Z   2
loop_
 _symmetry_equiv_pos_site_id
 _symmetry_equiv_pos_as_xyz
  1  'x, y, z'
loop_
 _atom_site_type_symbol
 _atom_site_label
 _atom_site_symmetry_multiplicity
 _atom_site_fract_x
 _atom_site_fract_y
 _atom_site_fract_z
 _atom_site_occupancy
  V  V0  1  0.25028380  0.49001520  0.25275481  1
  V  V1  1  0.73707761  0.12749952  0.37337705  1
  V  V2  1  0.50471400  0.50863547  0.50945276  1
  V  V3  1  0.00476741  0.50451691  -0.00309533  1
  V  V4  1  0.62466495  0.00516387  0.12216784  1
  V  V5  1  0.48965564  0.24906850  0.73844982  1
  V  V6  1  0.50663254  0.75469035  0.78252624  1
  V  V7  1  0.75550133  0.25079782  0.50716163  1
  V  V8  1  0.36686068  0.36952309  0.50272187  1
  V  V9  1  0.75124148  -0.00199751  0.24490737  1
  V  V10  1  0.37971070  0.50292780  0.37121411  1
  V  V11  1  0.50561418  0.36194492  0.37686515  1
  V  V12  1  0.00344987  -0.00699747  0.50221050  1
  V  V13  1  0.00056006  0.26763098  0.24910177  1
  V  V14  1  0.88289581  0.12318335  0.24552778  1
  V  V15  1  0.63230309  0.37983018  0.24841624  1
  V  V16  1  0.62817380  0.48979820  0.64456527  1
  V  V17  1  -0.00281630  0.86927001  0.36801019  1
  V  V18  1  0.11179602  0.85778523  0.74156636  1
  V  V19  1  0.25365137  0.62684600  0.36978552  1
  V  V20  1  0.36705762  0.23884331  0.62531484  1
  V  V21  1  0.00416809  0.64161374  0.14062909  1
  V  V22  1  0.62341958  0.75107463  0.37966588  1
  V  V23  1  0.37408275  0.23198300  0.11967296  1
  V  V24  1  0.48235453  0.60597481  0.13363194  1
  V  V25  1  0.76488874  0.86373326  0.11931413  1
  V  V26  1  0.88040476  0.65887082  0.26041103  1
  V  V27  1  0.87326447  -0.00267375  0.37907217  1
  V  V28  1  0.87610943  0.50817403  0.85413335  1
  V  V29  1  0.62381070  0.25834825  0.85991270  1
  V  V30  1  0.13006494  0.12763883  0.50450523  1
  V  V31  1  0.25704899  0.86345319  0.10664454  1
  V  V32  1  0.63525686  0.61030431  0.02157261  1
  V  V33  1  -0.02084607  0.12986266  0.62137478  1
  V  V34  1  0.12050424  0.61356995  0.50226585  1
  V  V35  1  0.37522539  0.49798786  0.88026652  1
  V  V36  1  0.76870012  0.73734024  0.00114961  1
  V  V37  1  0.25778722  0.37183521  0.11171386  1
  V  V38  1  0.12414281  0.25631440  0.37018445  1
  V  V39  1  0.11321307  0.48832532  0.14244931  1
  V  V40  1  0.24014054  0.38038845  0.63375005  1
  V  V41  1  0.74599996  0.61939249  0.85246889  1
  V  V42  1  0.48899834  -0.02009591  0.50257908  1
  V  V43  1  0.90215590  0.41788104  0.49331226  1
  V  V44  1  0.87386146  0.24918384  0.12698986  1
  V  V45  1  -0.03279820  0.64455669  0.65969570  1
  V  V46  1  0.25979926  0.87208465  0.62330342  1
  V  V47  1  0.22436541  0.01384690  0.74103060  1
  V  V48  1  0.62647193  -0.01410905  0.63540422  1
  V  V49  1  0.13132249  0.26472142  0.85348621  1
  V  V50  1  0.75525651  0.61859940  0.38179792  1
  V  V51  1  0.75856965  0.76740757  0.50665970  1
  V  V52  1  0.49535237  -0.00928132  -0.00713588  1
  V  V53  1  0.61077813  0.12652885  0.50656294  1
  V  V54  1  0.00265508  0.87617119  0.88974559  1
  V  V55  1  0.24433398  0.51532424  0.74805698  1
  V  V56  1  0.87446166  0.38549874  -0.00933494  1
  V  V57  1  0.24693475  0.64388952  0.89778731  1
  V  V58  1  0.88227332  0.01063640  0.86557048  1
  V  V59  1  0.49785825  0.23474415  0.24635780  1
  V  V60  1  0.61838598  0.86536265  0.24115178  1
  V  V61  1  0.12710635  0.75040960  0.36916785  1
  V  V62  1  0.48611576  0.63582410  0.64020638  1
  V  V63  1  0.13471404  0.89025277  0.24739969  1
  V  V64  1  0.61843318  0.12895084  -0.00352519  1
  V  V65  1  0.12549779  0.00964457  0.09624711  1
  V  V66  1  0.25191538  0.12109102  0.35200484  1
  V  V67  1  0.37109893  0.00617049  0.85572390  1
  V  V68  1  0.37341339  -0.01130958  0.36491140  1
  V  V69  1  0.74866744  0.24703644  -0.00281784  1
  Zn  Zn70  1  0.48346697  0.74793487  0.23564426  1
  Zn  Zn71  1  0.49483461  0.48752834  0.00955842  1
  Zn  Zn72  1  0.74483958  0.39190132  0.12554858  1
  Zn  Zn73  1  0.25911907  0.75549170  0.50358662  1
  Zn  Zn74  1  0.49278499  0.37288416  0.87968700  1
  Zn  Zn75  1  0.23639283  0.13096584  0.90112665  1
  Zn  Zn76  1  0.18314272  0.18816056  0.17820927  1
  Zn  Zn77  1  0.17523975  0.19823929  0.68472122  1
  Zn  Zn78  1  0.18844799  0.68330289  0.18861562  1
  Zn  Zn79  1  0.18961181  0.69120832  0.68706749  1
  Zn  Zn80  1  0.68433069  0.19570747  0.18638321  1
  Zn  Zn81  1  0.68220811  0.19115250  0.67597952  1
  Zn  Zn82  1  0.69685925  0.67965279  0.19107952  1
  Zn  Zn83  1  0.66579960  0.68641062  0.67563125  1
  Zn  Zn84  1  0.31258880  0.30744403  0.30932265  1
  Zn  Zn85  1  0.31055098  0.31717189  0.81445031  1
  Zn  Zn86  1  0.30978265  0.81553448  0.29644768  1
  Zn  Zn87  1  0.31144095  0.82385011  0.81129237  1
  Zn  Zn88  1  0.81607692  0.31756523  0.33048752  1
  Zn  Zn89  1  0.88350787  0.30179889  0.65215370  1
  Zn  Zn90  1  0.80591156  0.81727757  0.32002825  1
  Zn  Zn91  1  0.85969246  0.78519906  0.85101617  1
  Zn  Zn92  1  0.18602217  0.43513938  0.43886223  1
  Zn  Zn93  1  0.18589849  0.44564183  0.93263365  1
  Zn  Zn94  1  0.18903522  0.94085163  0.43804841  1
  Zn  Zn95  1  0.19121563  0.93190499  0.92477326  1
  Zn  Zn96  1  0.68679695  0.43911729  0.44058369  1
  Zn  Zn97  1  0.69450299  0.43687726  0.92648226  1
  Zn  Zn98  1  0.67545831  0.93730454  0.43614416  1
  Zn  Zn99  1  0.71166050  0.94583972  0.94998873  1
  Zn  Zn100  1  0.30860750  0.05250922  0.07065080  1
  Zn  Zn101  1  0.30897190  0.05329210  0.56225570  1
  Zn  Zn102  1  0.30364827  0.55969092  0.06156567  1
  Zn  Zn103  1  0.31117305  0.56391967  0.55835088  1
  Zn  Zn104  1  0.81538999  0.06076009  0.05181448  1
  Zn  Zn105  1  0.80282373  0.05166986  0.55996175  1
  Zn  Zn106  1  0.82128243  0.56288469  0.08400994  1
  Zn  Zn107  1  0.80911947  0.57162982  0.57194235  1
  Zn  Zn108  1  0.43757925  0.42536503  0.19150473  1
  Zn  Zn109  1  0.43310092  0.43424751  0.69760015  1
  Zn  Zn110  1  0.43505184  0.93891273  0.17685450  1
  Zn  Zn111  1  0.44510618  0.93506968  0.68907274  1
  Zn  Zn112  1  0.91063758  0.44408401  0.18997582  1
  Zn  Zn113  1  0.99385281  0.45130929  0.64452603  1
  Zn  Zn114  1  0.94839866  0.93702834  0.18155227  1
  Zn  Zn115  1  0.95776435  0.97681890  0.71457347  1
  Zn  Zn116  1  0.06367217  0.06459056  0.31645808  1
  Zn  Zn117  1  0.05934248  0.07616416  0.81816569  1
  Zn  Zn118  1  0.06373148  0.56656833  0.31487595  1
  Zn  Zn119  1  0.06932788  0.57972029  0.80826169  1
  Zn  Zn120  1  0.55584022  0.05124933  0.31412364  1
  Zn  Zn121  1  0.55895969  0.07026546  0.81188744  1
  Zn  Zn122  1  0.56771654  0.56604895  0.31194024  1
  Zn  Zn123  1  0.56060004  0.56919474  0.81348564  1
  Zn  Zn124  1  0.42776005  0.18345034  0.43687636  1
  Zn  Zn125  1  0.43486956  0.18085584  0.93534733  1
  Zn  Zn126  1  0.41544415  0.73250617  0.40024800  1
  Zn  Zn127  1  0.43640430  0.66857542  0.95048841  1
  Zn  Zn128  1  0.93862111  0.18403712  0.43201696  1
  Zn  Zn129  1  0.93476875  0.19847361  0.92793208  1
  Zn  Zn130  1  0.93321013  0.69113779  0.45683948  1
  Zn  Zn131  1  0.98087805  0.70448522  0.96321271  1
  Zn  Zn132  1  0.05456066  0.31877092  0.06860279  1
  Zn  Zn133  1  0.05404063  0.30868040  0.56270268  1
  Zn  Zn134  1  0.08969942  0.81026610  0.05722462  1
  Zn  Zn135  1  0.06935504  0.80379533  0.56171282  1
  Zn  Zn136  1  0.55828582  0.31602238  0.06928173  1
  Zn  Zn137  1  0.56641688  0.31504297  0.56062136  1
  Zn  Zn138  1  0.55761822  0.78859623  -0.01777141  1
  Zn  Zn139  1  0.55819824  0.80936823  0.56438196  1
  O  O140  1  0.13872102  0.11277864  0.10782468  1
  O  O141  1  0.10866317  0.13862025  0.60601828  1
  O  O142  1  0.10968299  0.60697614  0.14170069  1
  O  O143  1  0.14186536  0.63520360  0.59887341  1
  O  O144  1  0.63474824  0.11381317  0.11610398  1
  O  O145  1  0.62367410  0.11388103  0.61014281  1
  O  O146  1  0.63381894  0.61198658  0.12426863  1
  O  O147  1  0.59370004  0.60507133  0.63261102  1
  O  O148  1  0.37781410  0.37753853  0.38598004  1
  O  O149  1  0.36979423  0.39005226  0.87869528  1
  O  O150  1  0.35703180  0.89109479  0.37787220  1
  O  O151  1  0.36008240  0.90808475  0.87933909  1
  O  O152  1  0.87950063  0.37427537  0.40177631  1
  O  O153  1  0.87546949  0.39070170  0.88984323  1
  O  O154  1  0.88924048  0.88398315  0.36721106  1
  O  O155  1  0.89054566  0.89426689  0.88041523  1
  O  O156  1  0.25871717  0.01364109  0.37858413  1
  O  O157  1  0.24955348  0.00842698  0.85275463  1
  O  O158  1  0.26060048  0.49991932  0.37043949  1
  O  O159  1  0.25607475  0.51271221  0.86813196  1
  O  O160  1  0.75464795  0.00135551  0.36393385  1
  O  O161  1  0.80622712  0.00778867  0.94520122  1
  O  O162  1  0.74581201  0.51908312  0.38346196  1
  O  O163  1  0.76361244  0.50575635  0.86165508  1
  O  O164  1  0.23633164  0.49227942  0.13307668  1
  O  O165  1  0.25550325  0.49007903  0.63401288  1
  O  O166  1  0.23302467  0.97856172  0.11805099  1
  O  O167  1  0.24775206  0.99160777  0.63683812  1
  O  O168  1  0.80472660  0.48160426  0.16046397  1
  O  O169  1  0.72417880  0.51506649  0.62275938  1
  O  O170  1  0.74805191  0.99416372  0.12855436  1
  O  O171  1  0.72722360  0.99459897  0.61767326  1
  O  O172  1  -0.01140588  0.36524007  0.24924486  1
  O  O173  1  -0.02460809  0.35788767  0.69522647  1
  O  O174  1  0.01173821  0.87904096  0.26358759  1
  O  O175  1  0.00797735  0.87815409  0.74418856  1
  O  O176  1  0.50657325  0.36900604  0.26500037  1
  O  O177  1  0.49233380  0.35633008  0.76201956  1
  O  O178  1  0.51587833  0.86676732  0.23008225  1
  O  O179  1  0.49230724  0.85951105  0.76196538  1
  O  O180  1  0.50299620  0.13591754  0.25667696  1
  O  O181  1  0.49883761  0.14938120  0.75418628  1
  O  O182  1  0.51080896  0.62841494  0.23253587  1
  O  O183  1  0.49113435  0.64289768  0.75037493  1
  O  O184  1  0.98462176  0.12220644  0.25369658  1
  O  O185  1  0.99758926  0.10128010  0.71953172  1
  O  O186  1  0.99355947  0.63521798  0.25277816  1
  O  O187  1  0.99231804  0.64516764  0.75994957  1
  O  O188  1  0.38530252  0.24320907  0.01982196  1
  O  O189  1  0.37875332  0.26180075  0.51045510  1
  O  O190  1  0.45960511  0.75216342  0.04561848  1
  O  O191  1  0.36968879  0.73724848  0.49765658  1
  O  O192  1  0.86500945  0.25735663  0.00109034  1
  O  O193  1  0.85401238  0.23548695  0.48634879  1
  O  O194  1  0.86859283  0.73809572  0.00468902  1
  O  O195  1  0.86036301  0.76078159  0.50482082  1
  O  O196  1  0.11018541  0.23586694  0.48042630  1
  O  O197  1  0.08196839  0.25007808  0.97793031  1
  O  O198  1  0.13810220  0.74745287  0.48204120  1
  O  O199  1  0.09032310  0.72550462  0.98749141  1
  O  O200  1  0.63161573  0.23133577  0.50638602  1
  O  O201  1  0.63118059  0.24087336  1.00873287  1
  O  O202  1  0.62538182  0.75805973  0.48101959  1
  O  O203  1  0.64625619  0.72181345  1.00342928  1
  O  O204  1  0.48821295  0.25071560  0.13714501  1
  O  O205  1  0.48744605  0.25694211  0.63165372  1
  O  O206  1  0.49790037  0.72161901  0.11399671  1
  O  O207  1  0.49459899  0.73414719  0.61950458  1
  O  O208  1  0.99247655  0.24820448  0.14024513  1
  O  O209  1  0.97849327  0.23308505  0.60975636  1
  O  O210  1  1.01284842  0.73823930  0.12764595  1
  O  O211  1  0.99832223  0.73151893  0.61176125  1
  O  O212  1  0.00915453  0.24204260  0.35920352  1
  O  O213  1  0.02641485  0.26625999  0.91507792  1
  O  O214  1  0.00645776  0.76761210  0.38321881  1
  O  O215  1  -0.02651952  0.77155901  0.86979798  1
  O  O216  1  0.48846364  0.25830461  0.36663316  1
  O  O217  1  0.51376579  0.24758855  0.87350837  1
  O  O218  1  0.52411473  0.74013522  0.36211732  1
  O  O219  1  0.50733582  0.73906133  0.88619159  1
  O  O220  1  0.23138358  0.12143434  0.50289822  1
  O  O221  1  0.24266882  0.12594468  1.01517294  1
  O  O222  1  0.24520551  0.62040517  0.48089957  1
  O  O223  1  0.24924199  0.63706470  0.99990794  1
  O  O224  1  0.73876509  0.12380887  0.48574604  1
  O  O225  1  0.74393551  0.14375989  1.00643482  1
  O  O226  1  0.75560506  0.64139584  0.48374600  1
  O  O227  1  0.75399420  0.62821465  1.01705731  1
  O  O228  1  0.24262476  0.38096673  0.01422804  1
  O  O229  1  0.26324223  0.37979451  0.50690129  1
  O  O230  1  0.23750005  0.86406773  0.00607423  1
  O  O231  1  0.24108497  0.88072982  0.51860502  1
  O  O232  1  0.76088480  0.37077751  0.00431989  1
  O  O233  1  0.73365420  0.34513822  0.47892163  1
  O  O234  1  0.74617671  0.85262420  0.01108164  1
  O  O235  1  0.74488997  0.86812785  0.49237437  1
  O  O236  1  0.12907116  0.49294609  0.24793927  1
  O  O237  1  0.14264586  0.50407920  0.75594103  1
  O  O238  1  0.12628112  0.99055916  0.25497893  1
  O  O239  1  0.12433170  0.99872766  0.74762813  1
  O  O240  1  0.62434350  0.47883977  0.26499655  1
  O  O241  1  0.61607623  0.49422076  0.74604777  1
  O  O242  1  0.63140321  0.99151499  0.24290402  1
  O  O243  1  0.61208182  1.00825368  0.73449596  1
  O  O244  1  0.38825089  -0.00302939  0.26484645  1
  O  O245  1  0.37786970  0.00995824  0.75475095  1
  O  O246  1  0.37041357  0.48995619  0.26670323  1
  O  O247  1  0.36069226  0.49598191  0.76456769  1
  O  O248  1  0.86751563  0.00463193  0.25238875  1
  O  O249  1  0.85616488  -0.00037850  0.76811696  1
  O  O250  1  0.91068407  0.50176047  0.30046818  1
  O  O251  1  0.89578542  0.49462174  0.76103775  1
  O  O252  1  0.13153115  0.35515229  0.37831096  1
  O  O253  1  0.13482254  0.36563357  0.87237751  1
  O  O254  1  0.12074013  0.87304137  0.36598218  1
  O  O255  1  0.10942451  0.87924814  0.85789609  1
  O  O256  1  0.60737789  0.36993346  0.37564924  1
  O  O257  1  0.62692694  0.35970376  0.87320398  1
  O  O258  1  0.63073578  0.86537617  0.35208141  1
  O  O259  1  0.66328622  0.89533258  0.84822413  1
  O  O260  1  0.36757333  0.13375157  0.13307494  1
  O  O261  1  0.36679442  0.14145305  0.61370389  1
  O  O262  1  0.38276149  0.61335742  0.12849961  1
  O  O263  1  0.38826203  0.61009116  0.62686854  1
  O  O264  1  0.86183286  0.13594416  0.13520304  1
  O  O265  1  0.87973984  0.11424034  0.61418827  1
  O  O266  1  0.89179487  0.62697318  0.15299212  1
  O  O267  1  0.86540895  0.63738097  0.64605698  1
  O  O268  1  0.26067480  0.26372112  0.13328917  1
  O  O269  1  0.26176361  0.26335822  0.63146356  1
  O  O270  1  0.23919463  0.76420101  0.13109561  1
  O  O271  1  0.25165544  0.76737500  0.62745282  1
  O  O272  1  0.75603494  0.25939926  0.11746172  1
  O  O273  1  0.75854418  0.24690064  0.61107600  1
  O  O274  1  0.75819062  0.75879464  0.12341983  1
  O  O275  1  0.72687359  0.74625692  0.60152358  1
  O  O276  1  0.23512915  0.23646454  0.36262256  1
  O  O277  1  0.23746346  0.24526374  0.86096463  1
  O  O278  1  0.24402135  0.73847749  0.36861684  1
  O  O279  1  0.26120829  0.74108323  0.87238573  1
  O  O280  1  0.74639145  0.22736116  0.37016525  1
  O  O281  1  0.73279822  0.25404059  0.89479057  1
  O  O282  1  0.74230480  0.74898920  0.38378566  1
  O  O283  1  0.76375856  0.73054773  0.88955623  1
  O  O284  1  -0.01290052  0.11556991  0.01548869  1
  O  O285  1  0.00183634  0.11245095  0.50150327  1
  O  O286  1  -0.01646721  0.60570839  0.03144509  1
  O  O287  1  0.02213545  0.62957958  0.47960846  1
  O  O288  1  0.51595250  0.11632905  0.00329848  1
  O  O289  1  0.50996018  0.12740502  0.49303890  1
  O  O290  1  0.51898349  0.60647149  0.01721982  1
  O  O291  1  0.49391395  0.60638715  0.50756763  1
  O  O292  1  0.49039285  0.37515903  0.48839599  1
  O  O293  1  0.51419990  0.38051515  0.99140218  1
  O  O294  1  0.49512172  0.88102374  0.49562968  1
  O  O295  1  0.52699571  0.89664086  0.97926802  1
  O  O296  1  1.00280678  0.40241921  0.52096576  1
  O  O297  1  0.98517667  0.39362573  1.00830872  1
  O  O298  1  1.01301765  0.88811321  0.48515406  1
  O  O299  1  1.01364450  0.87534520  0.98864387  1
  O  O300  1  0.49069289  0.49156100  0.38158960  1
  O  O301  1  0.48346223  0.50538543  0.87436964  1
  O  O302  1  0.48473515  1.00142156  0.38752592  1
  O  O303  1  0.48327631  1.01801606  0.88477995  1
  O  O304  1  0.97124483  0.49554276  0.34699280  1
  O  O305  1  0.99150562  0.51735819  0.89414758  1
  O  O306  1  0.99150765  0.99396343  0.38031016  1
  O  O307  1  0.99245991  0.99169659  0.86670240  1
  O  O308  1  0.02645986  -0.00276135  0.12848343  1
  O  O309  1  -0.01097753  -0.00216782  0.60284456  1
  O  O310  1  0.00817160  0.49288886  0.13383581  1
  O  O311  1  0.00721259  0.55618007  0.62467094  1
  O  O312  1  0.51837789  -0.00866848  0.11067144  1
  O  O313  1  0.50292060  -0.00244534  0.60806204  1
  O  O314  1  0.49709953  0.50177247  0.13031512  1
  O  O315  1  0.49924613  0.49256206  0.61715645  1
  O  O316  1  0.25204962  0.38576326  0.24436892  1
  O  O317  1  0.25043153  0.38298227  0.73636921  1
  O  O318  1  0.23691933  0.88108383  0.24571272  1
  O  O319  1  0.23357685  0.88498242  0.74267560  1
  O  O320  1  0.73255352  0.35907635  0.26363180  1
  O  O321  1  0.84007875  0.25207434  0.75402381  1
  O  O322  1  0.74889276  0.88367257  0.23985738  1
  O  O323  1  0.71100962  0.87255852  0.79569102  1
  O  O324  1  0.24384169  0.11877284  0.25374844  1
  O  O325  1  0.23536124  0.11390502  0.73393628  1
  O  O326  1  0.24555580  0.60627889  0.25992880  1
  O  O327  1  0.25433510  0.61616338  0.74510265  1
  O  O328  1  0.74985585  0.11440437  0.25659654  1
  O  O329  1  0.76017830  0.14329869  0.75482350  1
  O  O330  1  0.77422336  0.63285673  0.26138713  1
  O  O331  1  0.73793258  0.63604044  0.75638663  1
  O  O332  1  0.35533559  0.12446576  0.37398701  1
  O  O333  1  0.35472786  0.10924838  0.89653449  1
  O  O334  1  0.37063661  0.60410641  0.37966707  1
  O  O335  1  0.36124641  0.61546190  0.88360888  1
  O  O336  1  0.86218125  0.11347366  0.36387551  1
  O  O337  1  0.89938783  0.11329401  0.87051064  1
  O  O338  1  0.86964065  0.64120009  0.36869363  1
  O  O339  1  0.86088545  0.61186521  0.86915304  1
  O  O340  1  0.13202627  0.38370882  0.12740270  1
  O  O341  1  0.14332816  0.36580857  0.61308225  1
  O  O342  1  0.12719757  0.88010457  0.13795542  1
  O  O343  1  0.12762279  0.87247360  0.63611948  1
  O  O344  1  0.62849081  0.37569409  0.14237086  1
  O  O345  1  0.62247203  0.38835041  0.62390062  1
  O  O346  1  0.64539824  0.88613699  0.13428327  1
  O  O347  1  0.61344624  0.88558585  0.62827848  1
  O  O348  1  0.10979969  0.24562607  0.25392003  1
  O  O349  1  0.10816990  0.25769282  0.75436274  1
  O  O350  1  0.12707280  0.76002496  0.26375587  1
  O  O351  1  0.12129847  0.75878593  0.75054159  1
  O  O352  1  0.60565721  0.25802380  0.24647823  1
  O  O353  1  0.61881524  0.24835318  0.75606230  1
  O  O354  1  0.63317283  0.76189222  0.24416897  1
  O  O355  1  0.60333562  0.74969387  0.75042507  1
  O  O356  1  0.38843712  0.25681786  0.24025736  1
  O  O357  1  0.37900335  0.25177939  0.73698714  1
  O  O358  1  0.38569468  0.73885129  0.28886661  1
  O  O359  1  0.39920632  0.76980217  0.75861220  1
  O  O360  1  0.88245056  0.24402522  0.24796780  1
  O  O361  1  0.83274386  0.17294950  0.74835900  1
  O  O362  1  0.88042219  0.75738065  0.25239684  1
  O  O363  1  0.84285122  0.79257945  0.71601371  1
  O  O364  1  0.38297297  0.48558006  0.49166851  1
  O  O365  1  0.37224969  0.50158626  0.98814306  1
  O  O366  1  0.38520493  1.00548612  0.49253385  1
  O  O367  1  0.39747462  0.99478259  1.01571255  1
  O  O368  1  0.87828642  0.51748332  0.49714008  1
  O  O369  1  0.87702453  0.49182114  1.00277633  1
  O  O370  1  0.88236592  1.00115785  0.48479567  1
  O  O371  1  0.94679222  1.05290438  1.02083786  1
  O  O372  1  0.12448071  -0.00297747  -0.00354505  1
  O  O373  1  0.11053395  0.01501577  0.49017277  1
  O  O374  1  0.10786590  0.49786216  0.01359598  1
  O  O375  1  0.12767677  0.51270270  0.49203472  1
  O  O376  1  0.62982639  0.01452224  0.00079920  1
  O  O377  1  0.60738250  0.00596684  0.50034995  1
  O  O378  1  0.64613120  0.50939833  0.00210191  1
  O  O379  1  0.60652348  0.49461735  0.50131664  1
  O  O380  1  0.36045460  0.37815918  0.12151606  1
  O  O381  1  0.36818667  0.37097569  0.61347851  1
  O  O382  1  0.35695577  0.87506050  0.12619692  1
  O  O383  1  0.35925274  0.88274587  0.63159111  1
  O  O384  1  0.87926173  0.35563702  0.11412093  1
  O  O385  1  0.85340036  0.38111713  0.57527726  1
  O  O386  1  0.86310997  0.88586451  0.12417405  1
  O  O387  1  0.82729512  0.85533510  0.68157790  1
  O  O388  1  0.13588991  0.12900917  0.37977464  1
  O  O389  1  0.12309364  0.14799114  0.87279305  1
  O  O390  1  0.13548414  0.63144289  0.37558909  1
  O  O391  1  0.14725767  0.62408877  0.87705989  1
  O  O392  1  0.63345810  0.11208673  0.38070217  1
  O  O393  1  0.62674409  0.13717489  0.89021151  1
  O  O394  1  0.64505895  0.64115301  0.35892146  1
  O  O395  1  0.64623701  0.61310167  0.88664293  1
