# generated using pymatgen
data_V35Zn35O128
_symmetry_space_group_name_H-M   'P 1'
_cell_length_a   16.84962544
_cell_length_b   16.83765660
_cell_length_c   16.84879171
_cell_angle_alpha   89.93163249
_cell_angle_beta   90.08172580
_cell_angle_gamma   89.93807144
_symmetry_Int_Tables_number   1
_chemical_formula_structural   V35Zn35O128
_chemical_formula_sum   'V70 Zn70 O256'
_cell_volume   4780.12941833
_cell_formula_units_Z   2
loop_
 _symmetry_equiv_pos_site_id
 _symmetry_equiv_pos_as_xyz
  1  'x, y, z'
loop_
 _atom_site_type_symbol
 _atom_site_label
 _atom_site_symmetry_multiplicity
 _atom_site_fract_x
 _atom_site_fract_y
 _atom_site_fract_z
 _atom_site_occupancy
  V  V0  1  0.37113475  0.88390339  0.50070990  1
  V  V1  1  0.00555753  0.02300955  0.50479578  1
  V  V2  1  0.87302510  0.36535439  0.02326921  1
  V  V3  1  0.51321181  0.12104052  0.62371855  1
  V  V4  1  0.68072068  0.19106347  -0.04545099  1
  V  V5  1  0.12421526  0.61070581  0.50189436  1
  V  V6  1  0.51777532  0.25516715  0.74136648  1
  V  V7  1  0.50608513  0.25089662  0.26125170  1
  V  V8  1  0.36969034  0.25009201  0.11861474  1
  V  V9  1  0.75545182  0.62161305  0.37605702  1
  V  V10  1  0.23699629  0.12210689  0.89004256  1
  V  V11  1  0.12333106  0.75193548  0.37820625  1
  V  V12  1  0.13365353  0.36669473  0.25599860  1
  V  V13  1  0.23975058  0.87631112  0.13870405  1
  V  V14  1  0.86263338  0.86594880  0.00245906  1
  V  V15  1  0.35642458  0.12940184  0.25568864  1
  V  V16  1  0.50069655  0.87558645  0.85636114  1
  V  V17  1  0.75586206  0.76155516  0.50490142  1
  V  V18  1  -0.01100972  0.87227796  0.38952464  1
  V  V19  1  0.39505910  0.37865857  0.50123494  1
  V  V20  1  0.49489304  0.62608159  0.12818934  1
  V  V21  1  0.35815357  0.25403751  0.62866394  1
  V  V22  1  0.26332366  0.51826001  0.27056483  1
  V  V23  1  0.74930529  0.48514286  0.74402652  1
  V  V24  1  0.62439302  0.74957518  0.37630515  1
  V  V25  1  0.37919418  0.88410501  -0.00426439  1
  V  V26  1  0.37744493  0.50964843  0.86458018  1
  V  V27  1  0.61885688  0.48557619  0.62379340  1
  V  V28  1  0.01681655  0.27179896  0.76566086  1
  V  V29  1  0.12432163  0.90159898  0.75343786  1
  V  V30  1  0.85736753  0.75001218  0.12420952  1
  V  V31  1  0.48962448  0.74412636  0.25092979  1
  V  V32  1  0.00608820  0.75579666  0.24216834  1
  V  V33  1  0.37746360  0.11608166  0.76366869  1
  V  V34  1  0.63447226  0.88001271  0.24731882  1
  V  V35  1  0.24491718  0.74650024  0.50223557  1
  V  V36  1  0.87333371  0.62659184  0.74808727  1
  V  V37  1  0.74875701  0.63288051  0.87736730  1
  V  V38  1  0.88297489  0.62019496  0.24900632  1
  V  V39  1  0.87456973  0.15152052  0.71381326  1
  V  V40  1  0.01416298  0.75137225  0.75218840  1
  V  V41  1  0.87314566  0.76633499  0.62474254  1
  V  V42  1  0.86841173  0.01073441  0.36811290  1
  V  V43  1  0.23666167  0.63198578  0.86876866  1
  V  V44  1  0.74963846  -0.02391985  0.73363948  1
  V  V45  1  0.12031824  0.00498345  0.13849551  1
  V  V46  1  0.50616603  0.49602399  -0.00223797  1
  V  V47  1  0.63206718  -0.00472667  0.11696129  1
  V  V48  1  0.23557525  0.75248925  -0.00730273  1
  V  V49  1  0.49332399  0.87985378  0.37542441  1
  V  V50  1  0.86074897  0.00183147  0.88107418  1
  V  V51  1  0.15635055  0.40378937  0.74258135  1
  V  V52  1  0.75000727  0.48969369  0.25022253  1
  V  V53  1  0.62898461  0.48501557  0.12939074  1
  V  V54  1  0.37073080  0.36902066  -0.00164826  1
  V  V55  1  0.63145247  0.63638830  0.00348987  1
  V  V56  1  0.00558148  0.00437447  0.00268732  1
  V  V57  1  0.61940059  0.61721150  0.50812538  1
  V  V58  1  0.87405679  0.15076631  0.23988144  1
  V  V59  1  0.14432814  0.51195841  0.12532299  1
  V  V60  1  0.35456579  0.00592213  0.37162773  1
  V  V61  1  0.88058428  0.49391270  0.88037890  1
  V  V62  1  0.51788929  0.37417255  0.86531639  1
  V  V63  1  0.88004970  0.36410775  0.51252641  1
  V  V64  1  0.24175049  0.88814032  0.62980714  1
  V  V65  1  0.49461828  0.10622691  0.12285273  1
  V  V66  1  0.38385650  0.74833146  0.63116087  1
  V  V67  1  0.00917460  0.38548539  0.38917012  1
  V  V68  1  0.00358213  0.61254522  0.62344212  1
  V  V69  1  0.00248149  0.51499505  0.01669471  1
  Zn  Zn70  1  0.00796285  0.87090329  0.88361200  1
  Zn  Zn71  1  0.61386221  0.75074752  0.85610955  1
  Zn  Zn72  1  0.36595519  0.74735747  0.12675787  1
  Zn  Zn73  1  0.39390001  0.63738671  0.74944355  1
  Zn  Zn74  1  0.71675998  0.11530494  0.36309011  1
  Zn  Zn75  1  0.54083625  0.03923466  0.48031882  1
  Zn  Zn76  1  0.18442848  0.18846603  0.17386659  1
  Zn  Zn77  1  0.20876295  0.22038838  0.75046566  1
  Zn  Zn78  1  0.18852554  0.68563450  0.18760276  1
  Zn  Zn79  1  0.19586186  0.67981096  0.68446058  1
  Zn  Zn80  1  0.69407366  0.18580967  0.17480851  1
  Zn  Zn81  1  0.67043853  0.14040072  0.74908790  1
  Zn  Zn82  1  0.68302033  0.68354274  0.19177724  1
  Zn  Zn83  1  0.68720317  0.68362810  0.68654223  1
  Zn  Zn84  1  0.35438688  0.35778517  0.29718271  1
  Zn  Zn85  1  0.32608473  0.31301110  0.81812303  1
  Zn  Zn86  1  0.30744766  0.80805871  0.31648231  1
  Zn  Zn87  1  0.31108161  0.82047580  0.81337443  1
  Zn  Zn88  1  0.82763592  0.31671465  0.32905762  1
  Zn  Zn89  1  0.80731669  0.30201283  0.82614747  1
  Zn  Zn90  1  0.81562638  0.80943307  0.31265093  1
  Zn  Zn91  1  0.80937787  0.81798214  0.81078581  1
  Zn  Zn92  1  0.22500809  0.41088025  0.41321000  1
  Zn  Zn93  1  0.18904450  0.44152593  0.93479283  1
  Zn  Zn94  1  0.17724760  0.93613338  0.43780678  1
  Zn  Zn95  1  0.19456430  0.94548014  0.93465053  1
  Zn  Zn96  1  0.69871843  0.43922246  0.44309204  1
  Zn  Zn97  1  0.69875410  0.43636638  0.94141391  1
  Zn  Zn98  1  0.68199469  0.94740853  0.43132820  1
  Zn  Zn99  1  0.68157031  0.92311772  0.94140849  1
  Zn  Zn100  1  0.30345759  0.06356613  0.06228604  1
  Zn  Zn101  1  0.31292937  0.07225118  0.57169494  1
  Zn  Zn102  1  0.31457790  0.56635702  0.04991139  1
  Zn  Zn103  1  0.32485235  0.56585656  0.55178871  1
  Zn  Zn104  1  0.80986483  0.06300455  0.06384774  1
  Zn  Zn105  1  0.82003938  0.06188680  0.55674772  1
  Zn  Zn106  1  0.81193441  0.56227048  0.06706332  1
  Zn  Zn107  1  0.81496231  0.55751667  0.56087923  1
  Zn  Zn108  1  0.44122910  0.43719925  0.18227160  1
  Zn  Zn109  1  0.43694772  0.43700652  0.68357461  1
  Zn  Zn110  1  0.42456829  0.93128865  0.19107935  1
  Zn  Zn111  1  0.44269912  0.94099530  0.68272216  1
  Zn  Zn112  1  0.94777693  0.43410021  0.19785621  1
  Zn  Zn113  1  0.93388960  0.42857506  0.68855103  1
  Zn  Zn114  1  0.93531391  0.93459824  0.18630557  1
  Zn  Zn115  1  0.94853493  0.96797849  0.70051942  1
  Zn  Zn116  1  0.03803918  0.05707742  0.29912391  1
  Zn  Zn117  1  0.03787344  0.08630135  0.82275574  1
  Zn  Zn118  1  0.07192426  0.55944981  0.31570051  1
  Zn  Zn119  1  0.07659448  0.53226480  0.81574227  1
  Zn  Zn120  1  0.55201992  0.06183212  0.30691416  1
  Zn  Zn121  1  0.58696408  0.03776329  0.85246201  1
  Zn  Zn122  1  0.56601826  0.56216142  0.31263975  1
  Zn  Zn123  1  0.57081472  0.55935086  0.81025615  1
  Zn  Zn124  1  0.42790789  0.19553235  0.44274956  1
  Zn  Zn125  1  0.46953818  0.18810397  0.93862960  1
  Zn  Zn126  1  0.43966214  0.69165889  0.44765083  1
  Zn  Zn127  1  0.43451847  0.69888018  0.94456390  1
  Zn  Zn128  1  0.94064120  0.19570495  0.42693985  1
  Zn  Zn129  1  0.93398717  0.18635366  0.93878726  1
  Zn  Zn130  1  0.93925507  0.68235491  0.43891646  1
  Zn  Zn131  1  0.94132058  0.68775820  0.93650538  1
  Zn  Zn132  1  0.05828615  0.35404724  0.06499983  1
  Zn  Zn133  1  0.05528067  0.30628604  0.58470228  1
  Zn  Zn134  1  0.05916399  0.81570774  0.06205605  1
  Zn  Zn135  1  0.06087965  0.81332074  0.56884181  1
  Zn  Zn136  1  0.58154307  0.28184937  0.07876784  1
  Zn  Zn137  1  0.56800564  0.30289125  0.55265128  1
  Zn  Zn138  1  0.55985628  0.81433368  0.06477163  1
  Zn  Zn139  1  0.56427729  0.81479761  0.55945222  1
  O  O140  1  0.12779415  0.10525232  0.12420598  1
  O  O141  1  0.16926120  0.16688870  0.54577091  1
  O  O142  1  0.12632431  0.61128990  0.12407384  1
  O  O143  1  0.11199009  0.63079394  0.61722759  1
  O  O144  1  0.60482630  0.10340634  0.13457099  1
  O  O145  1  0.61216583  0.12601955  0.63667401  1
  O  O146  1  0.61976693  0.61817183  0.11648575  1
  O  O147  1  0.63860930  0.61238007  0.61004493  1
  O  O148  1  0.33449767  0.36437242  0.41170876  1
  O  O149  1  0.38923577  0.39180104  0.88004980  1
  O  O150  1  0.37335200  0.88331195  0.37988120  1
  O  O151  1  0.38371316  0.87255729  0.88602544  1
  O  O152  1  0.90232053  0.38536853  0.37919545  1
  O  O153  1  0.86830441  0.39403826  0.88263400  1
  O  O154  1  0.88531992  0.87760323  0.37238700  1
  O  O155  1  0.87613797  0.86634330  0.89337961  1
  O  O156  1  0.25575729  -0.00676352  0.37582727  1
  O  O157  1  0.25929625  0.02027654  0.87957995  1
  O  O158  1  0.25245845  0.51825239  0.37119426  1
  O  O159  1  0.27196187  0.52083285  0.88445270  1
  O  O160  1  0.76771299  -0.00545755  0.37453274  1
  O  O161  1  0.75836275  -0.01525470  0.87977905  1
  O  O162  1  0.73904148  0.51069748  0.35983898  1
  O  O163  1  0.75787366  0.51292881  0.86665173  1
  O  O164  1  0.24546520  0.50305653  0.11640303  1
  O  O165  1  0.24317836  0.47097547  0.59133594  1
  O  O166  1  0.23389664  0.98601635  0.12228683  1
  O  O167  1  0.25230062  0.98668525  0.62024708  1
  O  O168  1  0.73756978  0.50450876  0.13697779  1
  O  O169  1  0.75013069  0.49908060  0.63996282  1
  O  O170  1  0.73074301  1.00135693  0.12741502  1
  O  O171  1  0.76971416  0.99268390  0.63558800  1
  O  O172  1  0.02423948  0.38946273  0.26756339  1
  O  O173  1  -0.01079543  0.37043707  0.76865072  1
  O  O174  1  -0.00229983  0.85789200  0.25854744  1
  O  O175  1  0.01433443  0.86666087  0.74312702  1
  O  O176  1  0.47113142  0.35380780  0.25822374  1
  O  O177  1  0.50566559  0.37198553  0.75585940  1
  O  O178  1  0.50008516  0.86479542  0.26139128  1
  O  O179  1  0.49640914  0.87276119  0.75544572  1
  O  O180  1  0.48468436  0.13032893  0.24508064  1
  O  O181  1  0.49458995  0.14364468  0.73873087  1
  O  O182  1  0.51086988  0.63332375  0.23973596  1
  O  O183  1  0.53018338  0.64491206  0.74296894  1
  O  O184  1  0.97723076  0.13811604  0.25487684  1
  O  O185  1  0.95535106  0.08776751  0.73884873  1
  O  O186  1  0.98600900  0.62978335  0.26031844  1
  O  O187  1  0.99206311  0.63732373  0.74022863  1
  O  O188  1  0.38849907  0.26463059  -0.00020625  1
  O  O189  1  0.36920458  0.25767762  0.51960110  1
  O  O190  1  0.36106565  0.76085332  0.00754388  1
  O  O191  1  0.36333727  0.75799839  0.50376864  1
  O  O192  1  0.88568561  0.26763144  -0.00167614  1
  O  O193  1  0.86394046  0.26924342  0.47155985  1
  O  O194  1  0.87982784  0.75093248  0.01581350  1
  O  O195  1  0.86498485  0.74417736  0.51134838  1
  O  O196  1  0.14766686  0.23776059  0.52190494  1
  O  O197  1  0.14027753  0.27650338  0.94636391  1
  O  O198  1  0.13035762  0.74846239  0.49830744  1
  O  O199  1  0.13539369  0.75510239  0.99774288  1
  O  O200  1  0.64454536  0.22749760  0.49225170  1
  O  O201  1  0.57861555  0.22621921  0.97752335  1
  O  O202  1  0.63716382  0.74182578  0.49662971  1
  O  O203  1  0.62449942  0.73660115  1.00643231  1
  O  O204  1  0.48680299  0.23252971  0.13433452  1
  O  O205  1  0.50131899  0.24966031  0.63203539  1
  O  O206  1  0.49906854  0.74196435  0.13602971  1
  O  O207  1  0.48270743  0.75990829  0.61526484  1
  O  O208  1  1.10421933  0.25363054  0.00735139  1
  O  O209  1  1.01597724  0.23416761  0.66989291  1
  O  O210  1  1.00078231  0.74909471  0.14052593  1
  O  O211  1  0.98719199  0.74522033  0.63307524  1
  O  O212  1  0.00806378  0.26988500  0.37163518  1
  O  O213  1  0.00269724  0.20611869  0.84909141  1
  O  O214  1  -0.00056210  0.75670417  0.37034227  1
  O  O215  1  -0.00555088  0.75216195  0.85496773  1
  O  O216  1  0.49978044  0.23288354  0.36143344  1
  O  O217  1  0.49785023  0.26931518  0.85607702  1
  O  O218  1  0.50653358  0.75386867  0.37139185  1
  O  O219  1  0.49943909  0.76546198  0.88210462  1
  O  O220  1  0.23370739  0.13778672  0.50627724  1
  O  O221  1  0.24833664  0.13247142  0.99205993  1
  O  O222  1  0.23641725  0.63408135  0.51323763  1
  O  O223  1  0.25582188  0.64184167  0.98516453  1
  O  O224  1  0.74079897  0.13413024  0.48803009  1
  O  O225  1  0.73843419  0.11602417  0.99277690  1
  O  O226  1  0.74684541  0.62896586  0.48996133  1
  O  O227  1  0.73916149  0.62080585  0.99482731  1
  O  O228  1  0.27167432  0.38120717  -0.01306094  1
  O  O229  1  0.23962516  0.41004788  0.54733839  1
  O  O230  1  0.25451792  0.86433059  -0.00191116  1
  O  O231  1  0.25181428  0.86897450  0.51003236  1
  O  O232  1  0.77365480  0.39137144  0.01104761  1
  O  O233  1  0.77582417  0.39061665  0.50621458  1
  O  O234  1  0.76294828  0.86649522  0.00358054  1
  O  O235  1  0.74836576  0.85873517  0.49116805  1
  O  O236  1  0.14617717  0.50766926  0.24222246  1
  O  O237  1  0.14492157  0.50809984  0.72740841  1
  O  O238  1  0.11275890  0.99638920  0.23866827  1
  O  O239  1  0.10801807  0.99767017  0.74646111  1
  O  O240  1  0.63319798  0.50065394  0.24061741  1
  O  O241  1  0.64038438  0.49981611  0.73863660  1
  O  O242  1  0.61951224  0.98243395  0.24748266  1
  O  O243  1  0.65526927  1.01719244  0.75659146  1
  O  O244  1  0.37159225  0.01011745  0.26455600  1
  O  O245  1  0.38769495  0.01729770  0.74847006  1
  O  O246  1  0.36094085  0.48192492  0.25177959  1
  O  O247  1  0.38834032  0.51005312  0.76090094  1
  O  O248  1  0.88727718  0.00084214  0.26450414  1
  O  O249  1  0.86011498  -0.03050786  0.77409885  1
  O  O250  1  0.86436759  0.51438845  0.24103766  1
  O  O251  1  0.86782857  0.50769389  0.75917476  1
  O  O252  1  0.12767725  0.36997332  0.37029182  1
  O  O253  1  0.12104860  0.42391969  0.84877045  1
  O  O254  1  0.10903346  0.85972611  0.37846746  1
  O  O255  1  0.12688471  0.88370074  0.85680019  1
  O  O256  1  0.65884190  0.33847796  0.38247368  1
  O  O257  1  0.61621751  0.38663659  0.87762822  1
  O  O258  1  0.61407006  0.86732681  0.36947558  1
  O  O259  1  0.61035748  0.86641965  0.87504174  1
  O  O260  1  0.37448125  0.12344279  0.14057069  1
  O  O261  1  0.38181120  0.14108966  0.63418966  1
  O  O262  1  0.39204925  0.62464872  0.11537059  1
  O  O263  1  0.37130970  0.64186621  0.62633688  1
  O  O264  1  0.86206389  0.12568751  0.14128238  1
  O  O265  1  0.86625147  0.15254926  0.61287888  1
  O  O266  1  0.87077304  0.63666914  0.13849781  1
  O  O267  1  0.88295351  0.62850117  0.63277774  1
  O  O268  1  0.26930047  0.24576997  0.12041448  1
  O  O269  1  0.26017882  0.25105815  0.64453545  1
  O  O270  1  0.24374729  0.75869328  0.11462637  1
  O  O271  1  0.25676080  0.76033350  0.61751338  1
  O  O272  1  0.68946843  0.23680324  0.07306510  1
  O  O273  1  0.70481660  0.19547142  0.53072449  1
  O  O274  1  0.75823041  0.74866024  0.13044442  1
  O  O275  1  0.75783940  0.74813285  0.61542193  1
  O  O276  1  0.12349009  0.20150075  0.38059091  1
  O  O277  1  0.26038145  0.23012227  0.86132865  1
  O  O278  1  0.23832939  0.75409269  0.38959816  1
  O  O279  1  0.25022335  0.74476111  0.88167655  1
  O  O280  1  0.71293547  0.28614125  0.36628534  1
  O  O281  1  0.73552776  0.25913875  0.90177612  1
  O  O282  1  0.74365621  0.74300078  0.38391541  1
  O  O283  1  0.73775597  0.73611532  0.86160364  1
  O  O284  1  -0.01164179  0.10328182  0.00298261  1
  O  O285  1  0.00308327  0.12383894  0.49199309  1
  O  O286  1  0.00405301  0.61400073  -0.00427273  1
  O  O287  1  0.00622378  0.62734862  0.51498767  1
  O  O288  1  0.47820444  0.11024892  0.02463620  1
  O  O289  1  0.49936092  0.13937429  0.51646192  1
  O  O290  1  0.51376235  0.61632225  0.00649242  1
  O  O291  1  0.52063069  0.63201137  0.50366721  1
  O  O292  1  0.49290428  0.36070950  0.48269938  1
  O  O293  1  0.49817702  0.38674635  0.98518665  1
  O  O294  1  0.48392800  0.86677308  0.48592792  1
  O  O295  1  0.48001239  0.87268101  1.01097721  1
  O  O296  1  1.00039335  0.36490577  0.49823385  1
  O  O297  1  0.98173388  0.40001078  0.99789138  1
  O  O298  1  0.99412682  0.86754734  0.49035148  1
  O  O299  1  0.98734313  0.87818366  0.99951337  1
  O  O300  1  0.46749267  0.53602911  0.37815846  1
  O  O301  1  0.49891813  0.49532329  0.87773783  1
  O  O302  1  0.48218483  0.98947962  0.38032975  1
  O  O303  1  0.50140151  0.97698776  0.88091574  1
  O  O304  1  1.01810122  0.48857008  0.38568094  1
  O  O305  1  0.98124471  0.51294845  0.87583837  1
  O  O306  1  0.99518004  0.98480171  0.38163072  1
  O  O307  1  0.98359791  0.99245795  0.88779345  1
  O  O308  1  0.01000672  -0.01243269  0.11508977  1
  O  O309  1  -0.01071756  -0.00219507  0.60145609  1
  O  O310  1  -0.00029451  0.51003583  0.11922377  1
  O  O311  1  -0.00544303  0.51478768  0.63543548  1
  O  O312  1  0.49727519  0.00291929  0.13991190  1
  O  O313  1  0.49329387  0.01944872  0.61702492  1
  O  O314  1  0.51187661  0.50598269  0.12062030  1
  O  O315  1  0.52060255  0.50140586  0.63519434  1
  O  O316  1  0.23999646  0.39188413  0.26502884  1
  O  O317  1  0.25608354  0.38211031  0.75247133  1
  O  O318  1  0.24748937  0.86645734  0.23812389  1
  O  O319  1  0.23760295  0.87699338  0.73986834  1
  O  O320  1  0.76228777  0.39295907  0.25638808  1
  O  O321  1  0.75775764  0.38751363  0.75947924  1
  O  O322  1  0.73302116  0.86660202  0.25689334  1
  O  O323  1  0.73501893  0.87503800  0.74380520  1
  O  O324  1  0.25770934  0.12973808  0.25016618  1
  O  O325  1  0.27193526  0.12287773  0.75649566  1
  O  O326  1  0.26358986  0.61741492  0.24384071  1
  O  O327  1  0.26415617  0.63706543  0.76720841  1
  O  O328  1  0.75416880  0.14337747  0.26093696  1
  O  O329  1  0.78375563  0.11198768  0.74567561  1
  O  O330  1  0.75762995  0.62265165  0.25908784  1
  O  O331  1  0.75863979  0.61880582  0.75520585  1
  O  O332  1  0.36840231  0.11532434  0.37121236  1
  O  O333  1  0.39589502  0.13328724  0.86297379  1
  O  O334  1  0.41385682  0.59267940  0.37901715  1
  O  O335  1  0.39150143  0.61618803  0.87251537  1
  O  O336  1  0.86821010  0.11845032  0.36349769  1
  O  O337  1  0.86751258  0.10088122  0.88789019  1
  O  O338  1  0.86584669  0.63294898  0.36256222  1
  O  O339  1  0.86665284  0.62513823  0.86643162  1
  O  O340  1  0.12199537  0.39607261  0.14527719  1
  O  O341  1  0.11939122  0.37488877  0.64957244  1
  O  O342  1  0.13436266  0.87947763  0.12312107  1
  O  O343  1  0.13538977  0.87475774  0.63331183  1
  O  O344  1  0.61616902  0.38750540  0.12304307  1
  O  O345  1  0.62746360  0.38657976  0.60801269  1
  O  O346  1  0.61793560  0.87932026  0.14040342  1
  O  O347  1  0.61813048  0.91205029  0.59339238  1
  O  O348  1  0.13550947  0.26842694  0.23731660  1
  O  O349  1  0.12221031  0.28754556  0.77706582  1
  O  O350  1  0.11106619  0.73517300  0.26205606  1
  O  O351  1  0.11361882  0.74582797  0.74315587  1
  O  O352  1  0.60357302  0.24883331  0.23747085  1
  O  O353  1  0.61704093  0.24813959  0.74395406  1
  O  O354  1  0.61592966  0.75627084  0.26047702  1
  O  O355  1  0.58716819  0.71005507  0.74461822  1
  O  O356  1  0.37436922  0.23778252  0.24486961  1
  O  O357  1  0.38942155  0.25268820  0.73753563  1
  O  O358  1  0.38555287  0.74957338  0.25251631  1
  O  O359  1  0.37295286  0.75739516  0.73435719  1
  O  O360  1  0.86866220  0.25239805  0.24635177  1
  O  O361  1  0.88017274  0.24696579  0.75819723  1
  O  O362  1  0.88307869  0.74256212  0.24078269  1
  O  O363  1  0.87488564  0.74506657  0.73830260  1
  O  O364  1  0.38650754  0.48046953  0.51352563  1
  O  O365  1  0.39037252  0.49513196  0.99176513  1
  O  O366  1  0.36568330  0.99286048  0.49123405  1
  O  O367  1  0.36371367  0.98240396  1.00766708  1
  O  O368  1  0.87283880  0.48000624  0.50254267  1
  O  O369  1  0.88290588  0.50917249  0.99279288  1
  O  O370  1  0.88841701  1.00918122  0.47844270  1
  O  O371  1  0.87591027  0.98236341  1.00036080  1
  O  O372  1  0.10844798  -0.00782053  0.00064879  1
  O  O373  1  0.10563221  0.00087326  0.49261056  1
  O  O374  1  0.11303396  0.48821785  0.01557445  1
  O  O375  1  0.12823807  0.51530116  0.49813870  1
  O  O376  1  0.61835878  -0.01617824  0.01753324  1
  O  O377  1  0.62423196  -0.03373741  0.53307961  1
  O  O378  1  0.62309409  0.50485799  0.01288072  1
  O  O379  1  0.62889170  0.50821714  0.50532995  1
  O  O380  1  0.38406685  0.36841920  0.10542822  1
  O  O381  1  0.38299693  0.36397676  0.61531404  1
  O  O382  1  0.35533119  0.87231784  0.12016254  1
  O  O383  1  0.36405628  0.87069146  0.61765818  1
  O  O384  1  0.88720232  0.37276055  0.12400997  1
  O  O385  1  0.89223398  0.35531879  0.61299530  1
  O  O386  1  0.87646379  0.85864898  0.11971349  1
  O  O387  1  0.87905345  0.86247240  0.62775754  1
  O  O388  1  0.13254551  0.13042713  0.36442292  1
  O  O389  1  0.13729830  0.12017621  0.86746212  1
  O  O390  1  0.11237782  0.63886427  0.39433632  1
  O  O391  1  0.13866904  0.61837091  0.86791527  1
  O  O392  1  0.62317676  0.05738739  0.39759997  1
  O  O393  1  0.63754010  0.13546979  0.86889682  1
  O  O394  1  0.63221086  0.63279873  0.38309771  1
  O  O395  1  0.63008010  0.62174950  0.89207826  1
