# generated using pymatgen
data_V35Zn35O128
_symmetry_space_group_name_H-M   'P 1'
_cell_length_a   16.92044819
_cell_length_b   16.89280704
_cell_length_c   16.89143832
_cell_angle_alpha   89.78987644
_cell_angle_beta   89.92757280
_cell_angle_gamma   90.02746559
_symmetry_Int_Tables_number   1
_chemical_formula_structural   V35Zn35O128
_chemical_formula_sum   'V70 Zn70 O256'
_cell_volume   4828.10822976
_cell_formula_units_Z   2
loop_
 _symmetry_equiv_pos_site_id
 _symmetry_equiv_pos_as_xyz
  1  'x, y, z'
loop_
 _atom_site_type_symbol
 _atom_site_label
 _atom_site_symmetry_multiplicity
 _atom_site_fract_x
 _atom_site_fract_y
 _atom_site_fract_z
 _atom_site_occupancy
  V  V0  1  0.59878051  0.74813741  0.36866680  1
  V  V1  1  0.52467658  0.62889546  0.62345915  1
  V  V2  1  0.12074906  0.26505628  0.87531930  1
  V  V3  1  0.87222338  0.72796772  0.62918298  1
  V  V4  1  0.01185138  0.74449856  0.74987718  1
  V  V5  1  0.50407850  0.91662739  0.87195981  1
  V  V6  1  -0.00903866  0.49694322  0.01741452  1
  V  V7  1  0.37477164  0.73237715  0.63008713  1
  V  V8  1  0.25866798  0.12711022  0.36833322  1
  V  V9  1  0.87829189  0.12752441  0.75352957  1
  V  V10  1  0.24116462  0.27908180  0.01397971  1
  V  V11  1  0.50556184  0.34977660  0.88628388  1
  V  V12  1  0.24656106  0.48487161  0.25060825  1
  V  V13  1  0.25995519  0.87343277  0.62705626  1
  V  V14  1  0.76709707  0.37722620  0.62198695  1
  V  V15  1  0.24662703  0.13330913  0.87451231  1
  V  V16  1  0.62961976  0.11533778  0.49621275  1
  V  V17  1  0.23970209  -0.00058443  0.23537960  1
  V  V18  1  0.00331751  -0.00494123  0.49832241  1
  V  V19  1  0.88064231  0.12068467  0.24449673  1
  V  V20  1  0.37682026  0.50993136  0.38478528  1
  V  V21  1  0.15593403  0.62680617  -0.00407757  1
  V  V22  1  0.61316554  0.87395314  0.24424051  1
  V  V23  1  0.26202235  0.25509526  0.50449739  1
  V  V24  1  0.76402059  0.88671214  0.12011358  1
  V  V25  1  0.61383618  0.36789911  0.73605596  1
  V  V26  1  0.39980655  0.50241199  0.90039795  1
  V  V27  1  0.86446329  0.87513101  0.51093614  1
  V  V28  1  0.65922453  0.47875182  0.12775657  1
  V  V29  1  0.38855468  0.87361281  0.00516470  1
  V  V30  1  0.85674535  0.37182093  -0.00650099  1
  V  V31  1  0.61644010  0.01241674  0.11801348  1
  V  V32  1  0.86915626  0.73443771  0.12255319  1
  V  V33  1  0.88375377  -0.00763026  0.88469009  1
  V  V34  1  0.77177557  0.63771514  0.36880799  1
  V  V35  1  0.37770718  -0.01821810  0.38380041  1
  V  V36  1  0.67452442  0.29205145  0.35045135  1
  V  V37  1  0.87423335  0.48594744  0.37838555  1
  V  V38  1  -0.00136655  0.25560466  0.74903258  1
  V  V39  1  0.06091317  0.30881032  0.30200394  1
  V  V40  1  -0.01000564  0.37963070  0.86925530  1
  V  V41  1  0.12769242  0.13153417  0.49283385  1
  V  V42  1  0.51800466  0.50503689  0.50690607  1
  V  V43  1  0.24759500  0.75244449  0.49793555  1
  V  V44  1  0.11433312  0.62630354  0.50840369  1
  V  V45  1  0.59864709  0.75547734  0.86456997  1
  V  V46  1  0.27345374  0.50621795  0.76787342  1
  V  V47  1  0.25522517  0.00196053  0.75811499  1
  V  V48  1  0.74849554  0.64579275  0.87066681  1
  V  V49  1  0.50072747  0.37255404  0.36916013  1
  V  V50  1  0.74202825  0.00295571  0.73236151  1
  V  V51  1  0.61670361  0.63875114  0.01264017  1
  V  V52  1  0.73998958  0.12915256  0.87678325  1
  V  V53  1  0.88081016  0.25658931  0.12292121  1
  V  V54  1  0.47338617  0.14111375  0.58828258  1
  V  V55  1  0.23994923  0.62450131  0.37471631  1
  V  V56  1  0.74668708  0.11364616  0.36393309  1
  V  V57  1  0.00122144  0.13107696  0.62607010  1
  V  V58  1  0.12435025  -0.00870430  0.63267475  1
  V  V59  1  0.37080322  0.15041597  0.74547963  1
  V  V60  1  0.12273539  0.11968045  0.00547434  1
  V  V61  1  0.01679561  0.86400464  0.36669937  1
  V  V62  1  -0.00391692  0.47980349  0.50261925  1
  V  V63  1  0.38967201  0.27319793  0.12779635  1
  V  V64  1  0.12394725  0.49218765  0.64108142  1
  V  V65  1  0.85331459  0.50082655  0.86193803  1
  V  V66  1  0.00201431  0.11054144  0.11927213  1
  V  V67  1  0.73783231  0.24119828  0.00194452  1
  V  V68  1  0.17523267  0.83491793  0.15467595  1
  V  V69  1  0.87885460  -0.00758953  0.36062872  1
  Zn  Zn70  1  0.02781646  0.87981140  0.85561954  1
  Zn  Zn71  1  0.25633022  0.36822139  0.64577942  1
  Zn  Zn72  1  0.40556585  0.64083476  0.77448911  1
  Zn  Zn73  1  0.39592413  0.11967264  0.22720164  1
  Zn  Zn74  1  0.76990493  0.24914096  0.50282149  1
  Zn  Zn75  1  0.38707338  0.37144565  0.51290500  1
  Zn  Zn76  1  0.18539023  0.19257225  0.19122699  1
  Zn  Zn77  1  0.18030670  0.19119118  0.68616043  1
  Zn  Zn78  1  0.15685651  0.62470261  0.19207745  1
  Zn  Zn79  1  0.18718116  0.67879635  0.68923848  1
  Zn  Zn80  1  0.69062806  0.18908352  0.18865442  1
  Zn  Zn81  1  0.68531156  0.19782462  0.68437306  1
  Zn  Zn82  1  0.69904410  0.69674303  0.19662856  1
  Zn  Zn83  1  0.69435682  0.69531218  0.69911373  1
  Zn  Zn84  1  0.32201396  0.31202670  0.31619133  1
  Zn  Zn85  1  0.31271481  0.33009366  0.82674472  1
  Zn  Zn86  1  0.29948288  0.81294683  0.30317389  1
  Zn  Zn87  1  0.38359807  0.85953704  0.76615919  1
  Zn  Zn88  1  0.85554862  0.30105120  0.32588559  1
  Zn  Zn89  1  0.80025940  0.31027647  0.80339647  1
  Zn  Zn90  1  0.82286584  0.81232916  0.29347954  1
  Zn  Zn91  1  0.81372463  0.82214687  0.80025412  1
  Zn  Zn92  1  0.17822200  0.43488724  0.43620813  1
  Zn  Zn93  1  0.17318359  0.45395087  0.93755632  1
  Zn  Zn94  1  0.19261796  0.94068293  0.43701091  1
  Zn  Zn95  1  0.20196677  0.92231990  0.96817209  1
  Zn  Zn96  1  0.69837475  0.44387230  0.44458710  1
  Zn  Zn97  1  0.66537361  0.43931899  0.93981688  1
  Zn  Zn98  1  0.68125068  0.93136281  0.42947206  1
  Zn  Zn99  1  0.69487263  0.94511475  0.93669042  1
  Zn  Zn100  1  0.30656189  0.04939265  0.04032772  1
  Zn  Zn101  1  0.31280400  0.05918446  0.56275523  1
  Zn  Zn102  1  0.30859581  0.54696067  0.05820953  1
  Zn  Zn103  1  0.30394140  0.55514914  0.56507341  1
  Zn  Zn104  1  0.81099823  0.05983407  0.06268844  1
  Zn  Zn105  1  0.82582122  0.08361278  0.55092806  1
  Zn  Zn106  1  0.80502169  0.57044668  0.04407299  1
  Zn  Zn107  1  0.80298687  0.55938241  0.55452266  1
  Zn  Zn108  1  0.42968230  0.44884438  0.19889542  1
  Zn  Zn109  1  0.44319992  0.43192935  0.69126014  1
  Zn  Zn110  1  0.43450082  0.94570547  0.19084001  1
  Zn  Zn111  1  0.54784080  0.96981965  0.68991644  1
  Zn  Zn112  1  0.86491040  0.46563361  0.17280074  1
  Zn  Zn113  1  0.93435926  0.44755296  0.68333365  1
  Zn  Zn114  1  0.97227815  0.90007791  0.16088846  1
  Zn  Zn115  1  0.93329995  0.93679645  0.69672705  1
  Zn  Zn116  1  0.06152213  0.06414289  0.30896116  1
  Zn  Zn117  1  0.06494780  0.06662756  0.81841851  1
  Zn  Zn118  1  0.05123616  0.48290741  0.30211097  1
  Zn  Zn119  1  0.06171246  0.56600091  0.82496813  1
  Zn  Zn120  1  0.55630516  0.04337612  0.29447147  1
  Zn  Zn121  1  0.56177105  0.09621739  0.80582531  1
  Zn  Zn122  1  0.57520377  0.56228724  0.30749524  1
  Zn  Zn123  1  0.57892609  0.55678578  0.80727793  1
  Zn  Zn124  1  0.47065303  0.16234906  0.38391066  1
  Zn  Zn125  1  0.41821340  0.18948645  0.95745345  1
  Zn  Zn126  1  0.43391105  0.69017418  0.44707769  1
  Zn  Zn127  1  0.43258014  0.69000491  0.95409301  1
  Zn  Zn128  1  0.94249605  0.18951341  0.43216321  1
  Zn  Zn129  1  0.93498704  0.18695523  0.93831692  1
  Zn  Zn130  1  0.93460861  0.69206385  0.43874223  1
  Zn  Zn131  1  0.94648081  0.68039903  0.92231182  1
  Zn  Zn132  1  0.05803102  0.33230841  0.06484990  1
  Zn  Zn133  1  0.07066701  0.31372763  0.56531292  1
  Zn  Zn134  1  0.07156095  0.81260857  0.01817866  1
  Zn  Zn135  1  0.05713607  0.80859542  0.56920846  1
  Zn  Zn136  1  0.56610646  0.31806381  0.06781145  1
  Zn  Zn137  1  0.58504310  0.30249380  0.54141619  1
  Zn  Zn138  1  0.59903302  0.84714609  0.02969509  1
  Zn  Zn139  1  0.70483225  0.72087770  0.52490038  1
  O  O140  1  0.11121721  0.13684120  0.11554161  1
  O  O141  1  0.11867633  0.11575912  0.61532396  1
  O  O142  1  0.12632904  0.59431229  0.08761102  1
  O  O143  1  0.12896505  0.60843223  0.61396291  1
  O  O144  1  0.63620578  0.11115823  0.13057125  1
  O  O145  1  0.64278661  0.13221671  0.59325829  1
  O  O146  1  0.63775149  0.64955643  0.10972957  1
  O  O147  1  0.62258339  0.64778849  0.61597540  1
  O  O148  1  0.38485471  0.38816205  0.38617321  1
  O  O149  1  0.39794119  0.38952513  0.87480889  1
  O  O150  1  0.35977691  0.88258823  0.36707425  1
  O  O151  1  0.40167922  0.89050004  0.87823019  1
  O  O152  1  0.87336605  0.38684687  0.39747992  1
  O  O153  1  0.87038604  0.38009953  0.87396907  1
  O  O154  1  0.88668582  0.88572985  0.38083863  1
  O  O155  1  0.86667133  0.89350748  0.87285049  1
  O  O156  1  0.25336328  0.00885433  0.36586538  1
  O  O157  1  0.23120983  0.01916957  0.86000137  1
  O  O158  1  0.25366276  0.50851008  0.37878337  1
  O  O159  1  0.28138745  0.49364021  0.87356796  1
  O  O160  1  0.77208642  0.00314282  0.37245280  1
  O  O161  1  0.75814193  0.01590691  0.86830434  1
  O  O162  1  0.76997966  0.51037865  0.38576888  1
  O  O163  1  0.75395088  0.49070527  0.87745544  1
  O  O164  1  0.27237810  0.50591317  0.15435601  1
  O  O165  1  0.23632946  0.49942833  0.63996202  1
  O  O166  1  0.25223776  1.01874916  0.13807453  1
  O  O167  1  0.23989813  0.99564224  0.63074808  1
  O  O168  1  0.76311249  0.49553427  0.12791314  1
  O  O169  1  0.74712640  0.47857763  0.61076260  1
  O  O170  1  0.74420558  0.99210753  0.12416259  1
  O  O171  1  0.76141144  1.02161302  0.63574113  1
  O  O172  1  0.00202050  0.38741515  0.23775840  1
  O  O173  1  -0.01267024  0.36491502  0.75759851  1
  O  O174  1  0.00475061  0.88501077  0.26931971  1
  O  O175  1  0.00202718  0.86421565  0.74623879  1
  O  O176  1  0.50019446  0.39425830  0.27045299  1
  O  O177  1  0.50648569  0.36784581  0.76155430  1
  O  O178  1  0.51276929  0.87534402  0.24235051  1
  O  O179  1  0.49756104  0.90032598  0.76346508  1
  O  O180  1  0.49477965  0.13453967  0.27758461  1
  O  O181  1  0.46922872  0.14146973  0.76108157  1
  O  O182  1  0.47862180  0.60562416  0.23145915  1
  O  O183  1  0.51124093  0.61831731  0.72768230  1
  O  O184  1  0.99336551  0.12280942  0.23249760  1
  O  O185  1  0.99885391  0.13406833  0.74605746  1
  O  O186  1  0.98777115  0.61292172  0.25361657  1
  O  O187  1  1.00112527  0.64189883  0.76734892  1
  O  O188  1  0.34856983  0.26409357  0.01728432  1
  O  O189  1  0.36158508  0.24994213  0.50645011  1
  O  O190  1  0.36816311  0.77552590  -0.01018866  1
  O  O191  1  0.35520725  0.74479919  0.51475392  1
  O  O192  1  0.86627702  0.25410774  0.00473365  1
  O  O193  1  0.86858897  0.19271353  0.51336672  1
  O  O194  1  0.89954868  0.75714495  0.00907083  1
  O  O195  1  0.88283685  0.76699024  0.51648940  1
  O  O196  1  0.12275068  0.23350315  0.49639171  1
  O  O197  1  0.12625255  0.25643234  0.99348823  1
  O  O198  1  0.13526194  0.73699298  0.51510012  1
  O  O199  1  0.11640831  0.71680174  0.97624601  1
  O  O200  1  0.63871301  0.23553481  0.46175563  1
  O  O201  1  0.64021487  0.24569625  1.00965708  1
  O  O202  1  0.62419075  0.76848730  0.46649834  1
  O  O203  1  0.62018295  0.74465361  0.97959836  1
  O  O204  1  0.48727817  0.25340176  0.11723802  1
  O  O205  1  0.51440115  0.22697299  0.61586856  1
  O  O206  1  0.42081916  0.75474955  0.20297612  1
  O  O207  1  0.47983517  0.72966355  0.61419429  1
  O  O208  1  0.98308979  0.24638323  0.11164733  1
  O  O209  1  1.01313073  0.24033358  0.63592909  1
  O  O210  1  0.96552422  0.76628255  0.06252514  1
  O  O211  1  0.98529474  0.74990809  0.63648918  1
  O  O212  1  -0.02005849  0.26267356  0.35300898  1
  O  O213  1  0.00185810  0.25889085  0.86975571  1
  O  O214  1  -0.00197909  0.76563377  0.37888108  1
  O  O215  1  -0.01119196  0.76366272  0.85717747  1
  O  O216  1  0.48740084  0.27511299  0.37960863  1
  O  O217  1  0.49000041  0.24864083  0.89276287  1
  O  O218  1  0.49773976  0.74271683  0.36962495  1
  O  O219  1  0.49911524  0.74632038  0.86447297  1
  O  O220  1  0.23977796  0.13136623  0.49723338  1
  O  O221  1  0.23470925  0.14042236  0.99343961  1
  O  O222  1  0.24075737  0.63398583  0.49937685  1
  O  O223  1  0.25855027  0.63174009  1.00634670  1
  O  O224  1  0.74130968  0.11265932  0.47571206  1
  O  O225  1  0.75629485  0.13131310  0.98653271  1
  O  O226  1  0.74884159  0.62754871  0.47955343  1
  O  O227  1  0.72867093  0.62118946  0.97795349  1
  O  O228  1  0.23680662  0.37770298  -0.00236220  1
  O  O229  1  0.24417877  0.35559251  0.48687980  1
  O  O230  1  0.22059549  0.84107370  0.06640840  1
  O  O231  1  0.24025685  0.85922046  0.51072844  1
  O  O232  1  0.75090434  0.35682400  -0.01263890  1
  O  O233  1  0.74149711  0.36305809  0.51067130  1
  O  O234  1  0.73359136  0.87207713  0.01825403  1
  O  O235  1  0.76658398  0.88194213  0.49120167  1
  O  O236  1  0.14316659  0.51525550  0.24753599  1
  O  O237  1  0.11036401  0.50004437  0.74004546  1
  O  O238  1  0.14006606  1.01193328  0.24775215  1
  O  O239  1  0.13171395  1.01036362  0.73631488  1
  O  O240  1  0.61457608  0.51602161  0.21129963  1
  O  O241  1  0.62780185  0.47206488  0.75342618  1
  O  O242  1  0.63322612  0.98236450  0.24093906  1
  O  O243  1  0.63637449  1.02420053  0.74271613  1
  O  O244  1  0.35876234  0.00580727  0.25661897  1
  O  O245  1  0.35246802  0.02728237  0.74940098  1
  O  O246  1  0.36031938  0.49907710  0.27872145  1
  O  O247  1  0.37526516  0.51564910  0.75033607  1
  O  O248  1  0.88687837  0.00262206  0.25901841  1
  O  O249  1  0.86575499  0.01152812  0.75947335  1
  O  O250  1  0.88998780  0.48744632  0.27775252  1
  O  O251  1  0.87151375  0.49968416  0.76379519  1
  O  O252  1  0.10826171  0.37695350  0.36232601  1
  O  O253  1  0.10519946  0.37215859  0.87800654  1
  O  O254  1  0.11604994  0.87618384  0.38414147  1
  O  O255  1  0.23436545  0.79290326  0.86598698  1
  O  O256  1  0.61225102  0.37747844  0.38309415  1
  O  O257  1  0.61089617  0.36793985  0.86938351  1
  O  O258  1  0.62982058  0.86585440  0.35346019  1
  O  O259  1  0.60761344  0.86883001  0.88476328  1
  O  O260  1  0.36899387  0.15031315  0.11582125  1
  O  O261  1  0.37053774  0.13558852  0.63054737  1
  O  O262  1  0.44655917  0.72489820  0.13986814  1
  O  O263  1  0.36245178  0.63154372  0.63182428  1
  O  O264  1  0.88711234  0.12840271  0.12406848  1
  O  O265  1  0.89723387  0.11137890  0.64189972  1
  O  O266  1  0.86735491  0.63364690  0.11750817  1
  O  O267  1  0.87377618  0.62925255  0.61966431  1
  O  O268  1  0.22777573  0.26658364  0.11463946  1
  O  O269  1  0.23493040  0.25497634  0.60870733  1
  O  O270  1  0.17331417  0.73961856  0.18501600  1
  O  O271  1  0.25317061  0.75424994  0.62233308  1
  O  O272  1  0.76418647  0.23418436  0.10804469  1
  O  O273  1  0.74915900  0.26218268  0.61724597  1
  O  O274  1  0.76715479  0.75861078  0.12012026  1
  O  O275  1  0.76334419  0.74433476  0.62035897  1
  O  O276  1  0.25745448  0.23280851  0.38507810  1
  O  O277  1  0.23672414  0.25515927  0.88627822  1
  O  O278  1  0.25309006  0.74082595  0.39025969  1
  O  O279  1  0.24565778  0.72153175  0.86833816  1
  O  O280  1  0.76737216  0.22329708  0.37523435  1
  O  O281  1  0.76053565  0.23638110  0.88574889  1
  O  O282  1  0.77431392  0.74139970  0.37047130  1
  O  O283  1  0.75598588  0.74621469  0.86984602  1
  O  O284  1  0.01130802  0.13002485  0.00678504  1
  O  O285  1  0.01345432  0.11565224  0.50429877  1
  O  O286  1  -0.00568446  0.59477237  -0.01225899  1
  O  O287  1  0.01445306  0.63037460  0.50028894  1
  O  O288  1  0.40599946  0.11066125  0.04699085  1
  O  O289  1  0.51213407  0.13291840  0.48764385  1
  O  O290  1  0.51546850  0.63024267  0.00821079  1
  O  O291  1  0.49506790  0.61499952  0.51226797  1
  O  O292  1  0.50433672  0.39395995  0.49348573  1
  O  O293  1  0.51129296  0.37470079  0.98498070  1
  O  O294  1  0.58239855  0.88951839  0.59879687  1
  O  O295  1  0.49486274  0.88761016  0.98700484  1
  O  O296  1  1.00287613  0.38037169  0.50104576  1
  O  O297  1  0.97084817  0.37275124  0.98497913  1
  O  O298  1  0.99617385  0.88437927  0.49596314  1
  O  O299  1  1.10656912  0.87889972  0.93314327  1
  O  O300  1  0.48974291  0.50823070  0.38536389  1
  O  O301  1  0.49967967  0.50192401  0.87621735  1
  O  O302  1  0.47686334  0.99562634  0.36974934  1
  O  O303  1  0.51426560  1.01509025  0.87863326  1
  O  O304  1  0.99188600  0.50366380  0.39507692  1
  O  O305  1  0.98198678  0.48675188  0.87659110  1
  O  O306  1  0.99674147  0.99808236  0.38327760  1
  O  O307  1  0.98922087  0.99552929  0.86560474  1
  O  O308  1  -0.00099841  0.01291530  0.11890587  1
  O  O309  1  0.01292172  0.00491023  0.62020774  1
  O  O310  1  -0.03861713  0.49653547  0.11282342  1
  O  O311  1  0.01235971  0.49562960  0.61414193  1
  O  O312  1  0.51582616  0.00850024  0.13668402  1
  O  O313  1  0.50769330  0.05487719  0.62770721  1
  O  O314  1  0.46132799  0.56616425  0.16937775  1
  O  O315  1  0.50577675  0.51314506  0.61385704  1
  O  O316  1  0.24679343  0.38581024  0.26443028  1
  O  O317  1  0.24954422  0.39994267  0.75870506  1
  O  O318  1  0.23455747  0.88643154  0.23431362  1
  O  O319  1  0.26262614  0.89688736  0.74627910  1
  O  O320  1  0.74395806  0.35276558  0.31087255  1
  O  O321  1  0.73798461  0.36723769  0.72940496  1
  O  O322  1  0.74611790  0.86716457  0.22730866  1
  O  O323  1  0.74826405  0.90305285  0.74586611  1
  O  O324  1  0.25032963  0.12310204  0.26239336  1
  O  O325  1  0.24667778  0.12729216  0.75586663  1
  O  O326  1  0.24612037  0.62314106  0.27383010  1
  O  O327  1  0.23728932  0.60273338  0.75909950  1
  O  O328  1  0.76995597  0.12214023  0.25420078  1
  O  O329  1  0.76048376  0.12775513  0.76089733  1
  O  O330  1  0.75044519  0.62294860  0.26874484  1
  O  O331  1  0.73693520  0.61886011  0.77310050  1
  O  O332  1  0.35956239  0.11369206  0.38111762  1
  O  O333  1  0.35139191  0.13913288  0.86934463  1
  O  O334  1  0.36095917  0.61552016  0.38891778  1
  O  O335  1  0.38744821  0.61096428  0.88256389  1
  O  O336  1  0.88125254  0.10972228  0.36092406  1
  O  O337  1  0.87698215  0.11659619  0.86653703  1
  O  O338  1  0.87554023  0.61710963  0.37695226  1
  O  O339  1  0.85586287  0.61078501  0.88424482  1
  O  O340  1  0.06967320  0.35367267  0.19611576  1
  O  O341  1  0.13386328  0.38838199  0.62331490  1
  O  O342  1  0.07716015  0.86072673  0.12603667  1
  O  O343  1  0.13199550  0.88816489  0.62402031  1
  O  O344  1  0.64040951  0.37986014  0.12763768  1
  O  O345  1  0.61116979  0.36717441  0.63236846  1
  O  O346  1  0.63164660  0.88277188  0.13261402  1
  O  O347  1  0.64641928  0.85655498  0.61513554  1
  O  O348  1  0.12278008  0.23373021  0.27725175  1
  O  O349  1  0.11208517  0.24738589  0.76449660  1
  O  O350  1  0.03318777  0.66405336  0.22681366  1
  O  O351  1  0.11270282  0.74979439  0.73855750  1
  O  O352  1  0.63461090  0.24777843  0.27042469  1
  O  O353  1  0.62743612  0.26098971  0.75616906  1
  O  O354  1  0.62343058  0.76095761  0.25538600  1
  O  O355  1  0.62728182  0.75853331  0.76757732  1
  O  O356  1  0.36208301  0.24663893  0.22798696  1
  O  O357  1  0.35030922  0.24801451  0.75085316  1
  O  O358  1  0.34174514  0.74099395  0.21914963  1
  O  O359  1  0.37231418  0.74672578  0.73632603  1
  O  O360  1  0.87157265  0.23970466  0.22871299  1
  O  O361  1  0.88709275  0.23832360  0.75726375  1
  O  O362  1  0.89576136  0.75974049  0.21829080  1
  O  O363  1  0.87246823  0.75149521  0.73154215  1
  O  O364  1  0.37440645  0.49724685  0.49330347  1
  O  O365  1  0.39303136  0.50111998  1.00113544  1
  O  O366  1  0.36204926  0.99413511  0.48563716  1
  O  O367  1  0.31055316  0.94944132  0.98422731  1
  O  O368  1  0.89423651  0.50440853  0.50218488  1
  O  O369  1  0.87199507  0.48671324  0.98667845  1
  O  O370  1  0.88869287  0.99566632  0.49066271  1
  O  O371  1  0.87618076  1.00787863  0.98356681  1
  O  O372  1  0.13465338  0.02301164  0.00373138  1
  O  O373  1  0.12214304  0.00637992  0.51195408  1
  O  O374  1  0.08483899  0.44793181  0.02734951  1
  O  O375  1  0.11376276  0.50715883  0.50480604  1
  O  O376  1  0.62422754  -0.00492380  0.01640651  1
  O  O377  1  0.62275622  0.01398059  0.48389763  1
  O  O378  1  0.62968663  0.51110328  0.02822221  1
  O  O379  1  0.61480445  0.50962473  0.49132538  1
  O  O380  1  0.38430051  0.37468220  0.12971472  1
  O  O381  1  0.36684544  0.38699258  0.62255289  1
  O  O382  1  0.39084443  0.88405608  0.10549766  1
  O  O383  1  0.36141896  0.86169513  0.63089314  1
  O  O384  1  0.86717167  0.36044775  0.11304186  1
  O  O385  1  0.86768622  0.37359117  0.62771230  1
  O  O386  1  0.86690564  0.88585546  0.11743083  1
  O  O387  1  0.87308374  0.88939698  0.61021711  1
  O  O388  1  0.13433269  0.11362449  0.38992618  1
  O  O389  1  0.12471237  0.14149961  0.88803642  1
  O  O390  1  0.13822234  0.62127415  0.39444991  1
  O  O391  1  0.13681957  0.56094217  0.91208474  1
  O  O392  1  0.64688421  0.10895316  0.35973393  1
  O  O393  1  0.64191348  0.13126737  0.87647160  1
  O  O394  1  0.62803863  0.64531907  0.36454024  1
  O  O395  1  0.62644025  0.64124799  0.87725044  1
