# generated using pymatgen
data_V35Zn35O128
_symmetry_space_group_name_H-M   'P 1'
_cell_length_a   16.85312092
_cell_length_b   16.92884885
_cell_length_c   16.89328284
_cell_angle_alpha   90.34782984
_cell_angle_beta   90.14427473
_cell_angle_gamma   89.81053033
_symmetry_Int_Tables_number   1
_chemical_formula_structural   V35Zn35O128
_chemical_formula_sum   'V70 Zn70 O256'
_cell_volume   4819.58989734
_cell_formula_units_Z   2
loop_
 _symmetry_equiv_pos_site_id
 _symmetry_equiv_pos_as_xyz
  1  'x, y, z'
loop_
 _atom_site_type_symbol
 _atom_site_label
 _atom_site_symmetry_multiplicity
 _atom_site_fract_x
 _atom_site_fract_y
 _atom_site_fract_z
 _atom_site_occupancy
  V  V0  1  0.36781598  0.50020614  0.87564868  1
  V  V1  1  0.25073981  0.24453964  -0.00996236  1
  V  V2  1  0.11605172  0.86326740  0.25642304  1
  V  V3  1  0.64543960  0.00615893  0.11840425  1
  V  V4  1  0.37553570  0.87174442  -0.00546433  1
  V  V5  1  0.13231578  0.11882274  0.49307166  1
  V  V6  1  0.12231341  0.12589399  -0.01272153  1
  V  V7  1  0.12958464  0.34830027  0.26182909  1
  V  V8  1  0.87609770  0.73709084  0.12247115  1
  V  V9  1  0.38301053  0.62516160  0.24805415  1
  V  V10  1  0.50046141  0.76718548  0.25459007  1
  V  V11  1  0.26213626  0.00624341  0.25195774  1
  V  V12  1  0.63228739  0.24476285  0.37500132  1
  V  V13  1  0.37114571  0.00820164  0.86922665  1
  V  V14  1  0.25692717  0.37605676  0.12113145  1
  V  V15  1  -0.00560409  0.88417461  0.88250673  1
  V  V16  1  0.88420784  0.24577167  0.63480812  1
  V  V17  1  0.12120717  0.87266643  0.75118416  1
  V  V18  1  0.24529299  0.63027523  0.37486567  1
  V  V19  1  0.10960738  0.62386851  0.49941990  1
  V  V20  1  0.37951637  0.50529617  0.38609027  1
  V  V21  1  0.62131223  0.51068152  0.12778662  1
  V  V22  1  0.24966698  0.37699581  0.62239340  1
  V  V23  1  0.62351760  0.37736088  0.24884325  1
  V  V24  1  0.49348897  0.49956283  0.00829045  1
  V  V25  1  0.24830805  0.74084535  -0.00705706  1
  V  V26  1  0.12068957  0.73425404  0.87422921  1
  V  V27  1  0.87117704  0.89385276  0.51574503  1
  V  V28  1  0.62133056  0.63058540  -0.01191859  1
  V  V29  1  0.51702420  0.37515985  0.87973872  1
  V  V30  1  0.60589267  0.11587994  0.50148066  1
  V  V31  1  0.63777742  0.38296159  0.73295162  1
  V  V32  1  0.00762993  0.37289957  0.88873070  1
  V  V33  1  0.11346722  0.61527923  0.01588725  1
  V  V34  1  0.74811512  0.24855818  0.52207029  1
  V  V35  1  0.24630188  0.00006818  0.75742100  1
  V  V36  1  0.38296986  0.88085397  0.49239173  1
  V  V37  1  0.49606605  0.24420514  0.74054815  1
  V  V38  1  0.87088073  0.88642724  0.00204859  1
  V  V39  1  0.89038749  0.63017530  0.25313927  1
  V  V40  1  0.87005802  0.39858665  0.50237975  1
  V  V41  1  0.11242585  -0.00199626  0.11917719  1
  V  V42  1  0.50157162  0.01324880  0.00275294  1
  V  V43  1  0.49565659  0.24156890  0.24373203  1
  V  V44  1  0.38116965  0.74490971  0.12261650  1
  V  V45  1  0.50235396  0.85650132  0.86943907  1
  V  V46  1  0.75296064  0.23768761  -0.02072893  1
  V  V47  1  0.38956643  0.74148123  0.62893617  1
  V  V48  1  -0.01587650  0.73484774  0.74104103  1
  V  V49  1  0.24424211  0.51223824  0.75062132  1
  V  V50  1  -0.00191111  0.14692960  0.12719119  1
  V  V51  1  -0.01447073  0.87505308  0.38188086  1
  V  V52  1  0.61038910  0.00822648  0.63772630  1
  V  V53  1  0.24389506  0.74788905  0.49993269  1
  V  V54  1  0.87777746  0.50405546  0.86976058  1
  V  V55  1  0.24351318  0.86985300  0.62873687  1
  V  V56  1  0.24719152  0.87495173  0.12173595  1
  V  V57  1  0.49799728  0.37976051  0.37908705  1
  V  V58  1  0.88510469  0.13709652  0.26785398  1
  V  V59  1  0.74785490  0.74408977  -0.00796617  1
  V  V60  1  0.76938370  -0.00016641  0.27285129  1
  V  V61  1  0.10768022  0.50371881  0.62378757  1
  V  V62  1  0.62669059  0.85246862  0.74916866  1
  V  V63  1  0.24489672  0.49839330  0.24969900  1
  V  V64  1  0.76281328  0.75049898  0.51915732  1
  V  V65  1  0.62891460  0.76751072  0.38524566  1
  V  V66  1  0.77051710  0.36745492  0.13434398  1
  V  V67  1  0.74575414  0.51795023  0.25937229  1
  V  V68  1  0.37590918  0.36433358  0.50747991  1
  V  V69  1  0.38082492  0.23624767  0.11927345  1
  Zn  Zn70  1  0.00472250  0.38230788  0.38871856  1
  Zn  Zn71  1  0.74533580  0.00224057  0.74456350  1
  Zn  Zn72  1  0.86686268  0.11854181  0.76201172  1
  Zn  Zn73  1  0.11783731  0.34449182  0.75280485  1
  Zn  Zn74  1  0.38183778  0.63053292  0.75117202  1
  Zn  Zn75  1  0.64347801  0.87711339  0.24372129  1
  Zn  Zn76  1  0.19235910  0.18427896  0.18059374  1
  Zn  Zn77  1  0.21269133  0.18109674  0.68057735  1
  Zn  Zn78  1  0.19180727  0.68506030  0.18593341  1
  Zn  Zn79  1  0.18186051  0.68662832  0.68409111  1
  Zn  Zn80  1  0.69792208  0.17773193  0.18520788  1
  Zn  Zn81  1  0.69167059  0.20667640  0.78621482  1
  Zn  Zn82  1  0.68776765  0.69812939  0.17704984  1
  Zn  Zn83  1  0.67455681  0.67877240  0.67141644  1
  Zn  Zn84  1  0.31247665  0.30358544  0.31655994  1
  Zn  Zn85  1  0.31534715  0.32515982  0.81070340  1
  Zn  Zn86  1  0.30823076  0.81616440  0.30923600  1
  Zn  Zn87  1  0.31170940  0.80586677  0.81181058  1
  Zn  Zn88  1  0.81494878  0.31845003  0.31575562  1
  Zn  Zn89  1  0.82393412  0.33047160  0.81747304  1
  Zn  Zn90  1  0.81237734  0.81004800  0.31156464  1
  Zn  Zn91  1  0.80752219  0.81006855  0.81559716  1
  Zn  Zn92  1  0.19062455  0.44408937  0.43886747  1
  Zn  Zn93  1  0.18089231  0.43451904  0.94023064  1
  Zn  Zn94  1  0.19906160  0.93215657  0.42914609  1
  Zn  Zn95  1  0.18020640  0.93463594  0.93568055  1
  Zn  Zn96  1  0.69033326  0.43194664  0.44232179  1
  Zn  Zn97  1  0.70168596  0.43508943  0.95315007  1
  Zn  Zn98  1  0.69120658  0.93750101  0.44200423  1
  Zn  Zn99  1  0.68297787  0.92919016  0.94023487  1
  Zn  Zn100  1  0.30995453  0.06120268  0.06051445  1
  Zn  Zn101  1  0.31424389  0.05446993  0.57175472  1
  Zn  Zn102  1  0.30649751  0.56215938  0.06408449  1
  Zn  Zn103  1  0.30873687  0.56410625  0.56549879  1
  Zn  Zn104  1  0.82140019  0.07541277  0.05700712  1
  Zn  Zn105  1  0.79378077  0.07192624  0.57313208  1
  Zn  Zn106  1  0.80549705  0.55271248  0.05583258  1
  Zn  Zn107  1  0.80661942  0.57747414  0.42853239  1
  Zn  Zn108  1  0.43318398  0.43348402  0.18937234  1
  Zn  Zn109  1  0.43698465  0.43434374  0.69758722  1
  Zn  Zn110  1  0.43877542  0.94004637  0.17788228  1
  Zn  Zn111  1  0.43532658  0.92795563  0.68524819  1
  Zn  Zn112  1  0.94231145  0.43416356  0.23166354  1
  Zn  Zn113  1  0.92569445  0.42215389  0.69751601  1
  Zn  Zn114  1  0.93086985  0.93083843  0.18524512  1
  Zn  Zn115  1  0.92101412  0.92340611  0.70924895  1
  Zn  Zn116  1  0.05889137  0.04928994  0.30208145  1
  Zn  Zn117  1  0.04976012  0.18769530  0.80422540  1
  Zn  Zn118  1  0.05933314  0.55639970  0.31712439  1
  Zn  Zn119  1  0.05387752  0.55350306  0.81350974  1
  Zn  Zn120  1  0.58263018  0.07085274  0.29168252  1
  Zn  Zn121  1  0.55406801  0.05901920  0.82043526  1
  Zn  Zn122  1  0.56168924  0.56853077  0.31584384  1
  Zn  Zn123  1  0.57105869  0.54875871  0.81692321  1
  Zn  Zn124  1  0.42555588  0.19108235  0.42597791  1
  Zn  Zn125  1  0.43290192  0.19227295  0.92750819  1
  Zn  Zn126  1  0.43798940  0.69929950  0.43461730  1
  Zn  Zn127  1  0.43836984  0.67797868  0.93921410  1
  Zn  Zn128  1  0.94292285  0.20009911  0.44658118  1
  Zn  Zn129  1  0.93363722  0.19489557  0.93320960  1
  Zn  Zn130  1  0.93961642  0.70652493  0.43067639  1
  Zn  Zn131  1  0.93599541  0.68035117  0.93251874  1
  Zn  Zn132  1  0.07339675  0.31895990  0.06755104  1
  Zn  Zn133  1  0.04347147  0.32836047  0.55409341  1
  Zn  Zn134  1  0.05668309  0.80486760  0.06246620  1
  Zn  Zn135  1  0.05264128  0.81082451  0.56149970  1
  Zn  Zn136  1  0.57004453  0.31043892  0.06099784  1
  Zn  Zn137  1  0.55903314  0.31016976  0.56582800  1
  Zn  Zn138  1  0.56592354  0.82123639  0.06565461  1
  Zn  Zn139  1  0.56322858  0.82078874  0.56407098  1
  O  O140  1  0.11448174  0.11117641  0.12572373  1
  O  O141  1  0.13941518  0.12051499  0.59625079  1
  O  O142  1  0.12437191  0.63001886  0.11574987  1
  O  O143  1  0.12359498  0.61548962  0.61172981  1
  O  O144  1  0.62431298  0.10620630  0.13437590  1
  O  O145  1  0.60379676  0.11151218  0.60878277  1
  O  O146  1  0.62248376  0.61319348  0.12427656  1
  O  O147  1  0.61984792  0.59875212  0.60446511  1
  O  O148  1  0.37820787  0.38426391  0.38853172  1
  O  O149  1  0.38923288  0.39667510  0.87415086  1
  O  O150  1  0.36324603  0.86744175  0.39313744  1
  O  O151  1  0.38180804  0.87224476  0.88182113  1
  O  O152  1  0.87876675  0.36215241  0.39882402  1
  O  O153  1  0.89734217  0.38156009  0.88794016  1
  O  O154  1  0.88133848  0.87285637  0.38099472  1
  O  O155  1  0.88501756  0.86567714  0.88739504  1
  O  O156  1  0.25265051  -0.00809485  0.35193740  1
  O  O157  1  0.26265209  -0.01648227  0.86936505  1
  O  O158  1  0.26146763  0.51161431  0.36896523  1
  O  O159  1  0.26002998  0.49468354  0.86636870  1
  O  O160  1  0.75621347  0.00474690  0.37087148  1
  O  O161  1  0.71124562  0.02813388  0.87839851  1
  O  O162  1  0.73735115  0.50600599  0.36381912  1
  O  O163  1  0.80093319  0.49550273  0.94859003  1
  O  O164  1  0.26200587  0.48366880  0.13390377  1
  O  O165  1  0.24390447  0.49974069  0.63704505  1
  O  O166  1  0.24443084  0.98642440  0.12251677  1
  O  O167  1  0.25604967  0.97868944  0.64595790  1
  O  O168  1  0.73835498  0.49122431  0.13744879  1
  O  O169  1  0.66351317  0.54007444  0.57225058  1
  O  O170  1  0.74475256  1.00159303  0.10928589  1
  O  O171  1  0.71660669  0.99867369  0.62066365  1
  O  O172  1  0.02947390  0.35243942  0.24418211  1
  O  O173  1  0.00521375  0.37701921  0.76561791  1
  O  O174  1  0.01106388  0.87517214  0.25087871  1
  O  O175  1  0.00441800  0.86122393  0.76358110  1
  O  O176  1  0.50658424  0.37123647  0.25698544  1
  O  O177  1  0.51050545  0.37931104  0.76755674  1
  O  O178  1  0.49337737  0.86695653  0.24577884  1
  O  O179  1  0.50691024  0.87126588  0.76351745  1
  O  O180  1  0.50247506  0.14295061  0.25192535  1
  O  O181  1  0.50704006  0.14778742  0.77289006  1
  O  O182  1  0.48713628  0.63697617  0.25439715  1
  O  O183  1  0.50013526  0.58888108  0.72577681  1
  O  O184  1  0.99604629  0.12133267  0.23716701  1
  O  O185  1  1.00874910  0.07732741  0.68598440  1
  O  O186  1  0.98860007  0.62345773  0.24708412  1
  O  O187  1  1.00201925  0.63615169  0.75229469  1
  O  O188  1  0.36522465  0.24538776  0.00957477  1
  O  O189  1  0.37575395  0.26735062  0.51090123  1
  O  O190  1  0.36926426  0.75148727  0.00265414  1
  O  O191  1  0.36408723  0.75319007  0.50947756  1
  O  O192  1  0.85740545  0.24792174  -0.00278435  1
  O  O193  1  0.85562306  0.23648990  0.51314843  1
  O  O194  1  0.86078692  0.73809904  0.00572767  1
  O  O195  1  0.86693875  0.75921784  0.50271765  1
  O  O196  1  0.15066008  0.22017787  0.48651247  1
  O  O197  1  0.14186296  0.23698569  1.01021166  1
  O  O198  1  0.13296613  0.73514510  0.50811464  1
  O  O199  1  0.12911167  0.74208007  0.99060304  1
  O  O200  1  0.62697671  0.25292045  0.48642742  1
  O  O201  1  0.65448075  0.26101716  1.00952003  1
  O  O202  1  0.64015781  0.77281332  0.48951977  1
  O  O203  1  0.62955548  0.73974976  1.00970550  1
  O  O204  1  0.49278532  0.25657393  0.13063870  1
  O  O205  1  0.49875028  0.24804386  0.63943349  1
  O  O206  1  0.48594265  0.75678874  0.13017698  1
  O  O207  1  0.48895744  0.74716378  0.61719815  1
  O  O208  1  1.00902614  0.24471679  0.12881247  1
  O  O209  1  0.98481183  0.25414150  0.61839142  1
  O  O210  1  0.97680070  0.74528662  0.11712162  1
  O  O211  1  1.00281920  0.75039696  0.64286848  1
  O  O212  1  0.02212958  0.28160505  0.44369024  1
  O  O213  1  0.01566418  0.26877834  0.88729764  1
  O  O214  1  0.00913964  0.77386039  0.37298499  1
  O  O215  1  0.01142071  0.74888220  0.86937782  1
  O  O216  1  0.50294240  0.26358004  0.36066795  1
  O  O217  1  0.49952432  0.27578427  0.89159645  1
  O  O218  1  0.50640034  0.76216962  0.35959105  1
  O  O219  1  0.49441390  0.75787872  0.87851350  1
  O  O220  1  0.23759473  0.10573642  0.48113802  1
  O  O221  1  0.24200864  0.13522846  1.00108077  1
  O  O222  1  0.24485026  0.63144721  0.49160508  1
  O  O223  1  0.24314096  0.63764426  1.00418660  1
  O  O224  1  0.72227403  0.14204459  0.50558699  1
  O  O225  1  0.75010115  0.13744307  0.99759193  1
  O  O226  1  0.74954700  0.65445897  0.48954736  1
  O  O227  1  0.73119172  0.63328019  1.00669167  1
  O  O228  1  0.24092555  0.36342984  0.01609791  1
  O  O229  1  0.26527740  0.38901821  0.50917184  1
  O  O230  1  0.25654767  0.86529620  0.00235935  1
  O  O231  1  0.24615981  0.86340171  0.50996716  1
  O  O232  1  0.75898983  0.36878483  0.03169344  1
  O  O233  1  0.75427939  0.35479277  0.49464292  1
  O  O234  1  0.76157556  0.86182337  -0.00972180  1
  O  O235  1  0.76447247  0.86539061  0.49374259  1
  O  O236  1  0.14465666  0.50540426  0.25019213  1
  O  O237  1  0.13433389  0.50924601  0.73750288  1
  O  O238  1  0.13321510  0.98597798  0.23082400  1
  O  O239  1  0.13857023  0.97594372  0.76397266  1
  O  O240  1  0.62483382  0.49756467  0.24727360  1
  O  O241  1  0.63787217  0.48454259  0.75542609  1
  O  O242  1  0.65347833  1.00141616  0.24040007  1
  O  O243  1  0.61818052  1.00209328  0.74293446  1
  O  O244  1  0.36193765  -0.00696200  0.23743435  1
  O  O245  1  0.36513318  -0.01258844  0.76260736  1
  O  O246  1  0.37045506  0.50885741  0.25788267  1
  O  O247  1  0.36079413  0.50259622  0.75920369  1
  O  O248  1  0.87381132  0.00741467  0.24924685  1
  O  O249  1  0.85852270  0.00060224  0.75510087  1
  O  O250  1  0.85263509  0.52362476  0.24572444  1
  O  O251  1  0.85330935  0.47650634  0.77387792  1
  O  O252  1  0.13091995  0.38406114  0.36303199  1
  O  O253  1  0.11653078  0.39142510  0.86080332  1
  O  O254  1  0.12996758  0.87198688  0.35732577  1
  O  O255  1  0.11280754  0.86165183  0.87431415  1
  O  O256  1  0.61582503  0.37044574  0.36885020  1
  O  O257  1  0.61921106  0.38945574  0.88422908  1
  O  O258  1  0.62621361  0.87024548  0.36493604  1
  O  O259  1  0.60760940  0.87243761  0.87144555  1
  O  O260  1  0.37462820  0.13726918  0.12228984  1
  O  O261  1  0.31057188  0.14530413  0.63012193  1
  O  O262  1  0.36541396  0.63526748  0.13541342  1
  O  O263  1  0.37161254  0.63825483  0.62529632  1
  O  O264  1  0.89662818  0.12600067  0.12585691  1
  O  O265  1  0.86699018  0.14029882  0.63522343  1
  O  O266  1  0.86381080  0.63020903  0.13223743  1
  O  O267  1  0.82101091  0.59837457  0.68530941  1
  O  O268  1  0.26572994  0.25480562  0.12081892  1
  O  O269  1  0.24304200  0.28029573  0.62625629  1
  O  O270  1  0.25917600  0.75875439  0.11492453  1
  O  O271  1  0.25322673  0.75284151  0.61721552  1
  O  O272  1  0.75215426  0.26924358  0.15166575  1
  O  O273  1  0.74794277  0.25478555  0.61952513  1
  O  O274  1  0.75966873  0.75460462  0.11066502  1
  O  O275  1  0.74794371  0.74741643  0.61855985  1
  O  O276  1  0.32942777  0.20812526  0.37182751  1
  O  O277  1  0.25883754  0.26267154  0.89254799  1
  O  O278  1  0.25303787  0.73789630  0.38300782  1
  O  O279  1  0.23543516  0.75436995  0.88316219  1
  O  O280  1  0.73157025  0.25326463  0.36726321  1
  O  O281  1  0.75264864  0.25423520  0.87547171  1
  O  O282  1  0.72411136  0.74653359  0.35639372  1
  O  O283  1  0.74914880  0.74342213  0.89191327  1
  O  O284  1  0.01598599  0.13470785  0.01353049  1
  O  O285  1  0.02857924  0.12595630  0.50236707  1
  O  O286  1  0.01435409  0.62677379  -0.00172893  1
  O  O287  1  0.01160779  0.63149164  0.48765578  1
  O  O288  1  0.49775911  0.11055922  -0.01768936  1
  O  O289  1  0.50700578  0.13822733  0.48415891  1
  O  O290  1  0.51104668  0.61379278  0.00364314  1
  O  O291  1  0.53788797  0.63862042  0.45643093  1
  O  O292  1  0.48859216  0.37292412  0.49087935  1
  O  O293  1  0.50775607  0.39352273  0.99696313  1
  O  O294  1  0.48292710  0.86813603  0.49841766  1
  O  O295  1  0.48999157  0.87867561  0.99042309  1
  O  O296  1  0.97602699  0.41233107  0.50575916  1
  O  O297  1  1.02867072  0.38527858  0.99054989  1
  O  O298  1  0.98609424  0.87631472  0.49377391  1
  O  O299  1  0.98767081  0.86678211  0.99070452  1
  O  O300  1  0.49178497  0.48903896  0.36640627  1
  O  O301  1  0.49523900  0.49453491  0.88938917  1
  O  O302  1  0.49696782  0.99997969  0.35689839  1
  O  O303  1  0.48436274  0.98680702  0.88221641  1
  O  O304  1  0.98284010  0.47713958  0.33034340  1
  O  O305  1  0.98621356  0.49556353  0.88112912  1
  O  O306  1  1.00888408  0.97546088  0.36913760  1
  O  O307  1  1.00198581  0.97892255  0.87613295  1
  O  O308  1  0.01265806  -0.00699013  0.12045873  1
  O  O309  1  0.01309571  0.00881467  0.65925756  1
  O  O310  1  -0.01519053  0.49924655  0.12024956  1
  O  O311  1  0.01098280  0.49675359  0.63816011  1
  O  O312  1  0.48832667  0.00804728  0.10343961  1
  O  O313  1  0.51079969  -0.01610201  0.62230687  1
  O  O314  1  0.50245212  0.49505345  0.11551633  1
  O  O315  1  0.49602649  0.53564573  0.66632783  1
  O  O316  1  0.25273118  0.38082908  0.25181944  1
  O  O317  1  0.24596899  0.38931584  0.73735208  1
  O  O318  1  0.24158981  0.87754944  0.23486780  1
  O  O319  1  0.23994672  0.86696783  0.74518461  1
  O  O320  1  0.73921602  0.39127422  0.25307875  1
  O  O321  1  0.73458132  0.35904008  0.74848042  1
  O  O322  1  0.76242547  0.89456130  0.25041548  1
  O  O323  1  0.72658317  0.88133854  0.77225635  1
  O  O324  1  0.24739235  0.10456730  0.23703221  1
  O  O325  1  0.23651628  0.09705287  0.75912792  1
  O  O326  1  0.25937226  0.62128032  0.25733547  1
  O  O327  1  0.25128646  0.61465891  0.74854156  1
  O  O328  1  0.77410990  0.11306703  0.24760529  1
  O  O329  1  0.75151827  0.12149089  0.75150968  1
  O  O330  1  0.73089049  0.61698091  0.25023766  1
  O  O331  1  0.76238285  0.60766624  0.72902484  1
  O  O332  1  0.43607601  0.03785706  0.37547122  1
  O  O333  1  0.37122730  0.10660716  0.87560555  1
  O  O334  1  0.36881431  0.62326258  0.36803038  1
  O  O335  1  0.38599756  0.60802408  0.86647357  1
  O  O336  1  0.90141973  0.12915438  0.36693677  1
  O  O337  1  0.95045883  0.14112101  0.83286007  1
  O  O338  1  0.87533004  0.63780523  0.35841315  1
  O  O339  1  0.87704397  0.60635735  0.87023865  1
  O  O340  1  0.15038829  0.36269797  0.14696556  1
  O  O341  1  0.13288445  0.39206947  0.61226529  1
  O  O342  1  0.13017891  0.88129686  0.11738863  1
  O  O343  1  0.13107244  0.86339059  0.63725217  1
  O  O344  1  0.62487553  0.38642318  0.14012924  1
  O  O345  1  0.61693554  0.38161921  0.63286304  1
  O  O346  1  0.61299875  0.89996786  0.13324256  1
  O  O347  1  0.61982978  0.87703346  0.64751247  1
  O  O348  1  0.15221318  0.25050587  0.26602492  1
  O  O349  1  0.12718431  0.23129339  0.73680517  1
  O  O350  1  0.13058167  0.76571091  0.23693358  1
  O  O351  1  0.12274419  0.75184376  0.76317482  1
  O  O352  1  0.61512428  0.25813433  0.25650116  1
  O  O353  1  0.60526689  0.27326823  0.76159198  1
  O  O354  1  0.60751935  0.75510430  0.24308322  1
  O  O355  1  0.62845092  0.75227236  0.74633776  1
  O  O356  1  0.38961572  0.25542200  0.23515099  1
  O  O357  1  0.39605733  0.26415735  0.76104923  1
  O  O358  1  0.38118326  0.74696849  0.24312884  1
  O  O359  1  0.37523083  0.74797869  0.73577971  1
  O  O360  1  0.87556126  0.23647226  0.25942452  1
  O  O361  1  0.87359112  0.26379522  0.73466009  1
  O  O362  1  0.86535445  0.73758889  0.23539166  1
  O  O363  1  0.88449593  0.75127094  0.75528371  1
  O  O364  1  0.37655377  0.50887126  0.48791919  1
  O  O365  1  0.38490041  0.51050494  0.99248638  1
  O  O366  1  0.36594457  0.98019608  0.51017383  1
  O  O367  1  0.37714129  0.99012610  0.98883462  1
  O  O368  1  0.83691356  0.49323117  0.49940813  1
  O  O369  1  0.93835842  0.49685131  1.06277334  1
  O  O370  1  0.85984586  0.99315530  0.51171759  1
  O  O371  1  0.86976582  0.98459309  1.00186757  1
  O  O372  1  0.13458751  0.01313024  0.00988467  1
  O  O373  1  0.13249611  0.01213524  0.49307460  1
  O  O374  1  0.13848778  0.51865283  0.00166194  1
  O  O375  1  0.12499054  0.51287000  0.51065955  1
  O  O376  1  0.60984977  -0.00698693  0.00921035  1
  O  O377  1  0.61734831  0.01457993  0.48854760  1
  O  O378  1  0.61885493  0.51177078  0.00833024  1
  O  O379  1  0.62601134  0.50655332  0.51046801  1
  O  O380  1  0.36378020  0.36372468  0.12765250  1
  O  O381  1  0.36814209  0.39191583  0.61448077  1
  O  O382  1  0.36752541  0.86650288  0.11060594  1
  O  O383  1  0.36458644  0.85857276  0.61848344  1
  O  O384  1  0.86751675  0.38300834  0.15911606  1
  O  O385  1  0.87044737  0.36491130  0.60821616  1
  O  O386  1  0.87749773  0.86234719  0.10645245  1
  O  O387  1  0.88166191  0.87733679  0.61408928  1
  O  O388  1  0.11614048  0.11409914  0.38814188  1
  O  O389  1  0.11853868  0.12450441  0.89025486  1
  O  O390  1  0.13468812  0.61311380  0.38743174  1
  O  O391  1  0.12430440  0.63351976  0.87934033  1
  O  O392  1  0.61998894  0.14143378  0.37662980  1
  O  O393  1  0.65618982  0.08407978  0.88329942  1
  O  O394  1  0.59563511  0.64762183  0.39737367  1
  O  O395  1  0.61981250  0.62513780  0.88856352  1
