# generated using pymatgen
data_V35Zn35O128
_symmetry_space_group_name_H-M   'P 1'
_cell_length_a   16.94860380
_cell_length_b   16.89453194
_cell_length_c   16.89618104
_cell_angle_alpha   90.19721988
_cell_angle_beta   89.99495390
_cell_angle_gamma   90.45334741
_symmetry_Int_Tables_number   1
_chemical_formula_structural   V35Zn35O128
_chemical_formula_sum   'V70 Zn70 O256'
_cell_volume   4837.85087436
_cell_formula_units_Z   2
loop_
 _symmetry_equiv_pos_site_id
 _symmetry_equiv_pos_as_xyz
  1  'x, y, z'
loop_
 _atom_site_type_symbol
 _atom_site_label
 _atom_site_symmetry_multiplicity
 _atom_site_fract_x
 _atom_site_fract_y
 _atom_site_fract_z
 _atom_site_occupancy
  V  V0  1  0.40098447  -0.01409784  0.87007758  1
  V  V1  1  0.61088183  0.37331222  0.25404987  1
  V  V2  1  0.50665758  -0.01102658  0.49730726  1
  V  V3  1  0.09922297  0.25717041  0.37820959  1
  V  V4  1  0.12133870  0.50069026  0.12159066  1
  V  V5  1  0.25640140  0.02777940  0.25741591  1
  V  V6  1  0.10332464  0.36566270  0.24474602  1
  V  V7  1  0.25019392  0.74562043  -0.01020429  1
  V  V8  1  0.49460821  0.13692118  0.11793086  1
  V  V9  1  0.61627363  0.12039032  -0.00087291  1
  V  V10  1  0.74981867  0.25389770  0.00372169  1
  V  V11  1  0.14540191  0.38081212  0.74311418  1
  V  V12  1  0.13763428  -0.00443318  0.60984823  1
  V  V13  1  0.36318992  0.37312348  -0.00121398  1
  V  V14  1  0.51155798  0.64761699  0.14249831  1
  V  V15  1  0.23741112  0.63055838  0.36870346  1
  V  V16  1  0.75441831  0.87895167  0.11967951  1
  V  V17  1  0.14730432  0.24576650  0.88107010  1
  V  V18  1  0.63237297  -0.01626869  0.63406953  1
  V  V19  1  0.02116921  0.73044811  0.76861409  1
  V  V20  1  0.61537934  0.25310105  0.37662123  1
  V  V21  1  0.73787310  0.00015492  0.24643136  1
  V  V22  1  0.38678183  0.48963275  0.36998253  1
  V  V23  1  0.86622224  0.50463207  0.87117644  1
  V  V24  1  0.49799935  0.39142213  0.87527197  1
  V  V25  1  0.87835278  0.74856761  0.64254835  1
  V  V26  1  0.88541319  0.38333266  0.50825995  1
  V  V27  1  0.00557913  0.13265281  0.09397968  1
  V  V28  1  0.50362273  0.49891958  0.02857857  1
  V  V29  1  0.49065105  0.23875342  0.75183541  1
  V  V30  1  0.25148497  0.09956453  0.86647175  1
  V  V31  1  -0.00211320  0.88090571  0.33658791  1
  V  V32  1  0.38509975  0.87359765  0.00733391  1
  V  V33  1  0.25472346  0.47485787  0.24551931  1
  V  V34  1  0.43989656  0.20924486  0.29277256  1
  V  V35  1  0.62760936  0.39361564  0.74095552  1
  V  V36  1  0.27372321  0.25571801  0.50819108  1
  V  V37  1  0.88262203  0.13435294  0.25073229  1
  V  V38  1  0.50508607  0.50679107  0.51483382  1
  V  V39  1  0.62828544  0.63424655  -0.04504280  1
  V  V40  1  0.62191695  0.62738733  0.50683857  1
  V  V41  1  0.08516559  0.13350718  0.49901484  1
  V  V42  1  0.86446324  -0.00515784  0.36968094  1
  V  V43  1  0.35710814  0.24498203  0.11321550  1
  V  V44  1  0.00003109  0.36301544  0.86908555  1
  V  V45  1  0.60892510  -0.00194049  0.12505766  1
  V  V46  1  0.74026540  0.26386761  0.50860708  1
  V  V47  1  0.24880870  0.60602584  0.87621641  1
  V  V48  1  0.88111740  0.49539920  0.37573318  1
  V  V49  1  0.37748995  0.64466242  0.25245189  1
  V  V50  1  0.74502746  0.50120254  0.24285870  1
  V  V51  1  0.75804920  0.12174849  0.86989667  1
  V  V52  1  0.74346047  0.37215894  0.12654732  1
  V  V53  1  0.37640399  0.39054952  0.52236851  1
  V  V54  1  0.49573390  0.87249314  0.36267464  1
  V  V55  1  0.62119519  0.25100308  0.87317399  1
  V  V56  1  0.87979317  0.24314582  0.63714131  1
  V  V57  1  0.38471961  0.61978629  0.74786570  1
  V  V58  1  -0.00365516  0.89053487  0.86953450  1
  V  V59  1  0.40051569  0.75853371  0.62476698  1
  V  V60  1  0.76563678  -0.00824830  0.75025459  1
  V  V61  1  0.75154152  0.75517008  -0.00539767  1
  V  V62  1  0.50460189  0.12403664  0.62273589  1
  V  V63  1  0.76188677  0.76915292  0.49515281  1
  V  V64  1  0.12423153  0.00760160  0.12114620  1
  V  V65  1  0.24957590  0.87357610  0.14734827  1
  V  V66  1  0.62427831  0.75597335  0.35985037  1
  V  V67  1  0.73982412  0.12920831  0.38022406  1
  V  V68  1  0.75315722  0.61975041  0.38007067  1
  V  V69  1  -0.01745147  -0.01973925  0.49871371  1
  Zn  Zn70  1  0.34202728  0.88678368  0.50184355  1
  Zn  Zn71  1  0.88951995  0.72857165  0.13427111  1
  Zn  Zn72  1  0.12795009  0.64087657  0.51631816  1
  Zn  Zn73  1  0.88676687  0.25909835  0.13582810  1
  Zn  Zn74  1  -0.00193731  0.50305468  0.00360376  1
  Zn  Zn75  1  0.88660867  0.37239221  0.00345077  1
  Zn  Zn76  1  0.17716644  0.19131952  0.18740839  1
  Zn  Zn77  1  0.19497091  0.19659953  0.69809039  1
  Zn  Zn78  1  0.20916892  0.66930477  0.17506268  1
  Zn  Zn79  1  0.19579915  0.67604883  0.69881570  1
  Zn  Zn80  1  0.68204561  0.18825660  0.19170428  1
  Zn  Zn81  1  0.68124288  0.18531208  0.69079185  1
  Zn  Zn82  1  0.70777317  0.69457220  0.19027055  1
  Zn  Zn83  1  0.69060631  0.70697161  0.67480007  1
  Zn  Zn84  1  0.25401045  0.13850958  0.37836566  1
  Zn  Zn85  1  0.31584591  0.31894763  0.80948251  1
  Zn  Zn86  1  0.28692171  0.83709969  0.34450010  1
  Zn  Zn87  1  0.34866207  0.77956692  0.83509349  1
  Zn  Zn88  1  0.80573204  0.31617473  0.31697780  1
  Zn  Zn89  1  0.80683649  0.32577312  0.81212019  1
  Zn  Zn90  1  0.84164079  0.78580107  0.30916588  1
  Zn  Zn91  1  0.82239471  0.81704947  0.81562398  1
  Zn  Zn92  1  0.20349706  0.42110157  0.42143769  1
  Zn  Zn93  1  0.18427468  0.43986144  0.93097849  1
  Zn  Zn94  1  0.16914684  0.94417429  0.42609822  1
  Zn  Zn95  1  0.19091150  0.93120079  0.94872994  1
  Zn  Zn96  1  0.68408156  0.43837787  0.43866014  1
  Zn  Zn97  1  0.67838668  0.44462613  0.94021489  1
  Zn  Zn98  1  0.67794233  0.94242723  0.43637678  1
  Zn  Zn99  1  0.82443738  0.94721574  0.95231783  1
  Zn  Zn100  1  0.30611908  0.05872101  0.05081976  1
  Zn  Zn101  1  0.32471846  0.06805570  0.56659171  1
  Zn  Zn102  1  0.31902271  0.55912951  0.06834022  1
  Zn  Zn103  1  0.32800115  0.61499565  0.53827958  1
  Zn  Zn104  1  0.80685237  0.07637926  0.06637898  1
  Zn  Zn105  1  0.80910316  0.06332412  0.56163915  1
  Zn  Zn106  1  0.81083108  0.56583541  0.03782997  1
  Zn  Zn107  1  0.95570040  0.57468201  0.55663332  1
  Zn  Zn108  1  0.43003282  0.41590696  0.18910158  1
  Zn  Zn109  1  0.45084096  0.44846227  0.69761226  1
  Zn  Zn110  1  0.42712608  0.94750619  0.19097703  1
  Zn  Zn111  1  0.41593848  0.95938049  0.66578904  1
  Zn  Zn112  1  0.92965807  0.44415932  0.18732902  1
  Zn  Zn113  1  0.94196176  0.43933460  0.69248258  1
  Zn  Zn114  1  0.92130603  0.95833012  0.15071182  1
  Zn  Zn115  1  0.94232549  0.92491231  0.68543882  1
  Zn  Zn116  1  0.06488355  0.06073105  0.31155416  1
  Zn  Zn117  1  0.07686351  0.06147448  0.79651277  1
  Zn  Zn118  1  0.06091911  0.56231963  0.29472789  1
  Zn  Zn119  1  0.06439091  0.54979875  0.82126791  1
  Zn  Zn120  1  0.55686251  0.06515179  0.31218995  1
  Zn  Zn121  1  0.57169029  0.05631514  0.81154907  1
  Zn  Zn122  1  0.56584312  0.56491654  0.31343825  1
  Zn  Zn123  1  0.56836330  0.59081481  0.80550016  1
  Zn  Zn124  1  0.42469135  0.18019995  0.46128036  1
  Zn  Zn125  1  0.42420849  0.17759435  0.93237197  1
  Zn  Zn126  1  0.43717807  0.69157205  0.43096221  1
  Zn  Zn127  1  0.42831138  0.67357260  0.95454733  1
  Zn  Zn128  1  0.91889086  0.19290936  0.43797073  1
  Zn  Zn129  1  0.96709812  0.15413933  0.88619820  1
  Zn  Zn130  1  0.95755236  0.71034710  0.43287056  1
  Zn  Zn131  1  0.92661925  0.69079455  0.93909524  1
  Zn  Zn132  1  0.07033653  0.31290159  0.05480109  1
  Zn  Zn133  1  0.05238705  0.32083633  0.57499558  1
  Zn  Zn134  1  0.08432495  0.80540725  0.07458246  1
  Zn  Zn135  1  0.08940155  0.79211503  0.61577256  1
  Zn  Zn136  1  0.56343755  0.31273281  0.06268186  1
  Zn  Zn137  1  0.55596555  0.31531540  0.56501657  1
  Zn  Zn138  1  0.57321119  0.80623606  0.05740340  1
  Zn  Zn139  1  0.57398369  0.81210473  0.55559849  1
  O  O140  1  0.11199047  0.12768496  0.11675144  1
  O  O141  1  0.12515994  0.11662625  0.59205036  1
  O  O142  1  0.12932217  0.60066708  0.14063641  1
  O  O143  1  0.14833596  0.55106330  0.60431954  1
  O  O144  1  0.61280524  0.12854047  0.11669432  1
  O  O145  1  0.60989615  0.11066483  0.63584159  1
  O  O146  1  0.61000524  0.63197506  0.14159722  1
  O  O147  1  0.63078059  0.63310002  0.60582019  1
  O  O148  1  0.37652354  0.39338958  0.39258829  1
  O  O149  1  0.39238851  0.36596398  0.88943860  1
  O  O150  1  0.39723799  0.86331346  0.38733120  1
  O  O151  1  0.37890658  0.87311977  0.89444108  1
  O  O152  1  0.86450290  0.38867473  0.38537097  1
  O  O153  1  0.89017138  0.36978319  0.87848854  1
  O  O154  1  0.85975075  0.89528975  0.35187845  1
  O  O155  1  0.88991258  0.88589441  0.88256915  1
  O  O156  1  0.23798223  0.01963676  0.36201156  1
  O  O157  1  0.23449653  -0.00217421  0.86639909  1
  O  O158  1  0.26075293  0.50194424  0.35897257  1
  O  O159  1  0.26808335  0.50873640  0.88727589  1
  O  O160  1  0.74399613  0.01083028  0.36737186  1
  O  O161  1  0.76111547  0.01443913  0.87001713  1
  O  O162  1  0.75131163  0.50650007  0.37079216  1
  O  O163  1  0.76668804  0.47932682  0.88215098  1
  O  O164  1  0.24588588  0.49574471  0.13990915  1
  O  O165  1  0.16847817  0.48645614  0.56769533  1
  O  O166  1  0.24283819  1.00715042  0.13618362  1
  O  O167  1  0.23774789  1.00173608  0.59193357  1
  O  O168  1  0.74899872  0.49334270  0.13874810  1
  O  O169  1  0.76200781  0.54167175  0.69263520  1
  O  O170  1  0.73192762  0.99893320  0.12812224  1
  O  O171  1  0.74039732  1.00779209  0.63672675  1
  O  O172  1  0.00489518  0.37328456  0.24680858  1
  O  O173  1  0.00690243  0.37524496  0.76692563  1
  O  O174  1  -0.01665651  0.90241029  0.24023051  1
  O  O175  1  0.00684474  0.87179865  0.76704967  1
  O  O176  1  0.51164600  0.37019552  0.25296704  1
  O  O177  1  0.50252449  0.36648507  0.76419815  1
  O  O178  1  0.49322786  0.88845084  0.26420548  1
  O  O179  1  0.59276753  0.80575998  0.76599936  1
  O  O180  1  0.49338222  0.13616511  0.24237597  1
  O  O181  1  0.50637134  0.13624084  0.75155684  1
  O  O182  1  0.48879410  0.62171030  0.24797019  1
  O  O183  1  0.48455902  0.63751387  0.74664516  1
  O  O184  1  0.98131190  0.12560497  0.26064969  1
  O  O185  1  0.98456304  0.12149967  0.78087757  1
  O  O186  1  0.99723049  0.65307641  0.23595174  1
  O  O187  1  1.00784718  0.63105879  0.76646450  1
  O  O188  1  0.37736057  0.25950885  0.00384009  1
  O  O189  1  0.38337933  0.27984575  0.51048383  1
  O  O190  1  0.36492761  0.76122806  0.00474420  1
  O  O191  1  0.37423631  0.72876708  0.52057516  1
  O  O192  1  0.85148148  0.25780059  0.00641179  1
  O  O193  1  0.85601195  0.26419797  0.50290182  1
  O  O194  1  0.85405888  0.74473647  0.01996057  1
  O  O195  1  0.85876456  0.75645349  0.47518226  1
  O  O196  1  0.09321178  0.24150542  0.49442831  1
  O  O197  1  0.13496484  0.25533048  0.98189810  1
  O  O198  1  0.16554743  0.71208340  0.59869478  1
  O  O199  1  0.15804710  0.72930120  1.03102285  1
  O  O200  1  0.62763897  0.26117297  0.48806364  1
  O  O201  1  0.62628973  0.24317773  0.99148816  1
  O  O202  1  0.63818771  0.74065830  0.49026209  1
  O  O203  1  0.63354746  0.74137166  0.98593560  1
  O  O204  1  0.49347850  0.24127585  0.12100991  1
  O  O205  1  0.50423723  0.23451942  0.63629318  1
  O  O206  1  0.50338643  0.74529811  0.12925656  1
  O  O207  1  0.49996540  0.75742427  0.62503704  1
  O  O208  1  1.00076417  0.23693226  0.11473857  1
  O  O209  1  0.97946339  0.25119318  0.63030961  1
  O  O210  1  1.00594595  0.75689106  0.14873515  1
  O  O211  1  0.99298908  0.75283900  0.66482199  1
  O  O212  1  0.00047876  0.24892456  0.37313143  1
  O  O213  1  0.01392658  0.26055193  0.87994146  1
  O  O214  1  -0.04123282  0.77972434  0.34380545  1
  O  O215  1  -0.01777523  0.75737944  0.86529051  1
  O  O216  1  0.50653383  0.24625966  0.37333277  1
  O  O217  1  0.50646722  0.24697813  0.86833721  1
  O  O218  1  0.51409870  0.75966140  0.37623075  1
  O  O219  1  0.53458171  0.64980716  0.91090228  1
  O  O220  1  0.30772818  0.15035245  0.49053232  1
  O  O221  1  0.26094252  0.12343861  0.96852283  1
  O  O222  1  0.23586496  0.61116204  0.47460599  1
  O  O223  1  0.27994147  0.63510426  0.98800767  1
  O  O224  1  0.75185012  0.13832159  0.48478356  1
  O  O225  1  0.73650473  0.13541128  0.99464632  1
  O  O226  1  0.73505914  0.62322623  0.48364553  1
  O  O227  1  0.73188156  0.64297643  1.01611939  1
  O  O228  1  0.26681113  0.38052138  -0.00797000  1
  O  O229  1  0.27023617  0.37242431  0.50441950  1
  O  O230  1  0.25340918  0.85762396  0.01675102  1
  O  O231  1  0.24684595  0.86899619  0.44811408  1
  O  O232  1  0.72892432  0.36826717  0.01605380  1
  O  O233  1  0.74933734  0.36723517  0.50055380  1
  O  O234  1  0.74872410  0.87382249  0.01060796  1
  O  O235  1  0.74619349  0.86682606  0.48842907  1
  O  O236  1  0.13351426  0.47994896  0.24671572  1
  O  O237  1  0.12765601  0.48097510  0.75829946  1
  O  O238  1  0.13863878  1.01895685  0.23561038  1
  O  O239  1  0.12396521  1.00860261  0.70886103  1
  O  O240  1  0.63242376  0.48181618  0.26322399  1
  O  O241  1  0.60795258  0.49267798  0.75734480  1
  O  O242  1  0.62660349  1.01760583  0.23384870  1
  O  O243  1  0.63351429  0.99415217  0.74036196  1
  O  O244  1  0.35680541  0.01693495  0.24782136  1
  O  O245  1  0.38287474  -0.03409118  0.77185653  1
  O  O246  1  0.36918622  0.48456658  0.25767806  1
  O  O247  1  0.38193041  0.51949078  0.75286112  1
  O  O248  1  0.85650808  0.01902069  0.24948367  1
  O  O249  1  0.86374702  -0.00164251  0.73462327  1
  O  O250  1  0.85273111  0.49310697  0.26103746  1
  O  O251  1  0.87926963  0.48998027  0.77071403  1
  O  O252  1  0.11906562  0.36305489  0.36644993  1
  O  O253  1  0.12246677  0.36716868  0.86849730  1
  O  O254  1  0.09628716  0.88180591  0.35212873  1
  O  O255  1  0.09712520  0.85709797  0.91851798  1
  O  O256  1  0.62608169  0.36291916  0.36787211  1
  O  O257  1  0.61018007  0.36976432  0.87314242  1
  O  O258  1  0.61797727  0.86269128  0.37426290  1
  O  O259  1  0.56029349  0.82588606  0.82965984  1
  O  O260  1  0.38040510  0.13745697  0.10815511  1
  O  O261  1  0.40610895  0.09134409  0.64441696  1
  O  O262  1  0.37765612  0.62331804  0.14848644  1
  O  O263  1  0.36097195  0.64260970  0.64227937  1
  O  O264  1  0.88739850  0.13197786  0.13697654  1
  O  O265  1  0.86251736  0.14471289  0.61883422  1
  O  O266  1  0.91286121  0.61657973  0.08908990  1
  O  O267  1  0.88860781  0.65614625  0.59849598  1
  O  O268  1  0.25944726  0.24150620  0.12077465  1
  O  O269  1  0.23313127  0.24141092  0.59789955  1
  O  O270  1  0.24583789  0.77248980  0.15549602  1
  O  O271  1  0.23131964  0.84677210  0.69329421  1
  O  O272  1  0.74449441  0.25624616  0.11993295  1
  O  O273  1  0.73817849  0.24599802  0.60851622  1
  O  O274  1  0.71547172  0.78076763  0.11270340  1
  O  O275  1  0.76348089  0.75065708  0.60205875  1
  O  O276  1  0.22213140  0.25029963  0.41582553  1
  O  O277  1  0.24928825  0.25205869  0.87478169  1
  O  O278  1  0.25120948  0.72848317  0.35902714  1
  O  O279  1  0.24148939  0.75305546  0.88979628  1
  O  O280  1  0.73599701  0.24799422  0.38503004  1
  O  O281  1  0.73443854  0.24973015  0.88280432  1
  O  O282  1  0.74172375  0.73882155  0.37761792  1
  O  O283  1  0.76013624  0.76298055  0.89623986  1
  O  O284  1  -0.00715191  0.12560450  -0.00317986  1
  O  O285  1  -0.01496432  0.11639853  0.49633558  1
  O  O286  1  -0.02728758  0.62323074  0.03022625  1
  O  O287  1  0.02063714  0.63804808  0.48450961  1
  O  O288  1  0.50628593  0.13044462  0.00456533  1
  O  O289  1  0.50119511  0.11668660  0.51557976  1
  O  O290  1  0.48055947  0.60593902  0.04169797  1
  O  O291  1  0.51344815  0.61982301  0.49144331  1
  O  O292  1  0.49178402  0.39646362  0.50694562  1
  O  O293  1  0.50752430  0.38795791  0.99204996  1
  O  O294  1  0.51047823  0.88435561  0.49180867  1
  O  O295  1  0.48302136  0.86752959  1.01784465  1
  O  O296  1  0.98200005  0.36819837  0.49514606  1
  O  O297  1  1.00403658  0.37784010  0.98948978  1
  O  O298  1  0.98868485  0.88471597  0.47355864  1
  O  O299  1  1.03694189  0.86285953  0.98052294  1
  O  O300  1  0.48879441  0.50420611  0.37758288  1
  O  O301  1  0.49561390  0.48902713  0.87623757  1
  O  O302  1  0.51474452  0.98979163  0.38747477  1
  O  O303  1  0.49976729  0.99590366  0.87716434  1
  O  O304  1  0.97679769  0.51015760  0.35231997  1
  O  O305  1  0.99178987  0.48809110  0.88558282  1
  O  O306  1  0.98206225  0.99514112  0.37158752  1
  O  O307  1  1.01941220  0.98800710  0.87306634  1
  O  O308  1  0.01529562  0.02172280  0.12743959  1
  O  O309  1  -0.00833356  -0.01211821  0.60042977  1
  O  O310  1  0.01648250  0.49142817  0.12884061  1
  O  O311  1  -0.00335601  0.48946840  0.61173618  1
  O  O312  1  0.50442293  0.01820776  0.13283868  1
  O  O313  1  0.51699629  -0.00355937  0.61855753  1
  O  O314  1  0.51094332  0.48065308  0.12535362  1
  O  O315  1  0.50130304  0.51408111  0.61288354  1
  O  O316  1  0.24442581  0.37778713  0.25281080  1
  O  O317  1  0.24757726  0.37918074  0.74761610  1
  O  O318  1  0.25629899  0.89805049  0.24853972  1
  O  O319  1  0.24161962  0.88831930  0.75183375  1
  O  O320  1  0.73960740  0.38124797  0.24484073  1
  O  O321  1  0.72570335  0.38033244  0.75422448  1
  O  O322  1  0.73804883  0.89710562  0.23559004  1
  O  O323  1  0.75235666  0.89358329  0.76437810  1
  O  O324  1  0.24854295  0.13310328  0.25587672  1
  O  O325  1  0.25595499  0.12912539  0.76537184  1
  O  O326  1  0.26700537  0.60980150  0.25495211  1
  O  O327  1  0.26059070  0.62293620  0.76852712  1
  O  O328  1  0.75036240  0.12223011  0.25830138  1
  O  O329  1  0.74200303  0.11988363  0.76612416  1
  O  O330  1  0.73094582  0.60340356  0.26303028  1
  O  O331  1  0.75580456  0.60340040  0.73100826  1
  O  O332  1  0.37821522  0.15773374  0.35365901  1
  O  O333  1  0.37152056  0.09252294  0.87231570  1
  O  O334  1  0.37060395  0.61401213  0.36546665  1
  O  O335  1  0.36793868  0.65765971  0.85668668  1
  O  O336  1  0.85963767  0.11981937  0.36479204  1
  O  O337  1  0.85240618  0.14414143  0.88533837  1
  O  O338  1  0.85632573  0.61378914  0.37749668  1
  O  O339  1  0.87001033  0.60523937  0.88707523  1
  O  O340  1  0.12562485  0.37201004  0.14172919  1
  O  O341  1  0.12493370  0.36726660  0.64349172  1
  O  O342  1  0.14028927  0.89335287  0.13083844  1
  O  O343  1  0.12066591  0.89567944  0.59330439  1
  O  O344  1  0.63013516  0.36488670  0.14426524  1
  O  O345  1  0.60972550  0.37924070  0.64200400  1
  O  O346  1  0.61366346  0.89807866  0.11964848  1
  O  O347  1  0.63167404  0.88349850  0.62580797  1
  O  O348  1  0.12193129  0.25711116  0.26546123  1
  O  O349  1  0.13200630  0.26377476  0.76581091  1
  O  O350  1  0.04433889  0.70983964  0.20959208  1
  O  O351  1  0.12064870  0.74412298  0.76431536  1
  O  O352  1  0.62695398  0.26035769  0.26559638  1
  O  O353  1  0.61503556  0.25967316  0.75980658  1
  O  O354  1  0.63041146  0.74906442  0.26237351  1
  O  O355  1  0.63618982  0.73253493  0.77110643  1
  O  O356  1  0.38236537  0.25981725  0.22603885  1
  O  O357  1  0.39284637  0.25245353  0.75498452  1
  O  O358  1  0.37509183  0.74054397  0.25999632  1
  O  O359  1  0.37047281  0.76009167  0.72641629  1
  O  O360  1  0.86420345  0.23839592  0.25400869  1
  O  O361  1  0.85426461  0.25905238  0.73361006  1
  O  O362  1  0.81961991  0.72212335  0.22069356  1
  O  O363  1  0.85176854  0.73764591  0.74086893  1
  O  O364  1  0.38621269  0.50646520  0.49381792  1
  O  O365  1  0.39228714  0.48207970  1.01337161  1
  O  O366  1  0.40129210  0.99371021  0.50823157  1
  O  O367  1  0.36770853  0.98057260  0.98715757  1
  O  O368  1  0.87963836  0.49340530  0.48647085  1
  O  O369  1  0.87607714  0.48663312  0.99330450  1
  O  O370  1  0.87437531  1.00378922  0.48365969  1
  O  O371  1  0.87535539  0.99235132  1.04247338  1
  O  O372  1  0.13768647  0.00454695  0.02151238  1
  O  O373  1  0.09632740  0.01289949  0.48887201  1
  O  O374  1  0.13046134  0.49123574  0.01990550  1
  O  O375  1  0.12953943  0.47563319  0.49762116  1
  O  O376  1  0.62418603  0.01755769  0.01614346  1
  O  O377  1  0.61837758  0.00168847  0.51595186  1
  O  O378  1  0.60662438  0.52476987  -0.00734211  1
  O  O379  1  0.61338759  0.51212954  0.49306367  1
  O  O380  1  0.37619117  0.35786847  0.10854252  1
  O  O381  1  0.37714941  0.39914398  0.62091430  1
  O  O382  1  0.35659399  0.88985683  0.11843038  1
  O  O383  1  0.37647267  0.86330079  0.60974016  1
  O  O384  1  0.85794990  0.37206314  0.12705958  1
  O  O385  1  0.87140853  0.36918997  0.61084278  1
  O  O386  1  0.85195499  0.86303002  0.13654905  1
  O  O387  1  0.88555543  0.84882613  0.61913641  1
  O  O388  1  0.11887813  0.13831007  0.39036741  1
  O  O389  1  0.14015236  0.13625255  0.86712368  1
  O  O390  1  0.13828783  0.62111910  0.35133095  1
  O  O391  1  0.14899434  0.60926062  0.88357659  1
  O  O392  1  0.62774763  0.14177453  0.36901666  1
  O  O393  1  0.63054705  0.13159467  0.88298354  1
  O  O394  1  0.62910258  0.63722245  0.37929455  1
  O  O395  1  0.67259240  0.61382395  0.86920502  1
