# generated using pymatgen
data_V35Zn35O128
_symmetry_space_group_name_H-M   'P 1'
_cell_length_a   16.85321912
_cell_length_b   16.85953824
_cell_length_c   16.95484078
_cell_angle_alpha   89.75834135
_cell_angle_beta   89.80029751
_cell_angle_gamma   89.74663518
_symmetry_Int_Tables_number   1
_chemical_formula_structural   V35Zn35O128
_chemical_formula_sum   'V70 Zn70 O256'
_cell_volume   4817.38703874
_cell_formula_units_Z   2
loop_
 _symmetry_equiv_pos_site_id
 _symmetry_equiv_pos_as_xyz
  1  'x, y, z'
loop_
 _atom_site_type_symbol
 _atom_site_label
 _atom_site_symmetry_multiplicity
 _atom_site_fract_x
 _atom_site_fract_y
 _atom_site_fract_z
 _atom_site_occupancy
  V  V0  1  0.87443546  0.51591416  0.37918934  1
  V  V1  1  0.23198426  0.74820531  0.50162698  1
  V  V2  1  0.24165436  -0.00585499  0.74732130  1
  V  V3  1  0.00622097  0.75500153  0.27812426  1
  V  V4  1  0.76716013  0.74884243  0.00636367  1
  V  V5  1  -0.02120499  0.13056717  0.62052099  1
  V  V6  1  0.75966166  0.37480101  0.12488291  1
  V  V7  1  0.63186846  0.00137300  0.13839340  1
  V  V8  1  0.12455266  0.62276405  0.01163402  1
  V  V9  1  0.38095781  0.61727862  0.74893969  1
  V  V10  1  0.38114571  0.12631892  0.27255921  1
  V  V11  1  0.24653027  0.26754704  0.50013253  1
  V  V12  1  0.62825424  0.12538678  -0.02049663  1
  V  V13  1  0.25115763  0.24269362  -0.00347074  1
  V  V14  1  0.50612613  0.76722971  0.24996322  1
  V  V15  1  0.38547355  0.75308812  0.61989301  1
  V  V16  1  0.49096720  0.87720212  0.89174728  1
  V  V17  1  0.87781993  0.64128884  0.75394087  1
  V  V18  1  0.24464682  0.37354562  0.11632347  1
  V  V19  1  0.01171816  0.49568718  0.51539537  1
  V  V20  1  0.88445305  0.24267635  0.13751332  1
  V  V21  1  0.37574059  0.50666032  0.36933399  1
  V  V22  1  -0.02023792  0.64037424  0.13320488  1
  V  V23  1  0.12009859  0.75573440  0.86292574  1
  V  V24  1  0.01345397  0.38588383  0.85948099  1
  V  V25  1  0.00601363  0.63185955  0.63181339  1
  V  V26  1  0.62125882  0.62886453  0.00450674  1
  V  V27  1  -0.00597052  0.49652146  0.01255794  1
  V  V28  1  0.48244652  0.50427361  -0.00253272  1
  V  V29  1  0.49325040  0.37556527  0.36031476  1
  V  V30  1  0.88253633  0.89982081  0.00155277  1
  V  V31  1  0.12360670  0.25576212  0.35511462  1
  V  V32  1  0.23637933  0.89335148  0.12430152  1
  V  V33  1  0.85686857  0.86996732  0.50869966  1
  V  V34  1  0.73311727  0.47774569  0.74766477  1
  V  V35  1  0.75275838  0.12438381  0.36060402  1
  V  V36  1  0.61497803  0.24690273  0.36644524  1
  V  V37  1  0.87722723  0.00319101  0.36514489  1
  V  V38  1  0.62896861  0.74783444  0.88547396  1
  V  V39  1  0.25234044  0.00974641  0.27744225  1
  V  V40  1  0.25357760  0.61658822  0.87824981  1
  V  V41  1  0.74944077  0.25366403  0.50595842  1
  V  V42  1  0.62488573  0.37107641  0.24565172  1
  V  V43  1  0.61039118  0.12039899  0.49851751  1
  V  V44  1  0.36907033  0.63682871  0.24322525  1
  V  V45  1  0.22838004  0.86489112  0.63475038  1
  V  V46  1  0.48290830  0.21942749  0.70775960  1
  V  V47  1  0.13640910  0.13335399  0.50042871  1
  V  V48  1  0.62602323  0.00501359  0.62770567  1
  V  V49  1  0.49927968  0.33980560  0.85797128  1
  V  V50  1  0.75702779  0.51934947  0.25550462  1
  V  V51  1  -0.02517920  0.24420810  0.74825265  1
  V  V52  1  0.00005309  0.89185169  0.86458733  1
  V  V53  1  0.23683933  0.49490889  0.24546509  1
  V  V54  1  0.63669076  0.87984505  0.75246958  1
  V  V55  1  0.24170885  0.49328901  0.74201838  1
  V  V56  1  0.49919284  0.12683615  0.12020488  1
  V  V57  1  0.37381250  0.76620423  0.12277622  1
  V  V58  1  0.37372938  0.00646023  0.87157749  1
  V  V59  1  0.00360533  -0.00135150  0.49867441  1
  V  V60  1  -0.00540991  0.37293347  0.35680780  1
  V  V61  1  0.37327478  0.38181386  0.50013801  1
  V  V62  1  0.11447164  0.12080035  -0.01034568  1
  V  V63  1  0.75298447  0.25349727  -0.00798285  1
  V  V64  1  0.49959781  0.74730044  0.75731740  1
  V  V65  1  0.00545189  0.11259226  0.13521182  1
  V  V66  1  0.24932879  0.76110844  0.00038540  1
  V  V67  1  0.50771440  -0.04966670  0.48376314  1
  V  V68  1  0.23489364  0.62830630  0.38351795  1
  V  V69  1  0.62254030  0.51217218  0.12794688  1
  Zn  Zn70  1  0.75950532  0.88816626  0.14731077  1
  Zn  Zn71  1  0.87112428  0.36807276  0.50084003  1
  Zn  Zn72  1  0.38237071  0.25350549  0.12749724  1
  Zn  Zn73  1  0.78015965  0.58534284  0.88942508  1
  Zn  Zn74  1  0.24564820  0.14105166  0.85220997  1
  Zn  Zn75  1  0.11786132  0.88306559  0.26959746  1
  Zn  Zn76  1  0.19042544  0.17937181  0.18056864  1
  Zn  Zn77  1  0.25582584  0.14975020  0.64082356  1
  Zn  Zn78  1  0.18613563  0.69839723  0.19257257  1
  Zn  Zn79  1  0.18989944  0.67834622  0.68678837  1
  Zn  Zn80  1  0.68648491  0.18808905  0.18013070  1
  Zn  Zn81  1  0.67637102  0.30002773  0.68622584  1
  Zn  Zn82  1  0.71607562  0.72708610  0.21694774  1
  Zn  Zn83  1  0.66840328  0.64593794  0.73306772  1
  Zn  Zn84  1  0.31152438  0.30835211  0.30744487  1
  Zn  Zn85  1  0.32756096  0.31366473  0.82907892  1
  Zn  Zn86  1  0.28587422  0.83604437  0.33135044  1
  Zn  Zn87  1  0.31245639  0.80991023  0.81311392  1
  Zn  Zn88  1  0.80985988  0.31508875  0.31478908  1
  Zn  Zn89  1  0.82769730  0.39218168  0.86834020  1
  Zn  Zn90  1  0.84386615  0.82933967  0.30714314  1
  Zn  Zn91  1  0.81751588  0.81485186  0.82450511  1
  Zn  Zn92  1  0.18160021  0.43783510  0.42524883  1
  Zn  Zn93  1  0.18069878  0.43406231  0.93866409  1
  Zn  Zn94  1  0.18831107  0.93927658  0.44638282  1
  Zn  Zn95  1  0.18247632  0.94304027  0.93403169  1
  Zn  Zn96  1  0.68124959  0.44184230  0.43098337  1
  Zn  Zn97  1  0.66400605  0.42858958  0.94033749  1
  Zn  Zn98  1  0.69426950  0.94258195  0.43870684  1
  Zn  Zn99  1  0.66742642  0.91621809  0.97444862  1
  Zn  Zn100  1  0.31756474  0.06258408  0.04858354  1
  Zn  Zn101  1  0.34005893  0.00329572  0.56312663  1
  Zn  Zn102  1  0.30214578  0.56600735  0.06961310  1
  Zn  Zn103  1  0.31256786  0.56238962  0.56400682  1
  Zn  Zn104  1  0.81051296  0.07150015  0.06221677  1
  Zn  Zn105  1  0.80446441  0.06244147  0.55224653  1
  Zn  Zn106  1  0.81270673  0.56494070  0.06524612  1
  Zn  Zn107  1  0.83526197  0.51832397  0.59389183  1
  Zn  Zn108  1  0.44506105  0.42489787  0.15906520  1
  Zn  Zn109  1  0.39737472  0.39536843  0.71107946  1
  Zn  Zn110  1  0.43607126  0.94974849  0.18477359  1
  Zn  Zn111  1  0.44434074  0.93652507  0.68961194  1
  Zn  Zn112  1  0.93828395  0.44969924  0.18330906  1
  Zn  Zn113  1  0.92330694  0.41944655  0.69191543  1
  Zn  Zn114  1  0.94752426  0.92975039  0.18428961  1
  Zn  Zn115  1  0.95542983  0.93206467  0.67547784  1
  Zn  Zn116  1  0.06644308  0.06955352  0.31691982  1
  Zn  Zn117  1  0.06542381  0.07233764  0.80598433  1
  Zn  Zn118  1  0.05522968  0.56584083  0.31191923  1
  Zn  Zn119  1  0.06514640  0.56532661  0.81384903  1
  Zn  Zn120  1  0.55671560  0.05580276  0.31137375  1
  Zn  Zn121  1  0.55327200  0.06651407  0.80750053  1
  Zn  Zn122  1  0.53958925  0.55203902  0.27267270  1
  Zn  Zn123  1  0.53407995  0.51333732  0.79035659  1
  Zn  Zn124  1  0.41031791  0.17086513  0.52002189  1
  Zn  Zn125  1  0.43491739  0.18331854  0.93726040  1
  Zn  Zn126  1  0.43715471  0.69786218  0.42526863  1
  Zn  Zn127  1  0.43675464  0.68364196  0.94409856  1
  Zn  Zn128  1  0.93766465  0.18845129  0.43167087  1
  Zn  Zn129  1  0.94609183  0.22663639  0.94491435  1
  Zn  Zn130  1  0.94263492  0.68591079  0.45010659  1
  Zn  Zn131  1  0.94619259  0.68357049  0.93275900  1
  Zn  Zn132  1  0.07398428  0.30658880  0.07277286  1
  Zn  Zn133  1  0.04843063  0.30815937  0.55416064  1
  Zn  Zn134  1  0.06220328  0.81817164  0.05784031  1
  Zn  Zn135  1  0.05175060  0.80789385  0.56134760  1
  Zn  Zn136  1  0.56073615  0.31421483  0.04705683  1
  Zn  Zn137  1  0.54285714  0.29984664  0.54277382  1
  Zn  Zn138  1  0.56165496  0.81535298  0.07863620  1
  Zn  Zn139  1  0.57690214  0.80031734  0.57960799  1
  O  O140  1  0.11044059  0.13206054  0.11170906  1
  O  O141  1  0.13764354  0.13154135  0.60158232  1
  O  O142  1  0.13477395  0.63010541  0.11081913  1
  O  O143  1  0.10723366  0.62064312  0.63653990  1
  O  O144  1  0.61868029  0.11634323  0.12452826  1
  O  O145  1  0.61357635  0.11049984  0.60677675  1
  O  O146  1  0.64101277  0.61376188  0.11843083  1
  O  O147  1  0.65886705  0.65299409  0.61134041  1
  O  O148  1  0.37809853  0.38688168  0.36584161  1
  O  O149  1  0.40930695  0.36052476  0.89936848  1
  O  O150  1  0.38676395  0.85449743  0.37404425  1
  O  O151  1  0.38895391  0.86805071  0.87597840  1
  O  O152  1  0.88268979  0.38109850  0.37701370  1
  O  O153  1  0.92833349  0.34770074  0.90714537  1
  O  O154  1  0.87017680  0.89763917  0.39238876  1
  O  O155  1  0.89107303  0.87365082  0.88709672  1
  O  O156  1  0.26337451  0.00573728  0.37557350  1
  O  O157  1  0.25906015  -0.01239265  0.85804879  1
  O  O158  1  0.25387864  0.51306684  0.36602107  1
  O  O159  1  0.24841333  0.51433953  0.87936547  1
  O  O160  1  0.76020106  0.01510146  0.37861160  1
  O  O161  1  0.80595477  0.02559196  0.75069528  1
  O  O162  1  0.75955007  0.50005769  0.36405646  1
  O  O163  1  0.74526656  0.47588637  0.88085903  1
  O  O164  1  0.25083776  0.48849389  0.13576103  1
  O  O165  1  0.25184371  0.50463976  0.64266965  1
  O  O166  1  0.25096046  0.99148654  0.10900229  1
  O  O167  1  0.25097910  0.97243681  0.63188651  1
  O  O168  1  0.74794388  0.49395417  0.13695548  1
  O  O169  1  0.73575735  0.49950270  0.64925387  1
  O  O170  1  0.73990098  1.00759210  0.12822033  1
  O  O171  1  0.72668164  1.00147328  0.61496826  1
  O  O172  1  -0.00706028  0.38296292  0.25813524  1
  O  O173  1  -0.00000073  0.36099543  0.75511971  1
  O  O174  1  0.00246554  0.86598329  0.26062722  1
  O  O175  1  -0.00700153  0.87702583  0.76473300  1
  O  O176  1  0.51173179  0.38013326  0.24910098  1
  O  O177  1  0.50075625  0.40206489  0.76898695  1
  O  O178  1  0.50104694  0.86662501  0.22933788  1
  O  O179  1  0.51150445  0.86037304  0.76191102  1
  O  O180  1  0.48823100  0.11832491  0.23909394  1
  O  O181  1  0.48653660  0.12061745  0.73210758  1
  O  O182  1  0.47438126  0.64284625  0.25366465  1
  O  O183  1  0.48758962  0.63011329  0.76416492  1
  O  O184  1  1.00781400  0.12368339  0.23404770  1
  O  O185  1  1.00202666  0.12988292  0.72771308  1
  O  O186  1  1.00973897  0.63945753  0.23613469  1
  O  O187  1  0.99142549  0.61782801  0.74384180  1
  O  O188  1  0.35907020  0.23735492  0.00776066  1
  O  O189  1  0.35662604  0.26940475  0.47992533  1
  O  O190  1  0.36116095  0.74069885  0.01443380  1
  O  O191  1  0.38346159  0.73639113  0.51972785  1
  O  O192  1  0.85925323  0.24887818  0.02005915  1
  O  O193  1  0.85421186  0.24718920  0.49285776  1
  O  O194  1  0.86672118  0.73962183  -0.00487354  1
  O  O195  1  0.88224606  0.77328324  0.48926782  1
  O  O196  1  0.13021575  0.25371980  0.49341361  1
  O  O197  1  0.14068721  0.24287038  1.00283168  1
  O  O198  1  0.13393310  0.74382913  0.50568911  1
  O  O199  1  0.13329024  0.74088078  0.99315978  1
  O  O200  1  0.62477289  0.23679256  0.48694692  1
  O  O201  1  0.64191935  0.23838770  1.01002938  1
  O  O202  1  0.66637346  0.72061903  0.57512762  1
  O  O203  1  0.62779751  0.74588070  1.00165688  1
  O  O204  1  0.50359357  0.23515412  0.11999140  1
  O  O205  1  0.47459007  0.23124423  0.60254756  1
  O  O206  1  0.47807298  0.75176176  0.12615280  1
  O  O207  1  0.49375595  0.74763091  0.64223470  1
  O  O208  1  0.98646772  0.25177644  0.12385132  1
  O  O209  1  0.99754779  0.24083048  0.63214821  1
  O  O210  1  0.99993506  0.73836835  0.11398586  1
  O  O211  1  0.99341908  0.73126253  0.61990180  1
  O  O212  1  0.00127528  0.26645745  0.37376916  1
  O  O213  1  0.00644476  0.23124472  0.84495481  1
  O  O214  1  0.01485488  0.73908685  0.37691328  1
  O  O215  1  0.01735682  0.75193080  0.87554913  1
  O  O216  1  0.51195929  0.26066937  0.36700757  1
  O  O217  1  0.49587780  0.23604459  0.85292279  1
  O  O218  1  0.48997423  0.76377476  0.35143711  1
  O  O219  1  0.50499226  0.75652888  0.87632292  1
  O  O220  1  0.23592561  0.14917394  0.48050340  1
  O  O221  1  0.23902922  0.13468017  1.00056240  1
  O  O222  1  0.25169201  0.63237618  0.49397042  1
  O  O223  1  0.24171170  0.63211011  0.99162972  1
  O  O224  1  0.73475218  0.13391737  0.48866619  1
  O  O225  1  0.74478157  0.14248146  0.99346768  1
  O  O226  1  0.74652051  0.60520283  0.50126145  1
  O  O227  1  0.74485056  0.63024890  0.99416077  1
  O  O228  1  0.24648917  0.36908078  0.01051473  1
  O  O229  1  0.25674404  0.37697063  0.49030933  1
  O  O230  1  0.24070219  0.86731664  0.00636529  1
  O  O231  1  0.24507947  0.85777438  0.51899098  1
  O  O232  1  0.73846626  0.37164658  0.02223987  1
  O  O233  1  0.73724157  0.35661617  0.48554120  1
  O  O234  1  0.77008796  0.86198501  -0.00768231  1
  O  O235  1  0.75507944  0.87324258  0.50561805  1
  O  O236  1  0.13877987  0.51320271  0.25146307  1
  O  O237  1  0.14253600  0.49365134  0.76189424  1
  O  O238  1  0.14472227  1.00290560  0.26560753  1
  O  O239  1  0.14138840  0.99513290  0.75403734  1
  O  O240  1  0.64025253  0.49727965  0.24694136  1
  O  O241  1  0.63965139  0.53832262  0.76462882  1
  O  O242  1  0.62487617  0.99460822  0.23719784  1
  O  O243  1  0.61653119  0.99047747  0.73940839  1
  O  O244  1  0.36442116  0.01420638  0.24787509  1
  O  O245  1  0.36484920  -0.01767255  0.75905623  1
  O  O246  1  0.35918090  0.52171350  0.25369279  1
  O  O247  1  0.37870670  0.51606303  0.74683350  1
  O  O248  1  0.88287108  -0.00884476  0.26730407  1
  O  O249  1  0.87594268  0.00482023  0.76095328  1
  O  O250  1  0.86329218  0.50286573  0.25891508  1
  O  O251  1  0.84260282  0.45637903  0.76770836  1
  O  O252  1  0.10502314  0.37003406  0.37092034  1
  O  O253  1  0.10690839  0.36144007  0.88859002  1
  O  O254  1  0.17710434  0.86465139  0.36548245  1
  O  O255  1  0.11341231  0.86476113  0.88133966  1
  O  O256  1  0.61500247  0.37105453  0.36316036  1
  O  O257  1  0.57853908  0.35706851  0.92319419  1
  O  O258  1  0.64963262  0.85103823  0.36351315  1
  O  O259  1  0.61312986  0.86842684  0.87602477  1
  O  O260  1  0.39520666  0.11753023  0.11371999  1
  O  O261  1  0.34890153  0.10910212  0.59053868  1
  O  O262  1  0.35586164  0.63879209  0.14024940  1
  O  O263  1  0.36851762  0.63531121  0.64299095  1
  O  O264  1  0.88817301  0.13515691  0.12304561  1
  O  O265  1  0.88010498  0.12321143  0.61863101  1
  O  O266  1  0.88007844  0.63141540  0.13034206  1
  O  O267  1  0.88431925  0.60720311  0.64921028  1
  O  O268  1  0.25236871  0.25659759  0.11559028  1
  O  O269  1  0.25101075  0.25856998  0.59947342  1
  O  O270  1  0.25345252  0.76559047  0.11907595  1
  O  O271  1  0.25720589  0.74924304  0.61897818  1
  O  O272  1  0.75739203  0.26295704  0.12473889  1
  O  O273  1  0.73367857  0.24932231  0.60566709  1
  O  O274  1  0.74812557  0.74884319  0.10461472  1
  O  O275  1  0.73493601  0.66862624  0.46714056  1
  O  O276  1  0.22723699  0.26762745  0.37773340  1
  O  O277  1  0.25637819  0.25166753  0.88909696  1
  O  O278  1  0.25567786  0.73647994  0.39473812  1
  O  O279  1  0.24219506  0.74661505  0.88397600  1
  O  O280  1  0.73767663  0.23970081  0.37742471  1
  O  O281  1  0.76424301  0.28624658  0.89897033  1
  O  O282  1  0.65225616  0.78337869  0.39349238  1
  O  O283  1  0.73751285  0.75204273  0.88944498  1
  O  O284  1  0.01114425  0.14198406  -0.00149358  1
  O  O285  1  0.00571480  0.13059849  0.51131024  1
  O  O286  1  0.01133286  0.62195035  0.01008042  1
  O  O287  1  -0.01085508  0.60601729  0.52080658  1
  O  O288  1  0.51860973  0.13155489  0.00595185  1
  O  O289  1  0.51169716  0.12193470  0.48306970  1
  O  O290  1  0.50957837  0.61718048  0.00872578  1
  O  O291  1  0.52897858  0.63086420  0.48134225  1
  O  O292  1  0.48166832  0.37212938  0.47457323  1
  O  O293  1  0.49106870  0.40950104  1.04719779  1
  O  O294  1  0.53684721  0.85226246  0.49003118  1
  O  O295  1  0.50333627  0.87279500  0.98995398  1
  O  O296  1  0.99281581  0.38631359  0.49145052  1
  O  O297  1  1.01635215  0.39961630  1.02685027  1
  O  O298  1  1.01523878  0.89809776  0.49969531  1
  O  O299  1  0.98833775  0.87891011  0.99281066  1
  O  O300  1  0.48571270  0.49240309  0.35618805  1
  O  O301  1  0.50014157  0.49977700  0.90018853  1
  O  O302  1  0.52848597  0.97675471  0.38733093  1
  O  O303  1  0.48717897  0.98581594  0.86572207  1
  O  O304  1  0.98844497  0.49422508  0.37589483  1
  O  O305  1  1.00706108  0.48841919  0.88449083  1
  O  O306  1  0.98588038  1.02024611  0.38840482  1
  O  O307  1  1.00823128  0.99126321  0.86920546  1
  O  O308  1  -0.00318387  0.01351314  0.12276705  1
  O  O309  1  0.00210817  0.01723983  0.60859149  1
  O  O310  1  -0.00099365  0.52390876  0.11964989  1
  O  O311  1  0.00346180  0.48898831  0.61673178  1
  O  O312  1  0.51646177  0.01272341  0.12146588  1
  O  O313  1  0.51824276  -0.02790388  0.60358795  1
  O  O314  1  0.52132773  0.51628200  0.15295229  1
  O  O315  1  0.56605905  0.44754688  0.62167557  1
  O  O316  1  0.24549295  0.39461968  0.25823437  1
  O  O317  1  0.28176187  0.39833566  0.76274472  1
  O  O318  1  0.25590868  0.89930762  0.23195854  1
  O  O319  1  0.24791988  0.87003210  0.73938528  1
  O  O320  1  0.74223059  0.38337073  0.24239897  1
  O  O321  1  0.69677378  0.38292365  0.75621591  1
  O  O322  1  0.75171936  0.83222835  0.24605845  1
  O  O323  1  0.73406897  0.87667184  0.77284376  1
  O  O324  1  0.25973383  0.11481035  0.25074730  1
  O  O325  1  0.25314838  0.10131127  0.74320441  1
  O  O326  1  0.25267758  0.63162273  0.26586285  1
  O  O327  1  0.25738145  0.61371323  0.76206101  1
  O  O328  1  0.74514831  0.12875862  0.26231587  1
  O  O329  1  0.80268355  0.13430599  0.83470695  1
  O  O330  1  0.74595021  0.61790248  0.25011692  1
  O  O331  1  0.77342678  0.60840053  0.76740425  1
  O  O332  1  0.38693419  0.12703854  0.36828028  1
  O  O333  1  0.36816450  0.11074442  0.86982806  1
  O  O334  1  0.36591316  0.62165288  0.36845426  1
  O  O335  1  0.35990979  0.63579433  0.86653610  1
  O  O336  1  0.86138778  0.12036058  0.37598722  1
  O  O337  1  0.86588557  0.12371491  0.86938041  1
  O  O338  1  0.88023301  0.61479647  0.37840783  1
  O  O339  1  0.88969923  0.61785059  0.86025849  1
  O  O340  1  0.14610587  0.36804366  0.13799719  1
  O  O341  1  0.12772957  0.36397477  0.64212239  1
  O  O342  1  0.13462837  0.87929089  0.12605392  1
  O  O343  1  0.12890297  0.85945434  0.63291846  1
  O  O344  1  0.63450922  0.38875504  0.13410492  1
  O  O345  1  0.60834635  0.39001521  0.59648380  1
  O  O346  1  0.63883095  0.89638276  0.09890381  1
  O  O347  1  0.63444003  0.87252684  0.64977083  1
  O  O348  1  0.12859183  0.24496410  0.25739894  1
  O  O349  1  0.14767785  0.31908213  0.69701414  1
  O  O350  1  0.11145606  0.76086836  0.24576967  1
  O  O351  1  0.13567474  0.74564110  0.76546269  1
  O  O352  1  0.63249974  0.26236397  0.25367219  1
  O  O353  1  0.57555537  0.25972103  0.71857783  1
  O  O354  1  0.60176727  0.73872179  0.23416495  1
  O  O355  1  0.61969587  0.74972551  0.76594188  1
  O  O356  1  0.36570402  0.22939779  0.24570949  1
  O  O357  1  0.39502981  0.27531744  0.73804269  1
  O  O358  1  0.36747202  0.74958761  0.23647748  1
  O  O359  1  0.38296682  0.74089731  0.74645904  1
  O  O360  1  0.86779071  0.25208669  0.23597201  1
  O  O361  1  0.87887275  0.25002373  0.75082956  1
  O  O362  1  0.90395163  0.74610646  0.26180458  1
  O  O363  1  0.86800613  0.74093615  0.75149893  1
  O  O364  1  0.36537174  0.49329569  0.48173670  1
  O  O365  1  0.38383018  0.52186363  1.00633792  1
  O  O366  1  0.40574927  0.95611370  0.48982652  1
  O  O367  1  0.36480164  0.99233079  0.97151935  1
  O  O368  1  0.87783202  0.49954855  0.48361293  1
  O  O369  1  0.89247629  0.50561618  1.00153988  1
  O  O370  1  0.88701444  0.99696881  0.49528768  1
  O  O371  1  0.86752668  0.99779531  0.99158875  1
  O  O372  1  0.12523115  0.02007121  -0.00336405  1
  O  O373  1  0.11501921  0.02229493  0.48260961  1
  O  O374  1  0.11935694  0.51867904  -0.00487329  1
  O  O375  1  0.10986439  0.49606313  0.49483381  1
  O  O376  1  0.64005863  0.02338417  0.00088140  1
  O  O377  1  0.61932325  0.00534862  0.50323558  1
  O  O378  1  0.61659878  0.50776517  0.01865289  1
  O  O379  1  0.60973540  0.52414871  0.48325807  1
  O  O380  1  0.35226507  0.36630638  0.14626071  1
  O  O381  1  0.38390352  0.38781575  0.59747034  1
  O  O382  1  0.36400820  0.86918099  0.12158029  1
  O  O383  1  0.37124640  0.85447727  0.63159243  1
  O  O384  1  0.86340753  0.37401620  0.13000656  1
  O  O385  1  0.85635638  0.40248339  0.60661875  1
  O  O386  1  0.87327461  0.88559903  0.10719691  1
  O  O387  1  0.88265512  0.88362648  0.60648058  1
  O  O388  1  0.10722637  0.15227230  0.38575883  1
  O  O389  1  0.13229741  0.12680044  0.88271985  1
  O  O390  1  0.13660239  0.62130292  0.37842856  1
  O  O391  1  0.13598201  0.63618369  0.88209633  1
  O  O392  1  0.63087090  0.12752609  0.37661348  1
  O  O393  1  0.62096932  0.12432779  0.88033788  1
  O  O394  1  0.58322032  0.58811225  0.44082729  1
  O  O395  1  0.62216539  0.63939353  0.89490125  1
