# generated using pymatgen
data_V35Zn35O128
_symmetry_space_group_name_H-M   'P 1'
_cell_length_a   16.84377251
_cell_length_b   16.92989699
_cell_length_c   16.93354278
_cell_angle_alpha   89.84772958
_cell_angle_beta   89.85641084
_cell_angle_gamma   90.04443368
_symmetry_Int_Tables_number   1
_chemical_formula_structural   V35Zn35O128
_chemical_formula_sum   'V70 Zn70 O256'
_cell_volume   4828.79181396
_cell_formula_units_Z   2
loop_
 _symmetry_equiv_pos_site_id
 _symmetry_equiv_pos_as_xyz
  1  'x, y, z'
loop_
 _atom_site_type_symbol
 _atom_site_label
 _atom_site_symmetry_multiplicity
 _atom_site_fract_x
 _atom_site_fract_y
 _atom_site_fract_z
 _atom_site_occupancy
  V  V0  1  0.14960633  0.76280920  0.86068528  1
  V  V1  1  0.88696183  0.61312914  0.76409885  1
  V  V2  1  0.26540667  0.38050074  0.61182126  1
  V  V3  1  0.37095716  0.62280838  0.23912341  1
  V  V4  1  0.37943155  0.48697430  0.38347304  1
  V  V5  1  0.01469429  0.12506141  0.62512519  1
  V  V6  1  0.25372677  0.75385027  0.03260568  1
  V  V7  1  0.87215901  0.25715580  0.62965861  1
  V  V8  1  0.74918176  0.49135382  0.27143736  1
  V  V9  1  0.86740305  0.75159705  0.62703369  1
  V  V10  1  0.11849804  0.76091248  0.37205723  1
  V  V11  1  0.54981795  0.32469778  0.79870633  1
  V  V12  1  0.37083900  0.88450378  0.01848797  1
  V  V13  1  0.12660565  0.63367437  0.49963047  1
  V  V14  1  0.88322291  -0.00421567  0.87541051  1
  V  V15  1  0.47977925  0.63395430  0.66151610  1
  V  V16  1  0.73271902  0.12817685  0.87952568  1
  V  V17  1  0.25846683  0.23993845  0.49099302  1
  V  V18  1  0.13548787  0.24943948  0.88143389  1
  V  V19  1  0.87335976  0.37779161  0.50759461  1
  V  V20  1  -0.00639568  0.77100458  0.24891388  1
  V  V21  1  0.12780248  -0.01000839  0.12940739  1
  V  V22  1  0.12145834  0.37441960  0.24548447  1
  V  V23  1  0.25622134  0.11790547  0.86076351  1
  V  V24  1  0.50744093  0.87813781  0.88187808  1
  V  V25  1  0.00876230  0.39624201  0.88128112  1
  V  V26  1  0.63818890  0.46685031  0.12115383  1
  V  V27  1  0.63047089  0.25691856  0.37585671  1
  V  V28  1  0.48296510  0.12464333  0.12514940  1
  V  V29  1  0.61347952  0.61176697  0.52944805  1
  V  V30  1  0.00220855  0.25374999  0.75612039  1
  V  V31  1  0.63692980  0.71403416  0.36000424  1
  V  V32  1  0.50438713  0.09773241  0.63351722  1
  V  V33  1  0.63198810  0.10085699  0.50168824  1
  V  V34  1  0.49458303  0.25212807  0.25671820  1
  V  V35  1  0.00197820  0.77459394  0.75501753  1
  V  V36  1  0.63516505  0.87452842  0.74089693  1
  V  V37  1  0.00369418  0.62701590  0.62833230  1
  V  V38  1  0.75214878  0.73481355  0.48714983  1
  V  V39  1  0.12270861  0.62756940  0.00437927  1
  V  V40  1  0.37238011  -0.00658837  0.86493632  1
  V  V41  1  0.62422578  0.01102911  0.11075077  1
  V  V42  1  0.36863547  -0.01138963  0.37322979  1
  V  V43  1  0.74155928  0.74957452  -0.00372957  1
  V  V44  1  0.53154182  0.62304347  0.12567600  1
  V  V45  1  0.12872299  0.11483439  0.00107082  1
  V  V46  1  0.49833190  0.75021597  0.24677450  1
  V  V47  1  -0.00802694  0.13581231  0.10978822  1
  V  V48  1  0.12808187  0.24507873  0.38306934  1
  V  V49  1  0.76564279  0.00935645  0.25027758  1
  V  V50  1  0.35805448  0.76043474  0.61283625  1
  V  V51  1  0.87813335  0.15706800  0.24286718  1
  V  V52  1  0.74377622  0.38092554  0.63591576  1
  V  V53  1  0.74037061  0.49852885  0.75959524  1
  V  V54  1  0.87897026  0.60610736  0.26316835  1
  V  V55  1  0.49071172  0.48664548  -0.00171443  1
  V  V56  1  0.73799551  0.25545833  0.00005656  1
  V  V57  1  0.63516115  0.87882123  0.26052313  1
  V  V58  1  -0.02077555  -0.01760311  0.44681361  1
  V  V59  1  0.75300045  0.87734255  0.11742914  1
  V  V60  1  0.86426584  0.11968718  0.75243859  1
  V  V61  1  0.73819912  0.62271666  0.88529956  1
  V  V62  1  -0.00274188  0.50039634  0.50009813  1
  V  V63  1  0.23886984  0.50121054  0.23894637  1
  V  V64  1  0.13988804  0.37606027  0.74550324  1
  V  V65  1  0.88922327  0.87827628  -0.00442048  1
  V  V66  1  0.13448555  0.50215824  0.62835117  1
  V  V67  1  -0.00156706  0.37212907  0.37444891  1
  V  V68  1  0.38462311  0.24302142  0.63318771  1
  V  V69  1  0.25535849  0.62608586  0.38469510  1
  Zn  Zn70  1  0.88680219  0.73900019  0.11648782  1
  Zn  Zn71  1  0.10505198  -0.00777639  0.58840935  1
  Zn  Zn72  1  0.76223089  0.12827301  0.39237793  1
  Zn  Zn73  1  0.55700941  0.70170130  0.82393379  1
  Zn  Zn74  1  0.31345481  0.31736011  0.07548020  1
  Zn  Zn75  1  0.86694406  0.36917991  -0.01013227  1
  Zn  Zn76  1  0.19217187  0.18729845  0.19291013  1
  Zn  Zn77  1  0.19505260  0.19233518  0.68424951  1
  Zn  Zn78  1  0.17484272  0.68348881  0.19299155  1
  Zn  Zn79  1  0.17210252  0.81498874  0.66788683  1
  Zn  Zn80  1  0.68556773  0.19820320  0.18439082  1
  Zn  Zn81  1  0.67584011  0.19025624  0.68710793  1
  Zn  Zn82  1  0.71271196  0.68577631  0.18964946  1
  Zn  Zn83  1  0.68158374  0.68575279  0.69870167  1
  Zn  Zn84  1  0.32964302  0.32939647  0.27103508  1
  Zn  Zn85  1  0.31944637  0.31846096  0.91276728  1
  Zn  Zn86  1  0.31147341  0.80164503  0.31554642  1
  Zn  Zn87  1  0.36260077  0.78061245  0.82823596  1
  Zn  Zn88  1  0.81058186  0.31561499  0.32593651  1
  Zn  Zn89  1  0.81459358  0.31368675  0.82368598  1
  Zn  Zn90  1  0.82164087  0.82821238  0.32561863  1
  Zn  Zn91  1  0.81331962  0.80445996  0.81220303  1
  Zn  Zn92  1  0.18911867  0.43989734  0.43596693  1
  Zn  Zn93  1  0.15590443  0.41750011  0.98886284  1
  Zn  Zn94  1  0.18459970  0.93344114  0.29890902  1
  Zn  Zn95  1  0.19089477  0.93368695  0.94237529  1
  Zn  Zn96  1  0.67298537  0.43160230  0.45297751  1
  Zn  Zn97  1  0.67289440  0.43584418  0.93525052  1
  Zn  Zn98  1  0.74214513  0.93247277  0.48943367  1
  Zn  Zn99  1  0.69562993  0.94525750  0.93053773  1
  Zn  Zn100  1  0.30573406  0.06553722  0.05826270  1
  Zn  Zn101  1  0.32558065  0.07436930  0.55078554  1
  Zn  Zn102  1  0.30302126  0.56065508  0.05575361  1
  Zn  Zn103  1  0.33916149  0.56776682  0.57461094  1
  Zn  Zn104  1  0.81002439  0.06633509  0.05594237  1
  Zn  Zn105  1  0.83044350  0.07247720  0.55585863  1
  Zn  Zn106  1  0.80162010  0.56920727  0.08162680  1
  Zn  Zn107  1  0.81174991  0.56285422  0.57152380  1
  Zn  Zn108  1  0.44381012  0.43571717  0.18403018  1
  Zn  Zn109  1  0.48038562  0.42581455  0.62232508  1
  Zn  Zn110  1  0.45065143  0.93848986  0.18913772  1
  Zn  Zn111  1  0.42612480  0.90957153  0.69886066  1
  Zn  Zn112  1  0.81610294  0.34314820  0.15347490  1
  Zn  Zn113  1  0.94602799  0.43890927  0.69257542  1
  Zn  Zn114  1  0.94900272  0.94667585  0.17650577  1
  Zn  Zn115  1  0.80921378  0.93589141  0.68097242  1
  Zn  Zn116  1  0.05461757  0.07240929  0.29958530  1
  Zn  Zn117  1  0.06086495  0.06555007  0.80885421  1
  Zn  Zn118  1  0.05782101  0.56391169  0.31377497  1
  Zn  Zn119  1  0.08539404  0.57507969  0.81599981  1
  Zn  Zn120  1  0.57120914  0.06983321  0.30821831  1
  Zn  Zn121  1  0.55778506  0.05328031  0.80987866  1
  Zn  Zn122  1  0.55920550  0.53851765  0.29710607  1
  Zn  Zn123  1  0.52730424  0.50295744  0.78976614  1
  Zn  Zn124  1  0.46874636  0.20831535  0.46505979  1
  Zn  Zn125  1  0.43263113  0.17627191  0.95158157  1
  Zn  Zn126  1  0.47168178  0.72472927  0.45936970  1
  Zn  Zn127  1  0.45002251  0.70532358  0.97509482  1
  Zn  Zn128  1  0.94202352  0.17449940  0.44107401  1
  Zn  Zn129  1  0.93578808  0.19172385  0.93773407  1
  Zn  Zn130  1  0.93683984  0.68682789  0.43292232  1
  Zn  Zn131  1  0.94117057  0.69732718  0.93353347  1
  Zn  Zn132  1  0.00517534  0.34743421  0.09423156  1
  Zn  Zn133  1  0.06367466  0.30795577  0.56140819  1
  Zn  Zn134  1  0.06748265  0.80340429  0.06021314  1
  Zn  Zn135  1  0.03291002  0.82653347  0.54581248  1
  Zn  Zn136  1  0.54858237  0.29772975  0.05766170  1
  Zn  Zn137  1  0.57411901  0.30465256  0.55650594  1
  Zn  Zn138  1  0.56460041  0.82072289  0.06502384  1
  Zn  Zn139  1  0.52946594  0.84044142  0.57969942  1
  O  O140  1  0.12013056  0.12363220  0.10729765  1
  O  O141  1  0.11903211  0.11642105  0.63980321  1
  O  O142  1  0.12745199  0.63054722  0.10609179  1
  O  O143  1  0.11734681  0.61888064  0.61589871  1
  O  O144  1  0.63505258  0.11006110  0.12679866  1
  O  O145  1  0.61765655  0.12049427  0.61691462  1
  O  O146  1  0.63151453  0.62028649  0.12936863  1
  O  O147  1  0.60415592  0.62431738  0.63449103  1
  O  O148  1  0.35970269  0.38983026  0.36810518  1
  O  O149  1  0.44314675  0.31241837  0.84661083  1
  O  O150  1  0.36897697  0.88140098  0.38329208  1
  O  O151  1  0.37925321  0.88567528  0.88675542  1
  O  O152  1  0.88751816  0.36827972  0.39508300  1
  O  O153  1  0.90465022  0.37701210  0.87983310  1
  O  O154  1  0.81842024  0.90231065  0.40829118  1
  O  O155  1  0.86744723  0.88750102  0.88144312  1
  O  O156  1  0.26280675  -0.01967252  0.37603941  1
  O  O157  1  0.25601411  0.00852817  0.87652738  1
  O  O158  1  0.25160329  0.51352729  0.36896029  1
  O  O159  1  0.33132119  0.45165420  0.85359524  1
  O  O160  1  0.75417267  0.01628543  0.34942166  1
  O  O161  1  0.76514634  0.02008071  0.87728776  1
  O  O162  1  0.73755856  0.48699284  0.36923319  1
  O  O163  1  0.74896693  0.51154804  0.87300498  1
  O  O164  1  0.24373969  0.50567508  0.14027323  1
  O  O165  1  0.24930002  0.48924937  0.61607690  1
  O  O166  1  0.22748188  1.00707898  0.11824096  1
  O  O167  1  0.24082601  0.99164047  0.57850679  1
  O  O168  1  0.74272685  0.47881676  0.11442564  1
  O  O169  1  0.75735796  0.49174763  0.64760563  1
  O  O170  1  0.74437772  0.99362175  0.12554853  1
  O  O171  1  0.77725237  0.98034264  0.58658962  1
  O  O172  1  0.00688937  0.38196549  0.27343706  1
  O  O173  1  0.01428084  0.37221074  0.76187609  1
  O  O174  1  0.00011126  0.86960728  0.24751200  1
  O  O175  1  -0.01070874  0.86865539  0.74526600  1
  O  O176  1  0.50154642  0.35305411  0.24575326  1
  O  O177  1  0.51157996  0.40284682  0.73332111  1
  O  O178  1  0.52010699  0.85666337  0.24055968  1
  O  O179  1  0.51256695  0.87159762  0.77646441  1
  O  O180  1  0.50617439  0.12617454  0.23630393  1
  O  O181  1  0.50934469  0.12083996  0.73259997  1
  O  O182  1  0.49490296  0.62727303  0.23454856  1
  O  O183  1  0.50010216  0.61781439  0.76270708  1
  O  O184  1  0.98224904  0.13475915  0.23142042  1
  O  O185  1  0.99202102  0.13647719  0.74446524  1
  O  O186  1  0.98344877  0.62308296  0.25310074  1
  O  O187  1  0.99725245  0.62269280  0.74513141  1
  O  O188  1  0.37446102  0.26180300  -0.00556071  1
  O  O189  1  0.36450119  0.24592240  0.49985182  1
  O  O190  1  0.35985460  0.76334776  0.00936713  1
  O  O191  1  0.37327517  0.72997671  0.51530404  1
  O  O192  1  0.85702959  0.25086087  -0.01107101  1
  O  O193  1  0.87883459  0.26424512  0.52131111  1
  O  O194  1  0.86901324  0.76527948  -0.00187933  1
  O  O195  1  0.86079968  0.73142815  0.51288610  1
  O  O196  1  0.13882909  0.25775278  0.49106918  1
  O  O197  1  0.12491341  0.24040592  0.97930482  1
  O  O198  1  0.10877615  0.73928049  0.48697472  1
  O  O199  1  0.14746292  0.75277761  0.99156120  1
  O  O200  1  0.61987457  0.23378330  0.48332833  1
  O  O201  1  0.63643369  0.25328521  0.99583407  1
  O  O202  1  0.63263573  0.71256127  0.46798157  1
  O  O203  1  0.64172039  0.75381191  1.00611024  1
  O  O204  1  0.50288874  0.23324788  0.14084147  1
  O  O205  1  0.48641057  0.25361321  0.61626660  1
  O  O206  1  0.51771964  0.73487403  0.13774649  1
  O  O207  1  0.49406808  0.73150350  0.63215544  1
  O  O208  1  1.00680071  0.23454911  0.11556874  1
  O  O209  1  0.99345620  0.25811412  0.64441956  1
  O  O210  1  0.99980107  0.75484767  0.14270128  1
  O  O211  1  0.99375383  0.74030013  0.63148297  1
  O  O212  1  0.00951760  0.26737455  0.39083132  1
  O  O213  1  0.01462460  0.24934635  0.86585764  1
  O  O214  1  0.00872600  0.75085202  0.36713171  1
  O  O215  1  0.00270783  0.75730893  0.85597921  1
  O  O216  1  0.51495402  0.23833406  0.36667226  1
  O  O217  1  0.49371785  0.24961125  0.86865691  1
  O  O218  1  0.52527092  0.73341363  0.34965457  1
  O  O219  1  0.47391078  0.75961274  0.87751337  1
  O  O220  1  0.24516509  0.14073022  0.50447259  1
  O  O221  1  0.23405232  0.12479676  0.98507239  1
  O  O222  1  0.24117534  0.62289060  0.48998835  1
  O  O223  1  0.25035880  0.64902063  1.00599109  1
  O  O224  1  0.73844851  0.12766246  0.50685287  1
  O  O225  1  0.74856509  0.13593480  0.98644976  1
  O  O226  1  0.73252740  0.63254179  0.52542955  1
  O  O227  1  0.76009757  0.63109427  0.99115177  1
  O  O228  1  0.26042980  0.38133303  -0.00955528  1
  O  O229  1  0.24737517  0.36920431  0.51012329  1
  O  O230  1  0.26074232  0.86554443  0.00563938  1
  O  O231  1  0.26369187  0.92181696  0.56063625  1
  O  O232  1  0.75054624  0.36077394  -0.02621159  1
  O  O233  1  0.76272933  0.38947873  0.52454740  1
  O  O234  1  0.75694158  0.86969939  0.00209058  1
  O  O235  1  0.72133727  0.82024864  0.52405472  1
  O  O236  1  0.13112383  0.49531493  0.25716018  1
  O  O237  1  0.12970972  0.49666862  0.73646093  1
  O  O238  1  0.12145495  1.00127717  0.23768812  1
  O  O239  1  0.13031468  0.98959857  0.73301635  1
  O  O240  1  0.64226804  0.49170345  0.23337691  1
  O  O241  1  0.64275077  0.50832918  0.75537594  1
  O  O242  1  0.63532721  0.98923219  0.24209197  1
  O  O243  1  0.62798702  0.97292608  0.76798446  1
  O  O244  1  0.37060233  -0.02613471  0.26780412  1
  O  O245  1  0.37065775  -0.01236497  0.76581542  1
  O  O246  1  0.35792410  0.50963900  0.25886311  1
  O  O247  1  0.35575421  0.47207757  0.78751742  1
  O  O248  1  0.86490567  -0.00219453  0.23733179  1
  O  O249  1  0.86785138  0.01456750  0.75450696  1
  O  O250  1  0.86558681  0.50427061  0.26068887  1
  O  O251  1  0.87637392  0.51127485  0.75322329  1
  O  O252  1  0.11373434  0.37184990  0.37712813  1
  O  O253  1  0.12700699  0.36094499  0.86290171  1
  O  O254  1  0.13430895  0.85865222  0.37390124  1
  O  O255  1  0.12764929  0.86020982  0.88335252  1
  O  O256  1  0.62861506  0.35714878  0.38183616  1
  O  O257  1  0.60800382  0.37706800  0.86096098  1
  O  O258  1  0.63616007  0.87450845  0.35677758  1
  O  O259  1  0.60757285  0.87569932  0.89696713  1
  O  O260  1  0.38249129  0.11318679  0.12664173  1
  O  O261  1  0.39224621  0.13119293  0.61906462  1
  O  O262  1  0.36846654  0.62465343  0.13975105  1
  O  O263  1  0.36815388  0.65198568  0.65330676  1
  O  O264  1  0.88603531  0.12505240  0.12039440  1
  O  O265  1  0.87917997  0.14084922  0.64162040  1
  O  O266  1  0.86044105  0.63462254  0.15154253  1
  O  O267  1  0.88966693  0.62498129  0.63886341  1
  O  O268  1  0.22960031  0.25965293  0.12305395  1
  O  O269  1  0.25972252  0.25883317  0.61190251  1
  O  O270  1  0.24415289  0.75609308  0.13082764  1
  O  O271  1  0.25698324  0.77011111  0.61227192  1
  O  O272  1  0.74819693  0.25863805  0.10702202  1
  O  O273  1  0.76309587  0.26916332  0.64653001  1
  O  O274  1  0.75965354  0.76409326  0.11605539  1
  O  O275  1  0.76982238  0.73228227  0.64296173  1
  O  O276  1  0.23870907  0.25206248  0.38503056  1
  O  O277  1  0.24174211  0.23695972  0.86729311  1
  O  O278  1  0.23341212  0.73282229  0.36624517  1
  O  O279  1  0.24994798  0.76260124  0.85259953  1
  O  O280  1  0.73817550  0.24100310  0.37013168  1
  O  O281  1  0.74743836  0.23459227  0.87519643  1
  O  O282  1  0.74644223  0.74314626  0.37940998  1
  O  O283  1  0.75999145  0.73255270  0.88393056  1
  O  O284  1  0.01078991  0.12791166  0.00027436  1
  O  O285  1  0.01128035  0.16425076  0.53188446  1
  O  O286  1  0.02196762  0.64981747  -0.00542365  1
  O  O287  1  0.00427750  0.61876580  0.50818364  1
  O  O288  1  0.50488100  0.12976888  0.02415618  1
  O  O289  1  0.51589527  0.11524336  0.51471090  1
  O  O290  1  0.50299010  0.62098740  0.02527902  1
  O  O291  1  0.51725411  0.62560661  0.49862342  1
  O  O292  1  0.52112194  0.39682198  0.52308794  1
  O  O293  1  0.49299883  0.38618131  1.01095322  1
  O  O294  1  0.51298737  0.83029339  0.47187246  1
  O  O295  1  0.48272751  0.86366362  0.99615855  1
  O  O296  1  0.99364669  0.38419630  0.50351642  1
  O  O297  1  1.03803667  0.38401650  0.98217435  1
  O  O298  1  0.96380584  0.88412343  0.47848103  1
  O  O299  1  0.98714523  0.86780785  0.99795781  1
  O  O300  1  0.47864315  0.50162889  0.36219534  1
  O  O301  1  0.50188119  0.50594653  0.89987560  1
  O  O302  1  0.47354955  0.99693804  0.36336525  1
  O  O303  1  0.48532955  0.98937476  0.87949956  1
  O  O304  1  1.00658946  0.48893465  0.39342415  1
  O  O305  1  1.01818828  0.49356346  0.86727417  1
  O  O306  1  0.98874378  0.99167076  0.34641292  1
  O  O307  1  0.98296946  1.00300729  0.86466214  1
  O  O308  1  0.01589458  0.02219724  0.12376552  1
  O  O309  1  -0.00877325  0.02838169  0.62151042  1
  O  O310  1  -0.02953033  0.52217819  0.06547321  1
  O  O311  1  0.01192598  0.50775147  0.62093603  1
  O  O312  1  0.51667951  0.00982010  0.13131541  1
  O  O313  1  0.49005300  -0.00028564  0.63487314  1
  O  O314  1  0.51855479  0.50892834  0.13173287  1
  O  O315  1  0.45775175  0.53757914  0.62766086  1
  O  O316  1  0.23060236  0.39234908  0.25879805  1
  O  O317  1  0.24032172  0.36758336  0.72764446  1
  O  O318  1  0.26268373  0.87349740  0.24645337  1
  O  O319  1  0.18155697  0.93778527  0.75158886  1
  O  O320  1  0.76712484  0.38755305  0.24742297  1
  O  O321  1  0.76023569  0.39082283  0.75305545  1
  O  O322  1  0.74869222  0.88556962  0.23892431  1
  O  O323  1  0.74512712  0.87199608  0.75100472  1
  O  O324  1  0.21711405  0.10654674  0.26112458  1
  O  O325  1  0.24861025  0.12181873  0.76164609  1
  O  O326  1  0.24914189  0.61657111  0.25765675  1
  O  O327  1  0.29038630  0.60075288  0.85722919  1
  O  O328  1  0.77055714  0.11908202  0.22914983  1
  O  O329  1  0.76093756  0.13562452  0.75656057  1
  O  O330  1  0.75732674  0.60034674  0.25146696  1
  O  O331  1  0.76409551  0.61552066  0.76494211  1
  O  O332  1  0.35364808  0.08955941  0.35840081  1
  O  O333  1  0.36460620  0.10953900  0.88067169  1
  O  O334  1  0.35763355  0.62646242  0.36472317  1
  O  O335  1  0.35731154  0.63025163  0.85190188  1
  O  O336  1  0.87501592  0.15114515  0.34669600  1
  O  O337  1  0.87664971  0.11893519  0.86165167  1
  O  O338  1  0.86924440  0.62901766  0.36311408  1
  O  O339  1  0.87958624  0.62530705  0.86495214  1
  O  O340  1  0.10390802  0.37784680  0.14731853  1
  O  O341  1  0.12965561  0.38540232  0.62761643  1
  O  O342  1  0.11554935  0.89178358  0.11584148  1
  O  O343  1  0.10754797  0.88146738  0.60725208  1
  O  O344  1  0.62239543  0.37040558  0.12465275  1
  O  O345  1  0.64662073  0.36958042  0.62922582  1
  O  O346  1  0.63775808  0.88490117  0.12871268  1
  O  O347  1  0.61543067  0.87310875  0.64290800  1
  O  O348  1  0.13043407  0.26980274  0.26784366  1
  O  O349  1  0.11993211  0.25752432  0.75093714  1
  O  O350  1  0.10816199  0.74331372  0.26367509  1
  O  O351  1  0.11583934  0.76122087  0.75305722  1
  O  O352  1  0.61870169  0.23710340  0.26680998  1
  O  O353  1  0.60721326  0.26182162  0.74512381  1
  O  O354  1  0.64015680  0.75748995  0.25421872  1
  O  O355  1  0.63055193  0.76387164  0.76443215  1
  O  O356  1  0.39376823  0.23631645  0.26797584  1
  O  O357  1  0.37095820  0.24630232  0.72794608  1
  O  O358  1  0.39505907  0.74393013  0.25772082  1
  O  O359  1  0.36657263  0.80525822  0.71962637  1
  O  O360  1  0.86670201  0.25680956  0.23176753  1
  O  O361  1  0.88501783  0.24730561  0.75199652  1
  O  O362  1  0.88649476  0.75925868  0.26002400  1
  O  O363  1  0.88826020  0.73726610  0.74486189  1
  O  O364  1  0.36728651  0.50763780  0.48240487  1
  O  O365  1  0.39155394  0.50599110  1.01641337  1
  O  O366  1  0.37661773  0.99855917  0.47549610  1
  O  O367  1  0.36463606  0.98698944  0.99332552  1
  O  O368  1  0.88706116  0.49319036  0.51471618  1
  O  O369  1  0.91275512  0.52625440  1.02009953  1
  O  O370  1  0.90839733  1.06002478  0.47266234  1
  O  O371  1  0.87519683  0.99162859  0.98593215  1
  O  O372  1  0.12228904  0.01153567  -0.00142923  1
  O  O373  1  0.07248310  0.00817334  0.47908010  1
  O  O374  1  0.13966171  0.52967120  -0.01798351  1
  O  O375  1  0.11899619  0.50925141  0.51024080  1
  O  O376  1  0.63080909  -0.00181695  0.01236818  1
  O  O377  1  0.64000288  0.00142803  0.49682356  1
  O  O378  1  0.61347805  0.49203485  0.01784979  1
  O  O379  1  0.62941199  0.51455120  0.51278425  1
  O  O380  1  0.35699789  0.37004093  0.16378114  1
  O  O381  1  0.36653904  0.36869409  0.62117002  1
  O  O382  1  0.38161765  0.88576238  0.11715393  1
  O  O383  1  0.41264067  0.85900600  0.59635021  1
  O  O384  1  0.90017779  0.38766892  0.09486893  1
  O  O385  1  0.87505746  0.37293817  0.62720556  1
  O  O386  1  0.86964571  0.88550248  0.10622775  1
  O  O387  1  0.87631056  0.84961602  0.63005496  1
  O  O388  1  0.10517181  0.14905227  0.36991278  1
  O  O389  1  0.13304864  0.12975490  0.87421478  1
  O  O390  1  0.13039962  0.62511868  0.38579826  1
  O  O391  1  0.13259282  0.65448173  0.87957082  1
  O  O392  1  0.63014870  0.11886974  0.39009955  1
  O  O393  1  0.63450477  0.11718470  0.86932899  1
  O  O394  1  0.63316966  0.61782298  0.34531317  1
  O  O395  1  0.63965153  0.63015073  0.87752269  1
