# generated using pymatgen
data_V35Zn35O128
_symmetry_space_group_name_H-M   'P 1'
_cell_length_a   16.90963556
_cell_length_b   16.86771040
_cell_length_c   16.96034143
_cell_angle_alpha   90.00203167
_cell_angle_beta   90.35129990
_cell_angle_gamma   89.64291736
_symmetry_Int_Tables_number   1
_chemical_formula_structural   V35Zn35O128
_chemical_formula_sum   'V70 Zn70 O256'
_cell_volume   4837.35964051
_cell_formula_units_Z   2
loop_
 _symmetry_equiv_pos_site_id
 _symmetry_equiv_pos_as_xyz
  1  'x, y, z'
loop_
 _atom_site_type_symbol
 _atom_site_label
 _atom_site_symmetry_multiplicity
 _atom_site_fract_x
 _atom_site_fract_y
 _atom_site_fract_z
 _atom_site_occupancy
  V  V0  1  0.47245771  0.49300533  0.00371370  1
  V  V1  1  0.00901125  0.24733676  0.74773724  1
  V  V2  1  0.62979841  0.00291365  0.63334732  1
  V  V3  1  0.50414182  0.00436194  0.00099055  1
  V  V4  1  0.13205048  0.74853830  0.86785774  1
  V  V5  1  0.62517289  0.49713226  0.63657249  1
  V  V6  1  0.74846425  0.60966176  0.36688599  1
  V  V7  1  0.24326071  0.38482991  0.61958716  1
  V  V8  1  0.62466189  0.26661723  0.87540708  1
  V  V9  1  0.76146656  0.61112286  0.88376581  1
  V  V10  1  0.12192356  0.39263035  0.73742243  1
  V  V11  1  0.24651090  0.75409470  -0.00042745  1
  V  V12  1  0.35536344  0.62079259  0.76588162  1
  V  V13  1  0.49572887  0.64091278  0.14146022  1
  V  V14  1  0.87181920  -0.00764554  0.36553685  1
  V  V15  1  0.87005809  -0.00082229  0.87694735  1
  V  V16  1  0.49386630  0.37234040  0.39605870  1
  V  V17  1  0.48852868  0.50390570  0.50431780  1
  V  V18  1  0.50856964  0.88120101  0.36842804  1
  V  V19  1  -0.01554974  0.23707491  0.27132250  1
  V  V20  1  0.23673194  0.89200495  0.12761675  1
  V  V21  1  0.74860258  0.11692321  0.35517524  1
  V  V22  1  0.87323567  0.24408843  0.62643258  1
  V  V23  1  0.00820573  0.12827620  0.12457598  1
  V  V24  1  0.27709881  0.26626443  0.05481151  1
  V  V25  1  0.49587923  0.75574003  0.75235274  1
  V  V26  1  0.37803028  0.11911891  0.74149779  1
  V  V27  1  0.24178106  0.25216622  0.49681971  1
  V  V28  1  0.36918182  0.00424436  0.86924155  1
  V  V29  1  0.49961019  0.26348717  0.75594884  1
  V  V30  1  0.12062593  0.11695041  0.50602657  1
  V  V31  1  0.37778850  0.25043370  0.61698678  1
  V  V32  1  0.31117399  0.52322711  0.28176469  1
  V  V33  1  0.63332001  0.75245592  0.36695626  1
  V  V34  1  0.62662177  0.50419517  0.13681548  1
  V  V35  1  0.26281856  0.87346348  0.63444523  1
  V  V36  1  0.37925602  0.11535467  0.25442899  1
  V  V37  1  0.24772222  0.11965635  0.37881458  1
  V  V38  1  0.50941482  0.01451414  0.50338107  1
  V  V39  1  0.38497839  0.87062734  0.49746280  1
  V  V40  1  0.73984671  0.23695902  0.50011845  1
  V  V41  1  0.87509890  0.25085105  0.10251671  1
  V  V42  1  0.87110071  0.38353858  0.49514194  1
  V  V43  1  0.24074012  0.13568608  0.87491682  1
  V  V44  1  0.65137598  0.88247859  0.24103659  1
  V  V45  1  0.49645591  0.12365843  0.12401158  1
  V  V46  1  0.76175761  0.75602074  0.00584671  1
  V  V47  1  0.00453394  0.61707897  0.59751528  1
  V  V48  1  0.60948640  0.62844013  -0.00560628  1
  V  V49  1  0.22949642  -0.00185649  0.25737909  1
  V  V50  1  0.62944113  0.12970512  0.00081475  1
  V  V51  1  0.12455789  0.36626423  0.24993085  1
  V  V52  1  0.75287464  0.37001739  0.12865718  1
  V  V53  1  0.48381399  0.63133133  0.63278416  1
  V  V54  1  0.50590356  0.87767093  0.87233983  1
  V  V55  1  0.94247473  0.62200058  0.22657485  1
  V  V56  1  0.50210857  0.26230953  0.23604693  1
  V  V57  1  0.63428256  0.63658308  0.51380539  1
  V  V58  1  0.01423481  0.01263177  -0.00402119  1
  V  V59  1  -0.00523811  0.38310049  0.88073546  1
  V  V60  1  0.37654191  0.88333960  -0.00008116  1
  V  V61  1  -0.00207875  -0.01350584  0.50091312  1
  V  V62  1  -0.00120884  0.87696868  0.87433652  1
  V  V63  1  0.00141969  0.39260565  0.38590607  1
  V  V64  1  0.86260575  0.85906408  0.50454833  1
  V  V65  1  0.89020607  0.62051774  0.73944562  1
  V  V66  1  0.12228557  0.89351843  0.74317285  1
  V  V67  1  0.74424145  0.12735838  0.86396824  1
  V  V68  1  0.74573129  0.37372059  0.63297722  1
  V  V69  1  0.37736373  0.76491266  0.14563071  1
  Zn  Zn70  1  0.74343843  -0.02495296  0.74707098  1
  Zn  Zn71  1  0.62817646  0.75734299  0.87723778  1
  Zn  Zn72  1  0.00522788  0.11554298  0.62821059  1
  Zn  Zn73  1  0.87150962  0.11751066  0.74399281  1
  Zn  Zn74  1  0.62241446  0.24905500  0.37327881  1
  Zn  Zn75  1  0.75059371  0.49260135  0.76429723  1
  Zn  Zn76  1  0.18366133  0.19858623  0.20967187  1
  Zn  Zn77  1  0.19527704  0.17845287  0.68383009  1
  Zn  Zn78  1  0.28224052  0.60123598  0.11373943  1
  Zn  Zn79  1  0.18180751  0.69880411  0.67598930  1
  Zn  Zn80  1  0.68461681  0.19089127  0.18669931  1
  Zn  Zn81  1  0.67571134  0.18512916  0.68468290  1
  Zn  Zn82  1  0.68439832  0.69285913  0.18956789  1
  Zn  Zn83  1  0.68482970  0.68964462  0.70507566  1
  Zn  Zn84  1  0.33126846  0.33326718  0.25922935  1
  Zn  Zn85  1  0.30768608  0.30847031  0.79512347  1
  Zn  Zn86  1  0.32203925  0.77801119  0.35576286  1
  Zn  Zn87  1  0.31478561  0.81227063  0.80953907  1
  Zn  Zn88  1  0.80826768  0.31126698  0.31192927  1
  Zn  Zn89  1  0.81579341  0.30999573  0.81617505  1
  Zn  Zn90  1  0.82858172  0.78957671  0.31795787  1
  Zn  Zn91  1  0.81490507  0.79852993  0.82293924  1
  Zn  Zn92  1  0.19033308  0.43178699  0.41324113  1
  Zn  Zn93  1  0.17537993  0.31845369  0.91458339  1
  Zn  Zn94  1  0.20555715  0.94034435  0.46106438  1
  Zn  Zn95  1  0.18865725  0.94360194  0.93292583  1
  Zn  Zn96  1  0.67564424  0.43146290  0.45018693  1
  Zn  Zn97  1  0.68478068  0.44374560  0.95925144  1
  Zn  Zn98  1  0.68996962  0.93899151  0.44581856  1
  Zn  Zn99  1  0.68940275  0.94117313  0.94096606  1
  Zn  Zn100  1  0.29114983  0.08566267  0.07483464  1
  Zn  Zn101  1  0.31661635  0.05055412  0.55917045  1
  Zn  Zn102  1  0.27452448  0.45000057  0.06069550  1
  Zn  Zn103  1  0.30974203  0.58384975  0.45004316  1
  Zn  Zn104  1  0.82192439  0.07805651  0.05002443  1
  Zn  Zn105  1  0.81041707  0.05138477  0.56171861  1
  Zn  Zn106  1  0.79760832  0.60867440  0.09553291  1
  Zn  Zn107  1  0.81455696  0.56556386  0.57101969  1
  Zn  Zn108  1  0.45548441  0.47285672  0.21545975  1
  Zn  Zn109  1  0.42252922  0.44215460  0.68680984  1
  Zn  Zn110  1  0.44809331  0.94048235  0.19092157  1
  Zn  Zn111  1  0.44938536  0.94011986  0.67910867  1
  Zn  Zn112  1  0.90113534  0.42103647  0.22038308  1
  Zn  Zn113  1  0.93505256  0.44323440  0.68252834  1
  Zn  Zn114  1  0.92127958  0.95261193  0.16873522  1
  Zn  Zn115  1  0.92906311  0.93349506  0.68576194  1
  Zn  Zn116  1  0.05554550  0.06723984  0.32101476  1
  Zn  Zn117  1  0.06089642  0.06464662  0.80834508  1
  Zn  Zn118  1  0.13827355  0.54960198  0.19315180  1
  Zn  Zn119  1  0.07050165  0.55946172  0.82108468  1
  Zn  Zn120  1  0.57429276  0.05802871  0.30838501  1
  Zn  Zn121  1  0.55967236  0.06880123  0.80789077  1
  Zn  Zn122  1  0.59604714  0.53855632  0.33789986  1
  Zn  Zn123  1  0.54445167  0.55191878  0.81877363  1
  Zn  Zn124  1  0.43049236  0.18971041  0.42892949  1
  Zn  Zn125  1  0.43399554  0.19251999  0.93408960  1
  Zn  Zn126  1  0.45207472  0.69496971  0.44136092  1
  Zn  Zn127  1  0.42699164  0.68891828  0.93606955  1
  Zn  Zn128  1  0.92224850  0.17691136  0.44831064  1
  Zn  Zn129  1  0.93716325  0.18997838  0.92957302  1
  Zn  Zn130  1  0.92822962  0.67303311  0.41340890  1
  Zn  Zn131  1  0.92679454  0.70010187  0.90590458  1
  Zn  Zn132  1  0.07032422  0.31154013  0.06707330  1
  Zn  Zn133  1  0.05940799  0.30910696  0.56090672  1
  Zn  Zn134  1  0.06178670  0.82383336  0.05382065  1
  Zn  Zn135  1  0.02180065  0.81604950  0.58646483  1
  Zn  Zn136  1  0.56516630  0.31828085  0.06334522  1
  Zn  Zn137  1  0.56052708  0.31064681  0.56711306  1
  Zn  Zn138  1  0.56587334  0.81674876  0.06444395  1
  Zn  Zn139  1  0.56245881  0.82057513  0.56578087  1
  O  O140  1  0.10592265  0.13328583  0.12775561  1
  O  O141  1  0.13022496  0.11468217  0.60931290  1
  O  O142  1  0.05668597  0.60299326  0.01936692  1
  O  O143  1  0.10641509  0.63512695  0.62192833  1
  O  O144  1  0.62098655  0.13251418  0.10586696  1
  O  O145  1  0.62042082  0.10927835  0.62537299  1
  O  O146  1  0.60941979  0.62821162  0.11878596  1
  O  O147  1  0.62567596  0.61839929  0.62568496  1
  O  O148  1  0.40090979  0.37994842  0.35786960  1
  O  O149  1  0.35484191  0.39563092  0.86196001  1
  O  O150  1  0.40611187  0.86472488  0.37792067  1
  O  O151  1  0.38224053  0.88629103  0.87974203  1
  O  O152  1  0.87724093  0.37273439  0.38953782  1
  O  O153  1  0.89377133  0.37285468  0.86647685  1
  O  O154  1  0.86717194  0.88689939  0.38356485  1
  O  O155  1  0.89071488  0.88075904  0.86657195  1
  O  O156  1  0.24470408  0.00218832  0.36508767  1
  O  O157  1  0.26534598  0.00505206  0.87085063  1
  O  O158  1  0.27362212  0.49888603  0.37812871  1
  O  O159  1  0.29905648  0.44592503  0.88536512  1
  O  O160  1  0.75698437  0.00855025  0.37680636  1
  O  O161  1  0.75320293  0.00402214  0.86845201  1
  O  O162  1  0.70668960  0.51228666  0.37500959  1
  O  O163  1  0.73297601  0.50923102  0.87907683  1
  O  O164  1  0.19945049  0.52623502  0.09801789  1
  O  O165  1  0.25562417  0.47913976  0.61503488  1
  O  O166  1  0.24909150  0.99983200  0.13682665  1
  O  O167  1  0.23794484  0.95910509  0.57652057  1
  O  O168  1  0.72557439  0.52393068  0.13833117  1
  O  O169  1  0.73540521  0.49371230  0.62900200  1
  O  O170  1  0.76611798  0.98816673  0.11125837  1
  O  O171  1  0.73834864  0.99745196  0.63010162  1
  O  O172  1  -0.00575532  0.36370340  0.27621353  1
  O  O173  1  0.00674263  0.36487119  0.73688294  1
  O  O174  1  -0.03741396  0.84260356  0.19017866  1
  O  O175  1  0.00995076  0.88737350  0.76435501  1
  O  O176  1  0.49450143  0.36281816  0.23404339  1
  O  O177  1  0.48559085  0.36267919  0.74619762  1
  O  O178  1  0.51993847  0.88354977  0.26390935  1
  O  O179  1  0.48991090  0.86336174  0.75690694  1
  O  O180  1  0.49883648  0.12186674  0.24162573  1
  O  O181  1  0.48434725  0.14116295  0.75357736  1
  O  O182  1  0.50909484  0.64415988  0.23589638  1
  O  O183  1  0.48606449  0.62818347  0.74465989  1
  O  O184  1  0.99472290  0.12968141  0.23745232  1
  O  O185  1  0.99371039  0.13372172  0.74354803  1
  O  O186  1  1.04430994  0.61334964  0.21079858  1
  O  O187  1  0.98876805  0.60815984  0.75386453  1
  O  O188  1  0.35777376  0.24685705  -0.00376896  1
  O  O189  1  0.36442960  0.24087950  0.51271296  1
  O  O190  1  0.36536536  0.77347955  -0.00596331  1
  O  O191  1  0.41422160  0.77684911  0.51874938  1
  O  O192  1  0.86955662  0.24966115  0.00317797  1
  O  O193  1  0.85909725  0.25472825  0.51024362  1
  O  O194  1  0.86125588  0.74793427  -0.01024047  1
  O  O195  1  0.88432748  0.76514781  0.47342328  1
  O  O196  1  0.13548870  0.23312142  0.50689925  1
  O  O197  1  0.17527643  0.28385342  1.02071325  1
  O  O198  1  0.12429637  0.78077404  0.48831257  1
  O  O199  1  0.13982371  0.76668010  0.99233333  1
  O  O200  1  0.63747392  0.25523671  0.50134169  1
  O  O201  1  0.61328059  0.24134863  0.98510723  1
  O  O202  1  0.62698675  0.73864985  0.51469995  1
  O  O203  1  0.62304884  0.73697814  0.99933973  1
  O  O204  1  0.50744544  0.24092508  0.13127191  1
  O  O205  1  0.48431965  0.25380946  0.63128703  1
  O  O206  1  0.48561891  0.75371567  0.12116036  1
  O  O207  1  0.50817502  0.73986643  0.64322108  1
  O  O208  1  0.98849552  0.23989472  0.11604216  1
  O  O209  1  0.98749588  0.24498487  0.62846795  1
  O  O210  1  0.97943071  0.79302300  0.13272752  1
  O  O211  1  1.00571198  0.72105675  0.63969879  1
  O  O212  1  -0.01477069  0.23233670  0.37075481  1
  O  O213  1  -0.00334427  0.25082524  0.85064029  1
  O  O214  1  0.06723059  0.69037008  0.35741099  1
  O  O215  1  0.01745291  0.77119534  0.88695426  1
  O  O216  1  0.50013956  0.26250150  0.37377489  1
  O  O217  1  0.50652802  0.25460508  0.86463000  1
  O  O218  1  0.52605249  0.76653127  0.38924976  1
  O  O219  1  0.49457245  0.76325314  0.87139687  1
  O  O220  1  0.24181021  0.12052692  0.49688272  1
  O  O221  1  0.25439302  0.12063885  0.97431285  1
  O  O222  1  0.19792338  0.58371942  0.50387074  1
  O  O223  1  0.25734287  0.65745073  1.00976080  1
  O  O224  1  0.74957698  0.13670878  0.50270827  1
  O  O225  1  0.73419909  0.12333881  0.98684886  1
  O  O226  1  0.73420522  0.61800675  0.50391617  1
  O  O227  1  0.73329414  0.62472612  0.99382977  1
  O  O228  1  0.30189543  0.34835525  0.10744020  1
  O  O229  1  0.23713819  0.35920930  0.50510879  1
  O  O230  1  0.25937918  0.88884885  0.01197353  1
  O  O231  1  0.28792092  0.85574824  0.45757382  1
  O  O232  1  0.76342225  0.40501578  0.03377985  1
  O  O233  1  0.75489098  0.36528394  0.50840996  1
  O  O234  1  0.73810091  0.85445757  -0.00394248  1
  O  O235  1  0.76299098  0.87147009  0.50680833  1
  O  O236  1  0.14904832  0.46360045  0.27385592  1
  O  O237  1  0.12378809  0.49126835  0.74300979  1
  O  O238  1  0.13024390  1.00371982  0.25503801  1
  O  O239  1  0.12738609  0.99361488  0.74661210  1
  O  O240  1  0.59227802  0.50120859  0.23275788  1
  O  O241  1  0.61810750  0.50575482  0.73895928  1
  O  O242  1  0.64302400  0.98321728  0.25124092  1
  O  O243  1  0.62476387  1.00235433  0.74291979  1
  O  O244  1  0.37485344  0.01225640  0.24747328  1
  O  O245  1  0.38816431  0.01250905  0.75284909  1
  O  O246  1  0.40518130  0.55494921  0.29228799  1
  O  O247  1  0.36871078  0.52152529  0.74364021  1
  O  O248  1  0.88452680  -0.00744902  0.26698549  1
  O  O249  1  0.86637163  -0.00234670  0.75864403  1
  O  O250  1  0.91005800  0.52906209  0.25013787  1
  O  O251  1  0.86433370  0.51498413  0.74368643  1
  O  O252  1  0.10461343  0.36407986  0.38210023  1
  O  O253  1  0.10798108  0.36713345  0.84129626  1
  O  O254  1  0.13242142  0.83058704  0.43403238  1
  O  O255  1  0.11762148  0.88013838  0.86543694  1
  O  O256  1  0.60216659  0.37247888  0.37986748  1
  O  O257  1  0.63199608  0.36473587  0.88865655  1
  O  O258  1  0.63252951  0.86514647  0.37195462  1
  O  O259  1  0.60941379  0.87845987  0.87965712  1
  O  O260  1  0.39311565  0.11830944  0.13115049  1
  O  O261  1  0.36601887  0.13105078  0.63454434  1
  O  O262  1  0.38169986  0.65542013  0.12880404  1
  O  O263  1  0.38782398  0.63383993  0.62462646  1
  O  O264  1  0.87849722  0.14267887  0.12230173  1
  O  O265  1  0.87194988  0.13362839  0.62249026  1
  O  O266  1  0.89688755  0.63919889  0.13706034  1
  O  O267  1  0.88154524  0.63485180  0.63463289  1
  O  O268  1  0.26091623  0.19281543  0.12505937  1
  O  O269  1  0.25819847  0.24926002  0.61387750  1
  O  O270  1  0.26680926  0.77712562  0.11385584  1
  O  O271  1  0.23794038  0.77965618  0.60878411  1
  O  O272  1  0.75597775  0.26271251  0.12527697  1
  O  O273  1  0.74951717  0.25462623  0.61843504  1
  O  O274  1  0.75329821  0.72683458  0.10654115  1
  O  O275  1  0.73755374  0.79713870  0.68065228  1
  O  O276  1  0.25495201  0.23688134  0.39740012  1
  O  O277  1  0.24747110  0.24186168  0.86523889  1
  O  O278  1  0.20904361  0.74459807  0.30181769  1
  O  O279  1  0.24173633  0.76809891  0.88845418  1
  O  O280  1  0.75028790  0.24082961  0.38601409  1
  O  O281  1  0.73254355  0.24475651  0.86621342  1
  O  O282  1  0.73742900  0.73071162  0.38162241  1
  O  O283  1  0.74308224  0.73110898  0.89003346  1
  O  O284  1  -0.00249426  0.12074497  0.00355384  1
  O  O285  1  0.01280490  0.12371951  0.50302094  1
  O  O286  1  0.00791480  0.65822874  0.01354723  1
  O  O287  1  -0.00918587  0.63021035  0.49894352  1
  O  O288  1  0.50505966  0.12272318  0.00345095  1
  O  O289  1  0.49456021  0.11213816  0.48364128  1
  O  O290  1  0.50151592  0.62847833  0.00640045  1
  O  O291  1  0.50975013  0.62093575  0.51726798  1
  O  O292  1  0.49105632  0.38591492  0.50342069  1
  O  O293  1  0.49336178  0.39540752  1.02312141  1
  O  O294  1  0.50427565  0.89056412  0.48979359  1
  O  O295  1  0.49610775  0.88502857  0.99319967  1
  O  O296  1  0.98168153  0.36407122  0.49465027  1
  O  O297  1  1.01751030  0.35300959  0.97477548  1
  O  O298  1  1.00103516  0.88566041  0.49314457  1
  O  O299  1  1.00372625  0.89740817  0.98464468  1
  O  O300  1  0.50919819  0.49360371  0.40068350  1
  O  O301  1  0.48860517  0.50380142  0.90339011  1
  O  O302  1  0.51811714  0.98803108  0.38402768  1
  O  O303  1  0.49150059  0.99756660  0.88028531  1
  O  O304  1  1.00292971  0.48801060  0.38730287  1
  O  O305  1  1.00872656  0.48363428  0.87886319  1
  O  O306  1  0.98120665  1.01199164  0.38981188  1
  O  O307  1  0.99303955  1.00190364  0.88074022  1
  O  O308  1  -0.00846053  0.01509388  0.10669987  1
  O  O309  1  -0.01042572  0.00123021  0.60568931  1
  O  O310  1  -0.02866956  0.49101752  0.05594772  1
  O  O311  1  -0.00782225  0.51642251  0.61702034  1
  O  O312  1  0.50365417  0.00710665  0.10964697  1
  O  O313  1  0.50606530  0.00914172  0.61085617  1
  O  O314  1  0.49606886  0.52720941  0.12067892  1
  O  O315  1  0.50407665  0.50991601  0.62376784  1
  O  O316  1  0.21759840  0.31599892  0.25399886  1
  O  O317  1  0.23000377  0.36751730  0.73199865  1
  O  O318  1  0.25203566  0.89469292  0.23655413  1
  O  O319  1  0.24498301  0.88054588  0.73873472  1
  O  O320  1  0.77900986  0.39211213  0.23136677  1
  O  O321  1  0.75471952  0.37460731  0.73649237  1
  O  O322  1  0.74920513  0.85357227  0.25650657  1
  O  O323  1  0.74083728  0.84535215  0.74643369  1
  O  O324  1  0.25312803  0.11313239  0.25999650  1
  O  O325  1  0.26861228  0.12784456  0.75782475  1
  O  O326  1  0.25339685  0.59453921  0.23203384  1
  O  O327  1  0.26031638  0.64471455  0.73980774  1
  O  O328  1  0.75314012  0.12958004  0.25633712  1
  O  O329  1  0.74680732  0.12688470  0.75958104  1
  O  O330  1  0.74229914  0.62608080  0.26679775  1
  O  O331  1  0.75506825  0.62357265  0.77282417  1
  O  O332  1  0.35992023  0.12505664  0.36600598  1
  O  O333  1  0.37110098  0.12066326  0.86252279  1
  O  O334  1  0.34766995  0.67689112  0.40299088  1
  O  O335  1  0.36346861  0.62619059  0.86687577  1
  O  O336  1  0.85655355  0.11052555  0.38301716  1
  O  O337  1  0.86073044  0.11986239  0.87070463  1
  O  O338  1  0.84263893  0.59578768  0.39415417  1
  O  O339  1  0.86056440  0.60229412  0.89759450  1
  O  O340  1  0.09947015  0.38012991  0.15304664  1
  O  O341  1  0.12990275  0.37406932  0.62569494  1
  O  O342  1  0.13912843  0.87939019  0.12166727  1
  O  O343  1  0.11148764  0.87180331  0.64457159  1
  O  O344  1  0.64056988  0.39024455  0.12574642  1
  O  O345  1  0.62927878  0.38815826  0.62183747  1
  O  O346  1  0.63063507  0.86313912  0.14331426  1
  O  O347  1  0.61001791  0.89827247  0.62904723  1
  O  O348  1  0.08872277  0.25141135  0.24863627  1
  O  O349  1  0.10931858  0.24384703  0.73183929  1
  O  O350  1  0.14895423  0.78665084  0.29040312  1
  O  O351  1  0.13547330  0.76836336  0.76648153  1
  O  O352  1  0.60634992  0.24450325  0.25375008  1
  O  O353  1  0.60868421  0.25212142  0.75831620  1
  O  O354  1  0.62449181  0.75580365  0.26544910  1
  O  O355  1  0.59992343  0.73528890  0.76749670  1
  O  O356  1  0.39534089  0.23480809  0.25040955  1
  O  O357  1  0.38220391  0.24182009  0.73889330  1
  O  O358  1  0.36837892  0.77279619  0.24217132  1
  O  O359  1  0.38799792  0.73921311  0.75659492  1
  O  O360  1  0.88528160  0.25290878  0.24240894  1
  O  O361  1  0.88064330  0.24828352  0.73669809  1
  O  O362  1  0.91226477  0.70257994  0.29805894  1
  O  O363  1  0.88523782  0.71451636  0.79184218  1
  O  O364  1  0.39031123  0.51812316  0.50586252  1
  O  O365  1  0.37331868  0.50532974  1.02353022  1
  O  O366  1  0.39428712  0.98596177  0.50288371  1
  O  O367  1  0.38572189  0.99662981  0.98964226  1
  O  O368  1  0.86399125  0.48131741  0.50890381  1
  O  O369  1  0.90743898  0.50438063  1.02350446  1
  O  O370  1  0.88066482  0.98574821  0.49443852  1
  O  O371  1  0.88091341  1.00530258  0.98107588  1
  O  O372  1  0.11338251  0.00932615  -0.00694620  1
  O  O373  1  0.10872264  0.00680792  0.48677385  1
  O  O374  1  0.24858097  0.41428322  -0.05606057  1
  O  O375  1  0.15006181  0.52694794  0.49113687  1
  O  O376  1  0.61439575  0.01784353  -0.01170629  1
  O  O377  1  0.61751014  0.00199794  0.50949938  1
  O  O378  1  0.60940042  0.51439712  0.01962491  1
  O  O379  1  0.61235860  0.51065386  0.52021920  1
  O  O380  1  0.33390670  0.44336982  0.21784909  1
  O  O381  1  0.35751903  0.35851358  0.63037620  1
  O  O382  1  0.38086027  0.87704347  0.11658243  1
  O  O383  1  0.36723217  0.88031771  0.61862494  1
  O  O384  1  0.87633269  0.35751356  0.12358294  1
  O  O385  1  0.86454255  0.36493899  0.61622841  1
  O  O386  1  0.81204128  0.92713408  0.12226035  1
  O  O387  1  0.89941488  0.85771567  0.60535621  1
  O  O388  1  0.13771896  0.12350645  0.38669977  1
  O  O389  1  0.14234740  0.12182517  0.86205483  1
  O  O390  1  0.12467051  0.65358409  0.38339208  1
  O  O391  1  0.12185487  0.64902984  0.86974946  1
  O  O392  1  0.64426505  0.12682782  0.37191309  1
  O  O393  1  0.62742581  0.13559319  0.88061617  1
  O  O394  1  0.61986017  0.63992345  0.39664088  1
  O  O395  1  0.61568702  0.61945191  0.89177628  1
