# generated using pymatgen
data_V35Zn35O128
_symmetry_space_group_name_H-M   'P 1'
_cell_length_a   16.90715822
_cell_length_b   16.87767730
_cell_length_c   16.86844499
_cell_angle_alpha   89.91506996
_cell_angle_beta   89.89970181
_cell_angle_gamma   89.99532583
_symmetry_Int_Tables_number   1
_chemical_formula_structural   V35Zn35O128
_chemical_formula_sum   'V70 Zn70 O256'
_cell_volume   4813.45815939
_cell_formula_units_Z   2
loop_
 _symmetry_equiv_pos_site_id
 _symmetry_equiv_pos_as_xyz
  1  'x, y, z'
loop_
 _atom_site_type_symbol
 _atom_site_label
 _atom_site_symmetry_multiplicity
 _atom_site_fract_x
 _atom_site_fract_y
 _atom_site_fract_z
 _atom_site_occupancy
  V  V0  1  0.50245218  0.85785973  0.86961131  1
  V  V1  1  0.60628234  0.00770822  0.63215350  1
  V  V2  1  0.86799527  0.60296561  0.25069542  1
  V  V3  1  0.00627500  0.75523192  0.74911126  1
  V  V4  1  0.86940278  0.89405976  0.49939515  1
  V  V5  1  0.12170699  0.25353700  0.38344357  1
  V  V6  1  0.12044286  0.74600091  0.37583978  1
  V  V7  1  0.25161999  0.62397613  0.85524950  1
  V  V8  1  -0.00732082  0.00880618  0.00226999  1
  V  V9  1  0.49061835  0.50093045  -0.00075061  1
  V  V10  1  0.37246587  0.87051881  0.00016479  1
  V  V11  1  0.74511155  0.74391292  -0.01135170  1
  V  V12  1  0.35309075  0.23699908  0.63714132  1
  V  V13  1  0.87312458  0.75359559  0.61619646  1
  V  V14  1  0.36647382  0.00455838  0.86925683  1
  V  V15  1  0.62888532  0.62427987  -0.01016345  1
  V  V16  1  -0.01481778  0.37876093  0.37440700  1
  V  V17  1  0.64264932  0.74966676  0.36506103  1
  V  V18  1  0.62434203  0.22814589  0.87212645  1
  V  V19  1  -0.01695921  0.24878158  0.74099709  1
  V  V20  1  -0.00777877  0.74769042  0.25032929  1
  V  V21  1  0.61327913  0.12019951  0.49443074  1
  V  V22  1  0.63077711  0.49495726  0.13514306  1
  V  V23  1  0.86844915  0.62002100  0.75668754  1
  V  V24  1  0.12505218  0.11028274  0.50631170  1
  V  V25  1  0.12202664  0.88139059  0.24985157  1
  V  V26  1  0.12959801  0.24696271  0.87128930  1
  V  V27  1  -0.00887186  0.88663161  0.37979311  1
  V  V28  1  0.23893929  0.87794592  0.63017946  1
  V  V29  1  0.37868509  0.74169265  0.13941213  1
  V  V30  1  0.73706257  0.88267034  0.12551212  1
  V  V31  1  0.37887211  0.74721344  0.64007562  1
  V  V32  1  0.50324316  0.00273641  0.00701247  1
  V  V33  1  0.86368252  0.50653223  0.88181625  1
  V  V34  1  0.25634341  0.75473270  0.49020550  1
  V  V35  1  0.76412598  0.11187325  0.88253470  1
  V  V36  1  0.86991075  0.74873899  0.12675257  1
  V  V37  1  0.75075189  0.25787202  -0.00085264  1
  V  V38  1  0.37522548  0.50721275  0.85013958  1
  V  V39  1  0.50881411  0.38113930  0.86108977  1
  V  V40  1  0.00993857  0.61981541  0.12102177  1
  V  V41  1  0.62091959  0.26493676  0.37409332  1
  V  V42  1  0.27110952  0.37800622  0.11804714  1
  V  V43  1  0.75832878  0.00724332  0.25485524  1
  V  V44  1  0.75346180  0.23939144  0.51650411  1
  V  V45  1  0.25880169  0.50662192  0.26165851  1
  V  V46  1  0.25568311  0.11908400  0.36432750  1
  V  V47  1  0.87172208  0.37351068  0.52874796  1
  V  V48  1  0.75730663  0.37060460  0.13505341  1
  V  V49  1  0.24505547  0.73659159  0.00424264  1
  V  V50  1  0.12632781  0.74861185  0.87896324  1
  V  V51  1  0.61423392  0.48006625  0.63818471  1
  V  V52  1  0.12338523  0.61777251  0.49867949  1
  V  V53  1  -0.01150261  0.37091923  0.87712860  1
  V  V54  1  -0.01174900  0.11190284  0.62479400  1
  V  V55  1  0.12383318  0.00681361  0.12559931  1
  V  V56  1  0.75759978  0.61623457  0.39344785  1
  V  V57  1  0.49833207  0.23634707  0.74199891  1
  V  V58  1  0.75845584  -0.00329863  0.75312794  1
  V  V59  1  0.01266718  0.50283817  -0.00114481  1
  V  V60  1  0.11708685  0.37604732  0.23179748  1
  V  V61  1  0.13516176  0.13835814  0.00465104  1
  V  V62  1  0.43590812  -0.04076240  0.41693101  1
  V  V63  1  0.87576235  0.87562427  -0.00581676  1
  V  V64  1  0.24942875  0.87594744  0.12834790  1
  V  V65  1  0.48996862  0.15304812  0.11417669  1
  V  V66  1  0.00422468  0.61557487  0.62217966  1
  V  V67  1  0.50971514  0.49918441  0.48880167  1
  V  V68  1  0.38156676  0.37537595  0.50908548  1
  V  V69  1  0.00522246  0.87731181  0.87447689  1
  Zn  Zn70  1  0.73660554  0.87155419  0.62106455  1
  Zn  Zn71  1  0.23749154  0.37692234  0.66128276  1
  Zn  Zn72  1  0.61683236  0.86617882  0.74799426  1
  Zn  Zn73  1  0.50313566  0.62944542  0.12802354  1
  Zn  Zn74  1  0.31528115  0.23161123  0.03873046  1
  Zn  Zn75  1  0.25497748  -0.00987440  0.74803841  1
  Zn  Zn76  1  0.18905680  0.19958427  0.19217996  1
  Zn  Zn77  1  0.17146736  0.18634513  0.69111808  1
  Zn  Zn78  1  0.18940082  0.68664977  0.19451258  1
  Zn  Zn79  1  0.18617071  0.69449696  0.67951862  1
  Zn  Zn80  1  0.67181862  0.19075234  0.18701279  1
  Zn  Zn81  1  0.68764809  0.18200582  0.69598909  1
  Zn  Zn82  1  0.68530528  0.68398643  0.18855125  1
  Zn  Zn83  1  0.69434056  0.67554086  0.67706325  1
  Zn  Zn84  1  0.29154116  0.32730983  0.32455386  1
  Zn  Zn85  1  0.32516742  0.30509698  0.84142801  1
  Zn  Zn86  1  0.31246236  0.81940477  0.31650556  1
  Zn  Zn87  1  0.31368841  0.81109710  0.80991283  1
  Zn  Zn88  1  0.80139923  0.29573621  0.32346554  1
  Zn  Zn89  1  0.80607943  0.31946788  0.80167644  1
  Zn  Zn90  1  0.79047891  0.82914949  0.32596416  1
  Zn  Zn91  1  0.81398451  0.81249968  0.80653493  1
  Zn  Zn92  1  0.18244838  0.43704811  0.43910217  1
  Zn  Zn93  1  0.18473837  0.43257469  0.82682347  1
  Zn  Zn94  1  0.19042624  0.93995863  0.43682839  1
  Zn  Zn95  1  0.18326836  0.93766230  0.94240008  1
  Zn  Zn96  1  0.69812831  0.42993202  0.45241743  1
  Zn  Zn97  1  0.68655117  0.44178805  0.93650044  1
  Zn  Zn98  1  0.68118203  0.94507415  0.43761531  1
  Zn  Zn99  1  0.68276204  0.92709089  0.93504162  1
  Zn  Zn100  1  0.31450733  0.05680015  0.06363600  1
  Zn  Zn101  1  0.30961959  0.06137269  0.55432867  1
  Zn  Zn102  1  0.30317813  0.55881987  0.07208160  1
  Zn  Zn103  1  0.31942232  0.56476887  0.54875812  1
  Zn  Zn104  1  0.67442815  0.06721778  0.06027131  1
  Zn  Zn105  1  0.80303260  0.06310497  0.56812816  1
  Zn  Zn106  1  0.81415211  0.55868635  0.06661521  1
  Zn  Zn107  1  0.82493469  0.55390760  0.56972348  1
  Zn  Zn108  1  0.43230220  0.44865980  0.18312463  1
  Zn  Zn109  1  0.43541390  0.43207903  0.67937983  1
  Zn  Zn110  1  0.48595022  1.00716694  0.22553965  1
  Zn  Zn111  1  0.42764258  0.92675159  0.68367798  1
  Zn  Zn112  1  0.94065863  0.42592590  0.17801873  1
  Zn  Zn113  1  1.06014210  0.43593782  0.69177659  1
  Zn  Zn114  1  0.93231542  0.94059147  0.18419499  1
  Zn  Zn115  1  0.93984923  0.93720395  0.68840999  1
  Zn  Zn116  1  0.05855032  0.06907352  0.31556362  1
  Zn  Zn117  1  0.05197580  0.07034752  0.81717859  1
  Zn  Zn118  1  0.06047608  0.55342594  0.31152398  1
  Zn  Zn119  1  0.05748170  0.57016365  0.81796219  1
  Zn  Zn120  1  0.51665630  0.13422793  0.32772365  1
  Zn  Zn121  1  0.55171548  0.04892131  0.81290420  1
  Zn  Zn122  1  0.61435344  0.53082907  0.34444597  1
  Zn  Zn123  1  0.56198285  0.58024191  0.80728919  1
  Zn  Zn124  1  0.43042078  0.19224505  0.45555879  1
  Zn  Zn125  1  0.43942962  0.18445680  0.92818106  1
  Zn  Zn126  1  0.45938989  0.69927340  0.49976436  1
  Zn  Zn127  1  0.43132185  0.68199089  0.94369516  1
  Zn  Zn128  1  0.95755101  0.21284731  0.45950674  1
  Zn  Zn129  1  0.93346563  0.18757774  0.94430185  1
  Zn  Zn130  1  0.93479250  0.68184327  0.43419362  1
  Zn  Zn131  1  0.93875888  0.68801703  0.94031496  1
  Zn  Zn132  1  0.12452682  0.36777726  0.01251430  1
  Zn  Zn133  1  0.06199840  0.31411084  0.56133190  1
  Zn  Zn134  1  0.06175198  0.81070051  0.06317242  1
  Zn  Zn135  1  0.05934092  0.81351841  0.55904778  1
  Zn  Zn136  1  0.56806704  0.32091137  0.05089160  1
  Zn  Zn137  1  0.56824610  0.31167686  0.56567353  1
  Zn  Zn138  1  0.55660516  0.81033071  0.06189718  1
  Zn  Zn139  1  0.54545798  0.84711104  0.55048764  1
  O  O140  1  0.12604573  0.11818116  0.11811604  1
  O  O141  1  0.11538300  0.12853356  0.61054714  1
  O  O142  1  0.10791898  0.63069646  0.13283741  1
  O  O143  1  0.11213313  0.63317428  0.61410384  1
  O  O144  1  0.59927960  0.13419925  0.11388503  1
  O  O145  1  0.62347434  0.11089573  0.62854814  1
  O  O146  1  0.62300416  0.61365605  0.11908569  1
  O  O147  1  0.66650431  0.58925632  0.60589064  1
  O  O148  1  0.35429719  0.35256192  0.41385420  1
  O  O149  1  0.39272111  0.40540620  0.87258815  1
  O  O150  1  0.37623471  0.89192474  0.36955283  1
  O  O151  1  0.37955547  0.87196996  0.88648209  1
  O  O152  1  0.88623856  0.36286780  0.35985561  1
  O  O153  1  0.88379990  0.39145492  0.87011725  1
  O  O154  1  0.88103719  0.87042918  0.38766486  1
  O  O155  1  0.88607618  0.86465686  0.88744021  1
  O  O156  1  0.24613715  0.01669962  0.37475698  1
  O  O157  1  0.26324073  -0.01571347  0.87680886  1
  O  O158  1  0.24919184  0.48642939  0.36210127  1
  O  O159  1  0.26332653  0.51647585  0.87000748  1
  O  O160  1  0.74537122  -0.00332834  0.35445242  1
  O  O161  1  0.74247439  0.00485182  0.87288390  1
  O  O162  1  0.73294903  0.51321125  0.37858393  1
  O  O163  1  0.76460775  0.50251101  0.87866759  1
  O  O164  1  0.25072099  0.48658711  0.14052631  1
  O  O165  1  0.25325347  0.47209044  0.58287274  1
  O  O166  1  0.23801608  0.98730414  0.11872205  1
  O  O167  1  0.25666125  0.98075825  0.62197032  1
  O  O168  1  0.74008740  0.48645278  0.12024095  1
  O  O169  1  0.72400672  0.52727778  0.62550793  1
  O  O170  1  0.74077768  0.98454615  0.11329093  1
  O  O171  1  0.74307280  0.99615979  0.64423508  1
  O  O172  1  0.00977553  0.37767475  0.25720693  1
  O  O173  1  0.00238790  0.36221293  0.76780553  1
  O  O174  1  0.00074925  0.86674788  0.25621539  1
  O  O175  1  -0.00603898  0.86806863  0.76423395  1
  O  O176  1  0.47085555  0.34954266  0.25753631  1
  O  O177  1  0.49707464  0.36783812  0.75951521  1
  O  O178  1  0.52296329  0.89434803  0.24682567  1
  O  O179  1  0.49548420  0.87054988  0.76585614  1
  O  O180  1  0.48140459  0.12637248  0.21633339  1
  O  O181  1  0.49690670  0.13799659  0.76206314  1
  O  O182  1  0.49639133  0.61565543  0.26980216  1
  O  O183  1  0.54331315  0.68274899  0.74543069  1
  O  O184  1  0.97098576  0.12591419  0.25652307  1
  O  O185  1  0.99662991  0.13777562  0.74153250  1
  O  O186  1  0.98950529  0.62945964  0.24441895  1
  O  O187  1  0.99530811  0.63688822  0.74031886  1
  O  O188  1  0.36388099  0.26448592  -0.05519908  1
  O  O189  1  0.37730122  0.25707084  0.53267507  1
  O  O190  1  0.36389264  0.75445201  0.01059599  1
  O  O191  1  0.35370605  0.74142855  0.47161493  1
  O  O192  1  0.85016794  0.24807293  -0.00779163  1
  O  O193  1  0.85854337  0.24785962  0.49897204  1
  O  O194  1  0.86456826  0.75110753  0.00780147  1
  O  O195  1  0.88146995  0.75075066  0.51493147  1
  O  O196  1  0.11694589  0.24123777  0.48804626  1
  O  O197  1  0.12014664  0.24089075  0.99967069  1
  O  O198  1  0.12607274  0.74541557  0.48908911  1
  O  O199  1  0.13289231  0.75290281  0.99179009  1
  O  O200  1  0.63086723  0.23764341  0.50062216  1
  O  O201  1  0.62988548  0.25807520  0.97528320  1
  O  O202  1  0.60186864  0.75801907  0.47825485  1
  O  O203  1  0.63628384  0.73819217  1.00629110  1
  O  O204  1  0.49482308  0.25267139  0.10550097  1
  O  O205  1  0.50449491  0.24695356  0.64173073  1
  O  O206  1  0.48352949  0.74910525  0.12623946  1
  O  O207  1  0.47623705  0.76493053  0.59687724  1
  O  O208  1  0.97956659  0.24981946  0.14758385  1
  O  O209  1  0.99846336  0.24545307  0.63889703  1
  O  O210  1  0.99033448  0.74331428  0.12952627  1
  O  O211  1  0.99257058  0.74909019  0.63329943  1
  O  O212  1  0.01128967  0.25758405  0.36811706  1
  O  O213  1  -0.00698827  0.26186791  0.87861409  1
  O  O214  1  0.00095809  0.75608609  0.36601595  1
  O  O215  1  0.00842147  0.75431665  0.87152367  1
  O  O216  1  0.51427817  0.23505959  0.38464265  1
  O  O217  1  0.51209211  0.26520976  0.86962252  1
  O  O218  1  0.54062304  0.75154869  0.41838986  1
  O  O219  1  0.49232232  0.75916322  0.88586890  1
  O  O220  1  0.22970210  0.12343203  0.49234471  1
  O  O221  1  0.23575541  0.12846360  1.00366822  1
  O  O222  1  0.23059827  0.63870601  0.50286654  1
  O  O223  1  0.25183656  0.63466734  0.99977245  1
  O  O224  1  0.73879980  0.13248968  0.50572657  1
  O  O225  1  0.73822804  0.13219984  0.98583039  1
  O  O226  1  0.77848293  0.62534340  0.48981698  1
  O  O227  1  0.74271809  0.63517633  1.00719922  1
  O  O228  1  0.24042891  0.38334523  0.02056480  1
  O  O229  1  0.26295782  0.41289781  0.52093017  1
  O  O230  1  0.25292038  0.86406063  0.00903069  1
  O  O231  1  0.24394607  0.85994468  0.50266695  1
  O  O232  1  0.74388804  0.36212775  -0.00321889  1
  O  O233  1  0.76273973  0.35636555  0.50755117  1
  O  O234  1  0.75540042  0.86200400  0.00510554  1
  O  O235  1  0.76683691  0.88159205  0.50477722  1
  O  O236  1  0.13117190  0.48154198  0.25552639  1
  O  O237  1  0.12211119  0.49940784  0.76174421  1
  O  O238  1  0.10887264  0.99057855  0.23951116  1
  O  O239  1  0.14282394  1.03656590  0.75197247  1
  O  O240  1  0.61952531  0.50275917  0.23332779  1
  O  O241  1  0.60861602  0.50938471  0.73634240  1
  O  O242  1  0.62244841  0.98408929  0.24223471  1
  O  O243  1  0.62601695  0.99533980  0.74247664  1
  O  O244  1  0.47417043  0.02569801  0.34108031  1
  O  O245  1  0.37327514  -0.00929538  0.76468361  1
  O  O246  1  0.36193116  0.49736335  0.25406566  1
  O  O247  1  0.38795165  0.51386787  0.75242678  1
  O  O248  1  0.85982037  0.00490757  0.24005220  1
  O  O249  1  0.85750718  -0.01248193  0.75411464  1
  O  O250  1  0.87942599  0.50553828  0.24140170  1
  O  O251  1  0.87825075  0.51862123  0.76091258  1
  O  O252  1  0.11405243  0.36392726  0.38280002  1
  O  O253  1  0.11387139  0.35787847  0.88848490  1
  O  O254  1  0.10949751  0.86927729  0.36822069  1
  O  O255  1  0.11593977  0.86370419  0.88011751  1
  O  O256  1  0.62358886  0.36440185  0.38464348  1
  O  O257  1  0.60883860  0.39136748  0.86959444  1
  O  O258  1  0.67102072  0.85049071  0.37247972  1
  O  O259  1  0.60709301  0.86845846  0.87354164  1
  O  O260  1  0.38199403  0.14345686  0.09170246  1
  O  O261  1  0.35613018  0.13673971  0.63022852  1
  O  O262  1  0.37577723  0.63768192  0.12647561  1
  O  O263  1  0.36930654  0.64869001  0.60777883  1
  O  O264  1  0.92763837  0.20506947  0.12441128  1
  O  O265  1  0.88854119  0.11882533  0.62116799  1
  O  O266  1  0.88185943  0.63137269  0.13401357  1
  O  O267  1  0.88560606  0.63554073  0.63415436  1
  O  O268  1  0.25479648  0.26810367  0.12824775  1
  O  O269  1  0.25172220  0.25381371  0.64678502  1
  O  O270  1  0.25174927  0.75442561  0.12132353  1
  O  O271  1  0.25798934  0.75604793  0.60999422  1
  O  O272  1  0.73333932  0.25961886  0.10781744  1
  O  O273  1  0.74499944  0.24236898  0.61806463  1
  O  O274  1  0.75896341  0.75542441  0.12131601  1
  O  O275  1  0.76901919  0.75583939  0.63295400  1
  O  O276  1  0.22781017  0.24259126  0.37250699  1
  O  O277  1  0.22652974  0.24018721  0.86594086  1
  O  O278  1  0.23075731  0.75871374  0.37898275  1
  O  O279  1  0.24632592  0.74180490  0.88241408  1
  O  O280  1  0.72961615  0.24528267  0.39463846  1
  O  O281  1  0.73840204  0.23319240  0.87394215  1
  O  O282  1  0.75358295  0.72767276  0.36754196  1
  O  O283  1  0.75384237  0.75198807  0.89039743  1
  O  O284  1  -0.00225103  0.11152155  0.00371341  1
  O  O285  1  0.00577763  0.12643336  0.51406750  1
  O  O286  1  -0.00170722  0.61653060  0.00740626  1
  O  O287  1  0.00467466  0.63171526  0.51393133  1
  O  O288  1  0.49756550  0.10887548  -0.00260036  1
  O  O289  1  0.51433982  0.12634414  0.50969550  1
  O  O290  1  0.51368971  0.61969449  0.00164770  1
  O  O291  1  0.50557380  0.59982861  0.49383806  1
  O  O292  1  0.48674661  0.37288100  0.50820124  1
  O  O293  1  0.50464873  0.39767427  0.98506628  1
  O  O294  1  0.51480727  0.91057601  0.46102047  1
  O  O295  1  0.48918849  0.87862061  0.99503723  1
  O  O296  1  0.97764812  0.35334967  0.48774807  1
  O  O297  1  0.99967880  0.38979493  0.98671345  1
  O  O298  1  0.99105060  0.87262461  0.48557294  1
  O  O299  1  0.99420423  0.87559619  0.99271381  1
  O  O300  1  0.51852163  0.48591007  0.38774995  1
  O  O301  1  0.49248193  0.51061625  0.87856823  1
  O  O302  1  0.59911343  0.90786839  0.25794588  1
  O  O303  1  0.48554675  0.98458798  0.88627413  1
  O  O304  1  0.99979782  0.47864165  0.37781217  1
  O  O305  1  0.99233447  0.49630121  0.88372925  1
  O  O306  1  0.99577088  0.98452326  0.36786797  1
  O  O307  1  1.00882725  0.98948429  0.89009737  1
  O  O308  1  0.01088748  -0.01090534  0.11039068  1
  O  O309  1  0.00603038  0.01321451  0.63940073  1
  O  O310  1  -0.00808090  0.50600467  0.10831339  1
  O  O311  1  -0.00262465  0.51789895  0.63101786  1
  O  O312  1  0.48586296  -0.00035554  0.10806389  1
  O  O313  1  0.50692812  -0.00455448  0.63298462  1
  O  O314  1  0.50944576  0.50194246  0.11346367  1
  O  O315  1  0.50989505  0.49346966  0.61711691  1
  O  O316  1  0.23969050  0.38008505  0.23773001  1
  O  O317  1  0.26476264  0.37591913  0.77284492  1
  O  O318  1  0.23094216  0.86910189  0.24195466  1
  O  O319  1  0.24453769  0.86946347  0.73722530  1
  O  O320  1  0.75404358  0.35450004  0.23346668  1
  O  O321  1  0.72790155  0.38992688  0.77496572  1
  O  O322  1  0.75682022  0.88541365  0.23002991  1
  O  O323  1  0.73793524  0.88250606  0.75585477  1
  O  O324  1  0.24204458  0.12792425  0.26288998  1
  O  O325  1  0.20300169  0.09815364  0.76238760  1
  O  O326  1  0.24023215  0.60729187  0.25336521  1
  O  O327  1  0.24904354  0.63376426  0.75687580  1
  O  O328  1  0.72885293  0.10019326  0.22763330  1
  O  O329  1  0.74474752  0.10782228  0.76842395  1
  O  O330  1  0.76742425  0.61984860  0.24357228  1
  O  O331  1  0.76993504  0.63575057  0.75349295  1
  O  O332  1  0.35277177  0.14383741  0.38328810  1
  O  O333  1  0.37309403  0.10290729  0.87825629  1
  O  O334  1  0.44003470  0.63611407  0.31233294  1
  O  O335  1  0.36199618  0.62121535  0.87493516  1
  O  O336  1  0.91416143  0.15728275  0.30404150  1
  O  O337  1  0.86278820  0.11733822  0.88228727  1
  O  O338  1  0.87118146  0.62081024  0.35895279  1
  O  O339  1  0.88287628  0.62049943  0.86610073  1
  O  O340  1  0.11341733  0.37141286  0.13219722  1
  O  O341  1  0.12696797  0.37576718  0.62525141  1
  O  O342  1  0.12917020  0.87999645  0.13045180  1
  O  O343  1  0.13830535  0.86554053  0.62027003  1
  O  O344  1  0.63052675  0.38928269  0.11904706  1
  O  O345  1  0.62872944  0.37961160  0.63752100  1
  O  O346  1  0.63971442  0.86251971  0.11883597  1
  O  O347  1  0.62166733  0.88599620  0.62723758  1
  O  O348  1  0.12428939  0.26964415  0.25956160  1
  O  O349  1  0.10351097  0.24404312  0.76918828  1
  O  O350  1  0.11097962  0.75750305  0.25525073  1
  O  O351  1  0.11414155  0.74689440  0.75962776  1
  O  O352  1  0.62554340  0.24614294  0.27356296  1
  O  O353  1  0.61564409  0.24596952  0.76440369  1
  O  O354  1  0.61980403  0.73877908  0.26594134  1
  O  O355  1  0.60894386  0.72781449  0.73773225  1
  O  O356  1  0.41964633  0.29590989  0.26194328  1
  O  O357  1  0.38869658  0.25274950  0.74397366  1
  O  O358  1  0.36414550  0.75478903  0.23763134  1
  O  O359  1  0.37883259  0.74432330  0.74055246  1
  O  O360  1  0.86026112  0.19835456  0.26531739  1
  O  O361  1  0.88372669  0.25192766  0.75748653  1
  O  O362  1  0.88343596  0.75041894  0.24134944  1
  O  O363  1  0.88811243  0.74655801  0.74361600  1
  O  O364  1  0.39496441  0.48658405  0.50527498  1
  O  O365  1  0.39114720  0.51520111  1.00188999  1
  O  O366  1  0.38530411  1.00838373  0.48935545  1
  O  O367  1  0.37828385  0.98560489  0.99269758  1
  O  O368  1  0.86974032  0.47395248  0.50751747  1
  O  O369  1  0.88011127  0.51043502  0.98561647  1
  O  O370  1  0.87615779  0.99214155  0.50586486  1
  O  O371  1  0.89073238  0.98696259  1.00437895  1
  O  O372  1  0.11667517  0.01094267  0.00705189  1
  O  O373  1  0.11765138  0.01020673  0.49471300  1
  O  O374  1  0.11021417  0.49996771  -0.00502938  1
  O  O375  1  0.12162911  0.51966293  0.49346839  1
  O  O376  1  0.60707116  -0.00980383  -0.00098428  1
  O  O377  1  0.63390252  0.01067203  0.51930511  1
  O  O378  1  0.62120772  0.51310838  0.00583756  1
  O  O379  1  0.61358744  0.47887932  0.51466792  1
  O  O380  1  0.37186159  0.37838899  0.11482586  1
  O  O381  1  0.36268774  0.36490175  0.62380876  1
  O  O382  1  0.36019561  0.86325393  0.11690215  1
  O  O383  1  0.35744793  0.85795803  0.62374009  1
  O  O384  1  0.85643411  0.37671435  0.11813293  1
  O  O385  1  0.88213453  0.36774715  0.62416714  1
  O  O386  1  0.87029913  0.86485726  0.11197891  1
  O  O387  1  0.88361331  0.86648330  0.61284407  1
  O  O388  1  0.12257898  0.13375667  0.38264096  1
  O  O389  1  0.10757870  0.13779074  0.89690260  1
  O  O390  1  0.10678813  0.63571099  0.38573521  1
  O  O391  1  0.13983297  0.63723853  0.87483535  1
  O  O392  1  0.62089024  0.11699264  0.39349760  1
  O  O393  1  0.61744657  0.12822509  0.87692347  1
  O  O394  1  0.64923354  0.63509390  0.38491483  1
  O  O395  1  0.62933807  0.62302839  0.89082515  1
