# generated using pymatgen
data_V35Zn35O128
_symmetry_space_group_name_H-M   'P 1'
_cell_length_a   16.95579342
_cell_length_b   16.92756812
_cell_length_c   16.89617965
_cell_angle_alpha   89.65549637
_cell_angle_beta   90.36280576
_cell_angle_gamma   90.19265134
_symmetry_Int_Tables_number   1
_chemical_formula_structural   V35Zn35O128
_chemical_formula_sum   'V70 Zn70 O256'
_cell_volume   4849.33568493
_cell_formula_units_Z   2
loop_
 _symmetry_equiv_pos_site_id
 _symmetry_equiv_pos_as_xyz
  1  'x, y, z'
loop_
 _atom_site_type_symbol
 _atom_site_label
 _atom_site_symmetry_multiplicity
 _atom_site_fract_x
 _atom_site_fract_y
 _atom_site_fract_z
 _atom_site_occupancy
  V  V0  1  0.36294218  0.24914876  0.62146455  1
  V  V1  1  0.25330606  0.11727795  0.84935617  1
  V  V2  1  0.62436127  0.74856448  0.86542894  1
  V  V3  1  -0.00126201  0.87853692  0.37913727  1
  V  V4  1  0.00291260  0.00984444  0.50506864  1
  V  V5  1  0.87299514  0.13586957  0.23828983  1
  V  V6  1  0.86993919  0.01204385  0.37331928  1
  V  V7  1  0.13992033  0.00095368  0.63037750  1
  V  V8  1  0.00365481  0.87969169  0.87550650  1
  V  V9  1  0.49709754  0.51823558  -0.00413931  1
  V  V10  1  0.39152380  0.13147998  0.25909089  1
  V  V11  1  -0.00057941  0.74490153  0.24473176  1
  V  V12  1  0.61679371  -0.01521201  0.11990634  1
  V  V13  1  0.74319270  -0.00667321  0.24275033  1
  V  V14  1  0.25804932  0.75046385  0.51293874  1
  V  V15  1  0.49196703  0.86312243  0.36786668  1
  V  V16  1  0.25981243  0.50399253  0.75057071  1
  V  V17  1  0.12158011  0.88749742  0.24379951  1
  V  V18  1  0.00695557  0.24526429  0.74366899  1
  V  V19  1  0.37650333  0.63678350  0.76271451  1
  V  V20  1  0.12575958  0.62966068  -0.03138347  1
  V  V21  1  0.61659268  0.35527946  0.24481766  1
  V  V22  1  0.37427960  0.88982052  0.51713128  1
  V  V23  1  0.85786315  0.12366992  0.75787415  1
  V  V24  1  0.25233472  0.75721953  -0.02057740  1
  V  V25  1  0.12874112  0.85833099  0.75383979  1
  V  V26  1  0.49249745  0.38101011  0.88130059  1
  V  V27  1  0.63814739  0.24218278  0.39461528  1
  V  V28  1  0.11111749  0.49640608  0.63286827  1
  V  V29  1  0.76105543  0.49410823  0.76595476  1
  V  V30  1  0.64290587  0.89543014  0.75033605  1
  V  V31  1  0.50521617  0.11858881  0.10196972  1
  V  V32  1  0.26343927  0.87063219  0.13000451  1
  V  V33  1  0.36790052  0.37967021  0.49416374  1
  V  V34  1  0.49095525  0.63008010  0.62705141  1
  V  V35  1  0.37197164  0.25338579  0.11485579  1
  V  V36  1  0.50157708  0.12494151  0.61108985  1
  V  V37  1  0.49296443  0.36543287  0.37112649  1
  V  V38  1  0.01454595  0.62375088  0.11522951  1
  V  V39  1  0.24676886  0.38041309  0.62253176  1
  V  V40  1  0.26056676  0.50588144  0.22140306  1
  V  V41  1  -0.02193107  0.37522535  0.88132844  1
  V  V42  1  0.61713209  0.23413580  0.87444660  1
  V  V43  1  0.31750373  0.45017812  0.93130281  1
  V  V44  1  0.87873948  0.89321618  -0.00442255  1
  V  V45  1  0.76158080  0.49338490  0.24884849  1
  V  V46  1  0.24236373  0.15126448  0.37186239  1
  V  V47  1  0.85423084  0.24645636  0.61305411  1
  V  V48  1  0.48769395  0.24976946  0.74658414  1
  V  V49  1  0.13289361  0.25764977  0.88213237  1
  V  V50  1  -0.01063085  0.64898090  0.62978501  1
  V  V51  1  0.14131161  0.10805738  0.00564893  1
  V  V52  1  0.87185059  0.75902303  0.11988291  1
  V  V53  1  0.61700363  0.50417096  0.12624194  1
  V  V54  1  0.63303195  0.62835466  0.49247334  1
  V  V55  1  0.62275857  0.37820727  0.75121098  1
  V  V56  1  0.00372451  0.11596781  0.11474006  1
  V  V57  1  0.12546843  0.14423115  0.49608528  1
  V  V58  1  0.25429792  0.00748919  0.26072047  1
  V  V59  1  0.11240477  0.62165674  0.50215533  1
  V  V60  1  0.49724190  0.49943215  0.49497609  1
  V  V61  1  0.00435712  0.38295295  0.38997193  1
  V  V62  1  0.63213817  0.49829645  0.62751802  1
  V  V63  1  0.87582925  0.64043857  0.76220680  1
  V  V64  1  0.26347381  0.61707587  0.37447599  1
  V  V65  1  0.12262021  0.38402939  0.20179344  1
  V  V66  1  0.85929870  0.39556409  0.50035085  1
  V  V67  1  0.75675302  0.74675427  0.52724623  1
  V  V68  1  0.75238051  0.35575080  0.11682095  1
  V  V69  1  0.12108303  0.74625314  0.37911612  1
  Zn  Zn70  1  0.36656407  0.00862993  0.90704732  1
  Zn  Zn71  1  0.64959402  0.62197860  -0.00999996  1
  Zn  Zn72  1  0.00892954  0.25916559  0.24261441  1
  Zn  Zn73  1  0.87493709  0.86430746  0.50444046  1
  Zn  Zn74  1  0.71813605  0.24529328  0.00032835  1
  Zn  Zn75  1  0.76035088  0.74601825  -0.00858410  1
  Zn  Zn76  1  0.18372835  0.19668096  0.18053630  1
  Zn  Zn77  1  0.17925314  0.18777348  0.68311590  1
  Zn  Zn78  1  0.18767232  0.68974913  0.19612106  1
  Zn  Zn79  1  0.18529273  0.67946347  0.69212381  1
  Zn  Zn80  1  0.68082570  0.17433058  0.19611241  1
  Zn  Zn81  1  0.68112471  0.18911167  0.68561322  1
  Zn  Zn82  1  0.80772233  0.58336741  0.10635843  1
  Zn  Zn83  1  0.68856058  0.68002347  0.69877149  1
  Zn  Zn84  1  0.30813087  0.32132556  0.28914062  1
  Zn  Zn85  1  0.30234179  0.31145943  0.80738275  1
  Zn  Zn86  1  0.29545427  0.83342506  0.34275726  1
  Zn  Zn87  1  0.31866203  0.82568778  0.78115669  1
  Zn  Zn88  1  0.81382982  0.31849472  0.31681785  1
  Zn  Zn89  1  0.80953881  0.29585655  0.81352319  1
  Zn  Zn90  1  0.81790042  0.81600597  0.30902609  1
  Zn  Zn91  1  0.80832833  0.82443524  0.81996684  1
  Zn  Zn92  1  0.18063319  0.44122326  0.43967967  1
  Zn  Zn93  1  0.13175970  0.42031818  0.99062939  1
  Zn  Zn94  1  0.18650745  0.93857742  0.44292876  1
  Zn  Zn95  1  0.19092584  0.93468679  0.93409136  1
  Zn  Zn96  1  0.68570781  0.43399346  0.43025298  1
  Zn  Zn97  1  0.67994348  0.43301469  0.93857368  1
  Zn  Zn98  1  0.69692373  0.93567254  0.44558121  1
  Zn  Zn99  1  0.69161830  0.94222517  0.93430925  1
  Zn  Zn100  1  0.31297736  0.05491259  0.08122895  1
  Zn  Zn101  1  0.30818141  0.06845897  0.55472952  1
  Zn  Zn102  1  0.32078382  0.60359623  0.04291072  1
  Zn  Zn103  1  0.30777773  0.56176722  0.55708176  1
  Zn  Zn104  1  0.80138883  0.05771824  0.05223706  1
  Zn  Zn105  1  0.83179301  0.05780155  0.57883186  1
  Zn  Zn106  1  0.83599282  0.54920996  -0.05482372  1
  Zn  Zn107  1  0.81259188  0.56348977  0.57349765  1
  Zn  Zn108  1  0.43476666  0.44211858  0.18565151  1
  Zn  Zn109  1  0.43730796  0.44044858  0.68261428  1
  Zn  Zn110  1  0.44594120  0.92090937  0.07143265  1
  Zn  Zn111  1  0.47695610  0.91780814  0.64055667  1
  Zn  Zn112  1  0.92200873  0.44539770  0.13699349  1
  Zn  Zn113  1  0.93341530  0.41642780  0.69009503  1
  Zn  Zn114  1  0.93694402  0.94127249  0.18601252  1
  Zn  Zn115  1  0.95022004  0.95200277  0.70254468  1
  Zn  Zn116  1  0.05803300  0.07069717  0.31274283  1
  Zn  Zn117  1  0.06109462  0.06590873  0.81713832  1
  Zn  Zn118  1  0.06457288  0.54880384  0.29956184  1
  Zn  Zn119  1  0.05329904  0.55360741  0.80782876  1
  Zn  Zn120  1  0.57057217  0.05825777  0.33072469  1
  Zn  Zn121  1  0.55284313  0.05800782  0.78555919  1
  Zn  Zn122  1  0.57867911  0.55017958  0.31759414  1
  Zn  Zn123  1  0.55994425  0.56973166  0.81431422  1
  Zn  Zn124  1  0.42935276  0.19163794  0.43782718  1
  Zn  Zn125  1  0.43146945  0.18899778  0.93324817  1
  Zn  Zn126  1  0.44263214  0.69356259  0.43919985  1
  Zn  Zn127  1  0.45411449  0.74502552  0.97526396  1
  Zn  Zn128  1  0.94046023  0.20146767  0.42569420  1
  Zn  Zn129  1  0.95205868  0.17297833  0.92595088  1
  Zn  Zn130  1  0.93233214  0.68589836  0.43912993  1
  Zn  Zn131  1  0.94640796  0.70197698  0.93314562  1
  Zn  Zn132  1  0.04753602  0.29094504  0.05529287  1
  Zn  Zn133  1  0.05460229  0.32013446  0.56179214  1
  Zn  Zn134  1  0.07039402  0.81542524  0.05319278  1
  Zn  Zn135  1  0.06827190  0.82007033  0.56616296  1
  Zn  Zn136  1  0.54195799  0.30590048  0.06080650  1
  Zn  Zn137  1  0.55823422  0.31273570  0.56348996  1
  Zn  Zn138  1  0.59702259  0.79931116  0.08260915  1
  Zn  Zn139  1  0.56747589  0.80678287  0.55895493  1
  O  O140  1  0.11753472  0.12788725  0.11407584  1
  O  O141  1  0.13263385  0.11861524  0.60123715  1
  O  O142  1  0.11544063  0.63636625  0.12780311  1
  O  O143  1  0.10495317  0.61901463  0.62347150  1
  O  O144  1  0.60970821  0.11191237  0.12760493  1
  O  O145  1  0.59984464  0.14239164  0.62401700  1
  O  O146  1  0.62685791  0.60060028  0.12441294  1
  O  O147  1  0.61586455  0.61016678  0.62724132  1
  O  O148  1  0.38453104  0.36649967  0.37829656  1
  O  O149  1  0.37242993  0.37994926  0.87592952  1
  O  O150  1  0.38593678  0.86834993  0.39584498  1
  O  O151  1  0.38906188  0.89020116  0.85600012  1
  O  O152  1  0.87561820  0.37435110  0.39629777  1
  O  O153  1  0.87931519  0.35654365  0.88623624  1
  O  O154  1  0.88640864  0.88547328  0.37924693  1
  O  O155  1  0.88746342  0.88039973  0.88392193  1
  O  O156  1  0.24283893  -0.00024409  0.36420633  1
  O  O157  1  0.25245025  0.01288173  0.87295719  1
  O  O158  1  0.24723927  0.51734113  0.38581904  1
  O  O159  1  0.25553342  0.49682032  0.85856686  1
  O  O160  1  0.76724777  0.00057307  0.37610601  1
  O  O161  1  0.73319560  0.04558152  0.95941853  1
  O  O162  1  0.73715865  0.49512713  0.34861793  1
  O  O163  1  0.75348723  0.49623839  0.87044680  1
  O  O164  1  0.26485980  0.53735059  0.12606876  1
  O  O165  1  0.24206834  0.49803465  0.63082670  1
  O  O166  1  0.24612406  0.98560528  0.15052592  1
  O  O167  1  0.23833686  1.00384120  0.62043123  1
  O  O168  1  0.72304334  0.46826764  0.12818013  1
  O  O169  1  0.73492423  0.50057474  0.63861353  1
  O  O170  1  0.73546633  1.00280096  0.13598632  1
  O  O171  1  0.80069332  0.95011163  0.61773942  1
  O  O172  1  0.01975748  0.38468922  0.21105896  1
  O  O173  1  -0.00737759  0.35414708  0.76731826  1
  O  O174  1  0.01058833  0.87356138  0.26035010  1
  O  O175  1  0.01608381  0.88097846  0.75619744  1
  O  O176  1  0.50354729  0.37991493  0.26567708  1
  O  O177  1  0.50116190  0.37564045  0.75818607  1
  O  O178  1  0.48725211  0.86897111  0.27214920  1
  O  O179  1  0.52881869  0.87074065  0.73038494  1
  O  O180  1  0.48820021  0.11784203  0.27433977  1
  O  O181  1  0.48935422  0.14728627  0.74231541  1
  O  O182  1  0.51703754  0.63711181  0.26749647  1
  O  O183  1  0.48589488  0.61383200  0.73610404  1
  O  O184  1  0.98872346  0.13142569  0.24534670  1
  O  O185  1  0.98882170  0.14315754  0.76226768  1
  O  O186  1  1.00850137  0.64228213  0.24764886  1
  O  O187  1  0.98671616  0.62374265  0.73842821  1
  O  O188  1  0.38091341  0.24817345  0.01367780  1
  O  O189  1  0.37239936  0.26725480  0.51157756  1
  O  O190  1  0.34840752  0.72209205  0.01464530  1
  O  O191  1  0.35907151  0.74647863  0.50475933  1
  O  O192  1  0.87480668  0.22377629  0.00784433  1
  O  O193  1  0.87729519  0.23909365  0.51189071  1
  O  O194  1  0.87917215  0.76081329  0.00885277  1
  O  O195  1  0.86181279  0.74464072  0.50830281  1
  O  O196  1  0.11622263  0.24178103  0.50215588  1
  O  O197  1  0.12464833  0.23329582  0.98445870  1
  O  O198  1  0.12630249  0.74357187  0.49491268  1
  O  O199  1  0.14310848  0.74658074  0.99848819  1
  O  O200  1  0.62818528  0.26347678  0.49336780  1
  O  O201  1  0.60357522  0.24705554  0.97880266  1
  O  O202  1  0.63929156  0.73461748  0.50575252  1
  O  O203  1  0.64382304  0.74017835  1.00115637  1
  O  O204  1  0.49418662  0.22303387  0.12484763  1
  O  O205  1  0.48196370  0.25131707  0.62790594  1
  O  O206  1  0.54225075  0.74215277  0.19171494  1
  O  O207  1  0.50502877  0.72727992  0.61896033  1
  O  O208  1  0.99651778  0.22750203  0.13046068  1
  O  O209  1  1.00793237  0.25387836  0.64190558  1
  O  O210  1  1.01128713  0.75604665  0.14054222  1
  O  O211  1  0.99691651  0.74725744  0.62626675  1
  O  O212  1  -0.01269304  0.27924753  0.35398740  1
  O  O213  1  0.01498278  0.25716249  0.87167086  1
  O  O214  1  0.00157470  0.75735252  0.36943340  1
  O  O215  1  -0.00052340  0.77465553  0.86645679  1
  O  O216  1  0.50632893  0.26389123  0.38420607  1
  O  O217  1  0.49586966  0.26165763  0.86392337  1
  O  O218  1  0.51452752  0.76439793  0.39123654  1
  O  O219  1  0.52486084  0.75807618  0.88863319  1
  O  O220  1  0.23843308  0.13136720  0.48135226  1
  O  O221  1  0.24120248  0.11927514  1.01330668  1
  O  O222  1  0.23753996  0.63453660  0.49201199  1
  O  O223  1  0.23435005  0.64270880  0.97515507  1
  O  O224  1  0.72022539  0.07928222  0.53077117  1
  O  O225  1  0.81202855  0.17710673  1.00717520  1
  O  O226  1  0.74071116  0.63193911  0.51276482  1
  O  O227  1  0.76455318  0.62359004  1.00517828  1
  O  O228  1  0.25447125  0.40346751  -0.01110123  1
  O  O229  1  0.25720455  0.38801544  0.50953078  1
  O  O230  1  0.24609300  0.86624929  0.01970016  1
  O  O231  1  0.25754391  0.85825590  0.48948916  1
  O  O232  1  0.73191003  0.36381944  0.01278971  1
  O  O233  1  0.75900132  0.38530999  0.50203211  1
  O  O234  1  0.77568792  0.87679511  -0.00817070  1
  O  O235  1  0.75105696  0.84697427  0.48810316  1
  O  O236  1  0.14076975  0.48937408  0.23839030  1
  O  O237  1  0.13908842  0.51077979  0.73602741  1
  O  O238  1  0.12488920  0.98894014  0.25980390  1
  O  O239  1  0.11794993  1.02119430  0.72660178  1
  O  O240  1  0.61966054  0.48375673  0.23593200  1
  O  O241  1  0.62874601  0.49694697  0.74508861  1
  O  O242  1  0.64292310  1.01013372  0.25603844  1
  O  O243  1  0.63906023  0.99647706  0.75266437  1
  O  O244  1  0.35552680  0.02326789  0.25856462  1
  O  O245  1  0.46523873  -0.08702290  0.83531062  1
  O  O246  1  0.35943558  0.50102217  0.24745255  1
  O  O247  1  0.36405242  0.50795436  0.74256967  1
  O  O248  1  0.87005368  0.00356955  0.26095293  1
  O  O249  1  0.87804149  0.02437510  0.74612895  1
  O  O250  1  0.85634360  0.46212144  0.23838404  1
  O  O251  1  0.85891020  0.48508799  0.74723043  1
  O  O252  1  0.10691342  0.37635385  0.38828942  1
  O  O253  1  0.13785917  0.35738902  0.88326905  1
  O  O254  1  0.11531284  0.86561152  0.37555595  1
  O  O255  1  0.11960607  0.87752844  0.86351601  1
  O  O256  1  0.61348328  0.36606989  0.36501587  1
  O  O257  1  0.60797261  0.37374406  0.86559128  1
  O  O258  1  0.59658310  0.91005022  0.39315795  1
  O  O259  1  0.63416825  0.87451134  0.86004285  1
  O  O260  1  0.39024336  0.12409194  0.14243899  1
  O  O261  1  0.36811800  0.14731599  0.61713715  1
  O  O262  1  0.41011766  0.64156744  0.14590346  1
  O  O263  1  0.38954980  0.61705336  0.61715811  1
  O  O264  1  0.88280985  0.11316943  0.13509903  1
  O  O265  1  0.87704757  0.14137786  0.63596977  1
  O  O266  1  0.90436470  0.65462845  0.12388275  1
  O  O267  1  0.88557626  0.62523777  0.63780899  1
  O  O268  1  0.27273233  0.24028448  0.12803916  1
  O  O269  1  0.25540295  0.26456974  0.63129859  1
  O  O270  1  0.24612792  0.76960457  0.14291396  1
  O  O271  1  0.23927938  0.74273963  0.60997195  1
  O  O272  1  0.72386824  0.25350028  0.12265147  1
  O  O273  1  0.75525443  0.25061323  0.61989402  1
  O  O274  1  0.77548610  0.75364130  0.13032931  1
  O  O275  1  0.75028109  0.74890668  0.62554492  1
  O  O276  1  0.24377991  0.24912208  0.36200379  1
  O  O277  1  0.23922426  0.23487548  0.86401219  1
  O  O278  1  0.23653107  0.73776508  0.38077390  1
  O  O279  1  0.26679515  0.78171492  0.88533255  1
  O  O280  1  0.73563684  0.25616137  0.37470012  1
  O  O281  1  0.72007731  0.25194968  0.87383194  1
  O  O282  1  0.78705372  0.71353906  0.36465029  1
  O  O283  1  0.73697261  0.75564167  0.87763172  1
  O  O284  1  0.01020304  0.11987279  0.00910443  1
  O  O285  1  0.01476576  0.11612081  0.48280642  1
  O  O286  1  0.01779442  0.64582818  0.00836567  1
  O  O287  1  0.00099488  0.63113172  0.51578569  1
  O  O288  1  0.49605705  0.11634351  0.00319028  1
  O  O289  1  0.48577958  0.12619798  0.51083794  1
  O  O290  1  0.49812941  0.61619938  -0.00146847  1
  O  O291  1  0.51383367  0.61760278  0.50565642  1
  O  O292  1  0.48966103  0.38153348  0.49218263  1
  O  O293  1  0.49530986  0.38291374  0.98510417  1
  O  O294  1  0.48070303  0.87395307  0.51917598  1
  O  O295  1  0.49252008  0.82381194  1.04712278  1
  O  O296  1  0.98794918  0.38119672  0.49391422  1
  O  O297  1  1.01524603  0.37384456  0.98234276  1
  O  O298  1  0.99786144  0.88636625  0.49483825  1
  O  O299  1  0.99832172  0.87443716  0.98740254  1
  O  O300  1  0.51140847  0.48625642  0.38901632  1
  O  O301  1  0.50132669  0.49681052  0.88696503  1
  O  O302  1  0.53455024  0.97024827  0.39998116  1
  O  O303  1  0.47111986  0.99563685  0.84725422  1
  O  O304  1  0.99318385  0.47851719  0.35316303  1
  O  O305  1  0.99274405  0.47439548  0.86132704  1
  O  O306  1  0.99551675  0.99340515  0.38101595  1
  O  O307  1  1.00477590  0.98601506  0.87109064  1
  O  O308  1  0.00557484  0.01741058  0.13793703  1
  O  O309  1  -0.00091290  0.00587311  0.60605659  1
  O  O310  1  0.00347493  0.52598545  0.12733900  1
  O  O311  1  0.01175478  0.49054712  0.63955425  1
  O  O312  1  0.50807757  0.00757295  0.12985229  1
  O  O313  1  0.48557278  0.03022871  0.64323333  1
  O  O314  1  0.50467315  0.49390908  0.10719198  1
  O  O315  1  0.50856113  0.50444884  0.61273580  1
  O  O316  1  0.24592536  0.39618764  0.22969051  1
  O  O317  1  0.25404158  0.39195682  0.73490746  1
  O  O318  1  0.23697343  0.88359852  0.25617215  1
  O  O319  1  0.22746627  0.88403456  0.75189296  1
  O  O320  1  0.72800747  0.36867248  0.23893961  1
  O  O321  1  0.73326290  0.38431905  0.75958397  1
  O  O322  1  0.75428817  0.89361357  0.25903909  1
  O  O323  1  0.74151753  0.87408080  0.74208626  1
  O  O324  1  0.23485099  0.11829809  0.26143277  1
  O  O325  1  0.24916749  0.12257981  0.75034882  1
  O  O326  1  0.24119428  0.61467065  0.26732262  1
  O  O327  1  0.26344815  0.61344124  0.74215605  1
  O  O328  1  0.76650152  0.11075831  0.24626490  1
  O  O329  1  0.75687088  0.13107103  0.74477254  1
  O  O330  1  0.76420233  0.58886325  0.21458038  1
  O  O331  1  0.76856972  0.60672163  0.74848933  1
  O  O332  1  0.35382431  0.13598881  0.36713607  1
  O  O333  1  0.35608893  0.12676409  0.87473690  1
  O  O334  1  0.36171665  0.63079430  0.38241104  1
  O  O335  1  0.38120481  0.63024945  0.85881119  1
  O  O336  1  0.88503254  0.11516638  0.36240241  1
  O  O337  1  0.86717077  0.14503065  0.85848195  1
  O  O338  1  0.84269606  0.65847812  0.36217390  1
  O  O339  1  0.88949537  0.61969072  0.86577013  1
  O  O340  1  0.13088628  0.37482028  0.10034831  1
  O  O341  1  0.13240501  0.39068551  0.61589996  1
  O  O342  1  0.12410141  0.87651711  0.14367150  1
  O  O343  1  0.11862526  0.89304701  0.63752908  1
  O  O344  1  0.60389836  0.36685653  0.14006763  1
  O  O345  1  0.61180595  0.38929596  0.63765266  1
  O  O346  1  0.61921739  0.88896964  0.14993552  1
  O  O347  1  0.60797021  0.87777014  0.64120769  1
  O  O348  1  0.13192421  0.28265509  0.23586335  1
  O  O349  1  0.11446815  0.24141724  0.76195710  1
  O  O350  1  0.11601112  0.76283766  0.26421310  1
  O  O351  1  0.12706684  0.75907296  0.74458616  1
  O  O352  1  0.61798884  0.25443624  0.26079087  1
  O  O353  1  0.60868965  0.26202998  0.75500951  1
  O  O354  1  0.57184557  0.69047495  0.23871029  1
  O  O355  1  0.62753553  0.75067401  0.76144951  1
  O  O356  1  0.37480250  0.23430534  0.24642576  1
  O  O357  1  0.37770489  0.26684234  0.73191312  1
  O  O358  1  0.38886351  0.69645481  0.18825468  1
  O  O359  1  0.36901667  0.73523859  0.74101594  1
  O  O360  1  0.86400089  0.23549991  0.24895698  1
  O  O361  1  0.87851483  0.24815905  0.73333823  1
  O  O362  1  0.89594994  0.76684218  0.23866918  1
  O  O363  1  0.86544402  0.73706431  0.75854368  1
  O  O364  1  0.38486035  0.49138294  0.50127065  1
  O  O365  1  0.38008951  0.51135235  0.99465282  1
  O  O366  1  0.36439299  0.98851946  0.49949258  1
  O  O367  1  0.37668750  0.99028865  1.01599045  1
  O  O368  1  0.87350643  0.49504354  0.50945367  1
  O  O369  1  0.86652687  0.50345067  1.04523314  1
  O  O370  1  0.88960795  1.00885252  0.48634322  1
  O  O371  1  0.88568322  0.99140173  1.00832324  1
  O  O372  1  0.13029946  0.00911045  -0.00029842  1
  O  O373  1  0.11476086  0.00093219  0.50746842  1
  O  O374  1  0.12751120  0.53218046  -0.00842970  1
  O  O375  1  0.12676055  0.51618574  0.51773669  1
  O  O376  1  0.61797708  -0.02382978  0.02051116  1
  O  O377  1  0.67356524  0.01838023  0.53070433  1
  O  O378  1  0.61153307  0.50213993  0.00540895  1
  O  O379  1  0.62378441  0.50621949  0.51229392  1
  O  O380  1  0.39323530  0.35087857  0.13379556  1
  O  O381  1  0.36590080  0.37404064  0.61386728  1
  O  O382  1  0.35998245  0.87478280  0.14273598  1
  O  O383  1  0.36483132  0.88167893  0.61832162  1
  O  O384  1  0.85086317  0.35296470  0.12306641  1
  O  O385  1  0.87968973  0.35788319  0.60780613  1
  O  O386  1  0.89249221  0.86848280  0.11093234  1
  O  O387  1  0.86410239  0.90200491  0.61990086  1
  O  O388  1  0.13271517  0.12806329  0.38221135  1
  O  O389  1  0.14109074  0.12451213  0.88504357  1
  O  O390  1  0.11546430  0.63202346  0.38548176  1
  O  O391  1  0.10754255  0.63311883  0.87012094  1
  O  O392  1  0.62145722  0.14264335  0.38517514  1
  O  O393  1  0.60340291  0.13741810  0.86006791  1
  O  O394  1  0.63197113  0.61860580  0.39468341  1
  O  O395  1  0.62681909  0.63760495  0.87424138  1
