# generated using pymatgen
data_V35Zn35O128
_symmetry_space_group_name_H-M   'P 1'
_cell_length_a   16.85472789
_cell_length_b   16.84280168
_cell_length_c   16.89451299
_cell_angle_alpha   90.13923562
_cell_angle_beta   89.84020077
_cell_angle_gamma   90.13706613
_symmetry_Int_Tables_number   1
_chemical_formula_structural   V35Zn35O128
_chemical_formula_sum   'V70 Zn70 O256'
_cell_volume   4795.98206318
_cell_formula_units_Z   2
loop_
 _symmetry_equiv_pos_site_id
 _symmetry_equiv_pos_as_xyz
  1  'x, y, z'
loop_
 _atom_site_type_symbol
 _atom_site_label
 _atom_site_symmetry_multiplicity
 _atom_site_fract_x
 _atom_site_fract_y
 _atom_site_fract_z
 _atom_site_occupancy
  V  V0  1  0.88014090  0.48962173  0.87658273  1
  V  V1  1  0.49161080  0.87380421  0.87657519  1
  V  V2  1  0.12110280  0.37983927  0.76798222  1
  V  V3  1  0.37496106  0.63468243  0.74808890  1
  V  V4  1  0.24526689  0.27542196  0.50245345  1
  V  V5  1  0.63285782  0.01511978  0.62782562  1
  V  V6  1  0.72165681  0.86732735  0.13822935  1
  V  V7  1  0.36784797  0.12702039  0.26807060  1
  V  V8  1  0.50392404  0.62611823  0.61390361  1
  V  V9  1  0.38564076  0.51096988  0.37336149  1
  V  V10  1  0.00423849  0.76251059  0.25637505  1
  V  V11  1  0.89140929  0.38248031  0.49546895  1
  V  V12  1  0.00258754  0.12496436  0.62333712  1
  V  V13  1  0.11832844  0.27145469  0.37260744  1
  V  V14  1  0.89458227  0.50437539  0.37992994  1
  V  V15  1  0.35566967  0.24222932  0.12205460  1
  V  V16  1  0.38273800  0.01458626  0.88425131  1
  V  V17  1  0.38046146  -0.01780001  0.38235043  1
  V  V18  1  0.75012713  0.62316788  0.87987703  1
  V  V19  1  0.87254966  0.75947731  0.12265251  1
  V  V20  1  0.38100770  0.48620145  0.86718585  1
  V  V21  1  0.24484404  0.49306098  0.74041662  1
  V  V22  1  0.40917862  0.37830632  0.49464335  1
  V  V23  1  0.37111538  0.37573112  0.00274238  1
  V  V24  1  0.00366291  0.25885686  0.23381405  1
  V  V25  1  0.08983291  0.00363212  0.09690128  1
  V  V26  1  0.37847739  0.23945197  0.62644249  1
  V  V27  1  0.00200463  -0.00842905  0.48926795  1
  V  V28  1  0.24532020  0.49189370  0.23834468  1
  V  V29  1  0.62157769  0.74359927  0.88209482  1
  V  V30  1  0.62103511  0.50323932  0.60244739  1
  V  V31  1  0.00294594  0.62769015  0.12179040  1
  V  V32  1  0.11720993  0.76161788  0.85339333  1
  V  V33  1  0.60789688  0.25809996  0.38486464  1
  V  V34  1  0.87520499  0.62699488  0.25050350  1
  V  V35  1  0.74140445  0.50012890  0.74923448  1
  V  V36  1  0.50978326  0.00564808  0.50464554  1
  V  V37  1  0.61594918  0.36356817  0.75233800  1
  V  V38  1  0.75459152  0.23930637  0.48461207  1
  V  V39  1  0.50196986  0.75046455  0.74605017  1
  V  V40  1  0.62689179  0.13934396  -0.02779981  1
  V  V41  1  0.50886176  0.75344256  0.23658536  1
  V  V42  1  0.86898165  0.11865540  0.75849455  1
  V  V43  1  0.73670756  -0.00330982  0.25529206  1
  V  V44  1  0.12224982  -0.00459032  0.63986856  1
  V  V45  1  0.49636802  0.26519102  0.25195233  1
  V  V46  1  0.00895187  0.25501816  0.75893427  1
  V  V47  1  0.24581967  0.75839586  0.01031990  1
  V  V48  1  0.13531082  0.12069874  0.48809767  1
  V  V49  1  0.74911797  0.75249925  0.00140724  1
  V  V50  1  0.74785742  0.85764823  0.62843871  1
  V  V51  1  -0.00007543  0.49013040  0.00022341  1
  V  V52  1  0.37265536  0.87337239  0.00870061  1
  V  V53  1  0.12176060  0.62974754  -0.00158023  1
  V  V54  1  0.87050848  0.00123846  0.37246043  1
  V  V55  1  0.59610565  0.48983356  0.09083570  1
  V  V56  1  0.22626460  0.12888229  0.88333171  1
  V  V57  1  0.25340845  -0.01202242  0.24789393  1
  V  V58  1  0.87879417  0.25362172  0.61792667  1
  V  V59  1  0.26060547  0.87184302  0.62371658  1
  V  V60  1  0.50679325  0.11478908  0.12965239  1
  V  V61  1  0.74439058  0.48573010  0.25420601  1
  V  V62  1  0.88826479  0.63139162  0.73871192  1
  V  V63  1  0.62058529  0.76153742  0.37974311  1
  V  V64  1  0.16495549  0.74907769  0.40263394  1
  V  V65  1  0.38041616  0.62897141  0.21965783  1
  V  V66  1  0.73857043  0.62742370  0.38622779  1
  V  V67  1  0.86832574  0.86393249  0.50327560  1
  V  V68  1  0.27032059  0.00751556  0.74893002  1
  V  V69  1  -0.02790187  0.88758211  0.88139548  1
  Zn  Zn70  1  0.87919523  0.12955984  0.25489256  1
  Zn  Zn71  1  0.63593781  0.88127902  0.75669424  1
  Zn  Zn72  1  0.38226452  0.85823529  0.50625530  1
  Zn  Zn73  1  0.74857588  0.37894589  0.61482239  1
  Zn  Zn74  1  0.24640778  0.62506033  0.87225292  1
  Zn  Zn75  1  0.13145408  0.87475247  0.24998788  1
  Zn  Zn76  1  0.17868166  0.17340657  0.19598778  1
  Zn  Zn77  1  0.19325381  0.18731762  0.68566225  1
  Zn  Zn78  1  0.19022847  0.68187604  0.19154233  1
  Zn  Zn79  1  0.19052933  0.68269861  0.67565442  1
  Zn  Zn80  1  0.67392909  0.17202263  0.24090694  1
  Zn  Zn81  1  0.69578814  0.18955937  0.68731511  1
  Zn  Zn82  1  0.68228184  0.67077483  0.18978732  1
  Zn  Zn83  1  0.68582956  0.68257196  0.69246967  1
  Zn  Zn84  1  0.30707942  0.31825553  0.31932089  1
  Zn  Zn85  1  0.30496747  0.30722682  0.81075111  1
  Zn  Zn86  1  0.32395746  0.80453582  0.30652386  1
  Zn  Zn87  1  0.29943801  0.81878479  0.81471042  1
  Zn  Zn88  1  0.83150565  0.31386875  0.31278899  1
  Zn  Zn89  1  0.82532418  0.32497515  0.78928868  1
  Zn  Zn90  1  0.81207069  0.81354283  0.31896807  1
  Zn  Zn91  1  0.81749424  0.81095381  0.80832027  1
  Zn  Zn92  1  0.19505505  0.45305163  0.42400861  1
  Zn  Zn93  1  0.19453490  0.43313414  0.94354266  1
  Zn  Zn94  1  0.19487940  0.93040632  0.43035315  1
  Zn  Zn95  1  0.18435302  0.93859667  0.93296338  1
  Zn  Zn96  1  0.69817002  0.43044965  0.43252441  1
  Zn  Zn97  1  0.68964680  0.41629625  0.92781662  1
  Zn  Zn98  1  0.68694979  0.93462922  0.44144249  1
  Zn  Zn99  1  0.65002275  0.92478125  0.96888689  1
  Zn  Zn100  1  0.30910640  0.06766800  0.06423875  1
  Zn  Zn101  1  0.31379916  0.05903237  0.55853589  1
  Zn  Zn102  1  0.30963842  0.56104403  0.05527744  1
  Zn  Zn103  1  0.33996875  0.52843612  0.57825358  1
  Zn  Zn104  1  0.69060233  0.06118420  0.08983281  1
  Zn  Zn105  1  0.81499512  0.05867810  0.56669250  1
  Zn  Zn106  1  0.81620007  0.56567765  0.06000845  1
  Zn  Zn107  1  0.80992116  0.56650723  0.56257291  1
  Zn  Zn108  1  0.42231695  0.43818268  0.18107440  1
  Zn  Zn109  1  0.44108343  0.43135454  0.68483731  1
  Zn  Zn110  1  0.44121504  0.93354860  0.19281399  1
  Zn  Zn111  1  0.44731687  0.94292441  0.68586993  1
  Zn  Zn112  1  0.93745355  0.43917138  0.18693905  1
  Zn  Zn113  1  0.94269781  0.44515106  0.68735006  1
  Zn  Zn114  1  0.93659436  0.94145444  0.18012063  1
  Zn  Zn115  1  0.93158845  0.92616616  0.69524390  1
  Zn  Zn116  1  0.06719855  0.07028515  0.29868315  1
  Zn  Zn117  1  0.04582857  0.05737603  0.81982802  1
  Zn  Zn118  1  0.07540740  0.57703573  0.31564680  1
  Zn  Zn119  1  0.06317417  0.56765390  0.81724637  1
  Zn  Zn120  1  0.55540499  0.07534497  0.32667395  1
  Zn  Zn121  1  0.56991926  0.05864905  0.81515663  1
  Zn  Zn122  1  0.55929705  0.56116754  0.30448343  1
  Zn  Zn123  1  0.56049489  0.55819525  0.91530675  1
  Zn  Zn124  1  0.43389802  0.18752862  0.45031416  1
  Zn  Zn125  1  0.46394470  0.21253549  0.95425017  1
  Zn  Zn126  1  0.43973970  0.69666696  0.43303278  1
  Zn  Zn127  1  0.42626843  0.68851428  0.93499615  1
  Zn  Zn128  1  0.94390203  0.18380607  0.43445647  1
  Zn  Zn129  1  0.93070566  0.19804527  0.93430745  1
  Zn  Zn130  1  0.93834348  0.68854522  0.43586469  1
  Zn  Zn131  1  0.93532602  0.69336390  0.93064952  1
  Zn  Zn132  1  0.08707812  0.31944853  0.06523511  1
  Zn  Zn133  1  0.06723582  0.31568496  0.56299867  1
  Zn  Zn134  1  0.06245483  0.82343502  0.06281700  1
  Zn  Zn135  1  0.07361838  0.81719271  0.55349788  1
  Zn  Zn136  1  0.55624975  0.31214979  0.06431415  1
  Zn  Zn137  1  0.57483917  0.29607705  0.58319771  1
  Zn  Zn138  1  0.55625698  0.66774775  0.06710441  1
  Zn  Zn139  1  0.56408328  0.81746140  0.55792867  1
  O  O140  1  0.12714101  0.08966580  0.13967966  1
  O  O141  1  0.11978041  0.11566830  0.61519278  1
  O  O142  1  0.11236185  0.63307428  0.11342572  1
  O  O143  1  0.13290379  0.60790084  0.60138683  1
  O  O144  1  0.61145273  0.12951167  0.14818578  1
  O  O145  1  0.63336750  0.11467661  0.62599453  1
  O  O146  1  0.63415295  0.59100080  0.11658365  1
  O  O147  1  0.61527653  0.61367158  0.63015833  1
  O  O148  1  0.37472414  0.37574392  0.39372000  1
  O  O149  1  0.37482157  0.38441009  0.86194990  1
  O  O150  1  0.38197228  0.88057261  0.37854611  1
  O  O151  1  0.37771192  0.88436869  0.87496471  1
  O  O152  1  0.88257733  0.39366973  0.38395134  1
  O  O153  1  0.87161471  0.38889202  0.87091527  1
  O  O154  1  0.87060380  0.88614397  0.39266873  1
  O  O155  1  0.87044823  0.86953311  0.88752942  1
  O  O156  1  0.27280380  -0.00436985  0.37107830  1
  O  O157  1  0.26317342  0.00857578  0.86347266  1
  O  O158  1  0.27277317  0.49906270  0.35812933  1
  O  O159  1  0.25733592  0.50216860  0.86561169  1
  O  O160  1  0.76132106  -0.00577451  0.36785917  1
  O  O161  1  0.81020157  0.01000304  0.94392773  1
  O  O162  1  0.75886263  0.51020020  0.36672683  1
  O  O163  1  0.75971246  0.50346558  0.87135068  1
  O  O164  1  0.25605211  0.50229886  0.13618422  1
  O  O165  1  0.25110146  0.49587923  0.64003138  1
  O  O166  1  0.26460640  1.00199959  0.14835809  1
  O  O167  1  0.24018936  1.00378153  0.63720776  1
  O  O168  1  0.78049011  0.48689936  0.14303887  1
  O  O169  1  0.73458736  0.50678585  0.63093152  1
  O  O170  1  0.74493470  0.97781021  0.14091543  1
  O  O171  1  0.73669568  0.99407370  0.61826728  1
  O  O172  1  -0.00448009  0.36210744  0.24533707  1
  O  O173  1  0.00685391  0.36554788  0.75155913  1
  O  O174  1  -0.00471680  0.86390655  0.24671581  1
  O  O175  1  -0.01173236  0.87424715  0.77453930  1
  O  O176  1  0.47412635  0.36196890  0.25070668  1
  O  O177  1  0.51669753  0.37977657  0.75051176  1
  O  O178  1  0.49390198  0.85340130  0.24992697  1
  O  O179  1  0.49669676  0.86308353  0.75643048  1
  O  O180  1  0.48641168  0.13647773  0.24967046  1
  O  O181  1  0.49427211  0.16471265  0.78009144  1
  O  O182  1  0.48825523  0.62671457  0.24227130  1
  O  O183  1  0.48584218  0.63723485  0.74608775  1
  O  O184  1  0.99630098  0.14167385  0.25149392  1
  O  O185  1  0.99981070  0.13790272  0.73840510  1
  O  O186  1  0.99186823  0.63188533  0.24020780  1
  O  O187  1  0.98820156  0.61539887  0.74927476  1
  O  O188  1  0.36558408  0.22473015  0.02391332  1
  O  O189  1  0.36040157  0.26463425  0.50170954  1
  O  O190  1  0.35726509  0.76150965  -0.00926601  1
  O  O191  1  0.37830476  0.74713929  0.50876604  1
  O  O192  1  0.86606308  0.27096924  -0.00233481  1
  O  O193  1  0.87687632  0.26092289  0.49922864  1
  O  O194  1  0.85863401  0.74275246  0.00945193  1
  O  O195  1  0.87798348  0.76536283  0.49650521  1
  O  O196  1  0.13065316  0.24205201  0.49685372  1
  O  O197  1  0.08837934  0.20770442  0.99779415  1
  O  O198  1  0.14914864  0.75204511  0.50386363  1
  O  O199  1  0.13361846  0.74935332  0.99516979  1
  O  O200  1  0.64207384  0.25000787  0.49252349  1
  O  O201  1  0.59254634  0.23925278  0.98288295  1
  O  O202  1  0.61758444  0.74975731  0.48046408  1
  O  O203  1  0.63201917  0.74116388  0.98842586  1
  O  O204  1  0.48574707  0.24520519  0.14192204  1
  O  O205  1  0.47857638  0.24356920  0.60884567  1
  O  O206  1  0.51610869  0.74623484  0.13568450  1
  O  O207  1  0.51408483  0.73795386  0.63544671  1
  O  O208  1  1.02426196  0.25647123  0.13450433  1
  O  O209  1  0.99591761  0.24261023  0.62268408  1
  O  O210  1  0.98973852  0.74546891  0.13008149  1
  O  O211  1  1.00641140  0.71273514  0.58842311  1
  O  O212  1  0.01568008  0.25359980  0.38041121  1
  O  O213  1  0.00442120  0.24806147  0.85706577  1
  O  O214  1  -0.00706474  0.74838203  0.35566564  1
  O  O215  1  0.01327448  0.75424196  0.87302645  1
  O  O216  1  0.50235385  0.24892551  0.37309553  1
  O  O217  1  0.49054328  0.22260091  0.82764212  1
  O  O218  1  0.51580108  0.74038711  0.36120033  1
  O  O219  1  0.50304906  0.75457289  0.86630935  1
  O  O220  1  0.23536563  0.12140103  0.49838176  1
  O  O221  1  0.24557360  0.11315669  0.98218432  1
  O  O222  1  0.17353643  0.57990568  0.53849170  1
  O  O223  1  0.23979802  0.63668880  0.99801964  1
  O  O224  1  0.76649491  0.14107901  0.50072375  1
  O  O225  1  0.71995850  0.14701621  1.01326004  1
  O  O226  1  0.75374073  0.62539634  0.48471622  1
  O  O227  1  0.75197537  0.63142230  0.98929306  1
  O  O228  1  0.28176460  0.34328052  -0.03048299  1
  O  O229  1  0.23396920  0.37431752  0.50681848  1
  O  O230  1  0.25724004  0.86757690  -0.00504590  1
  O  O231  1  0.25647244  0.88930477  0.52024993  1
  O  O232  1  0.75768951  0.34817389  -0.00094062  1
  O  O233  1  0.76775411  0.36403410  0.49985557  1
  O  O234  1  0.73246345  0.86164123  0.02154625  1
  O  O235  1  0.76119515  0.87643218  0.51042712  1
  O  O236  1  0.14556571  0.51213803  0.25689225  1
  O  O237  1  0.13440333  0.49335644  0.76012118  1
  O  O238  1  0.14866384  0.99450803  0.27280529  1
  O  O239  1  0.11952145  1.00320345  0.73898737  1
  O  O240  1  0.64480905  0.49994740  0.24572588  1
  O  O241  1  0.63988601  0.48522251  0.75639452  1
  O  O242  1  0.63940079  1.00700449  0.26844271  1
  O  O243  1  0.61692881  0.99566577  0.73396448  1
  O  O244  1  0.37571493  0.00631826  0.26517051  1
  O  O245  1  0.37373793  0.01033178  0.75775411  1
  O  O246  1  0.37125893  0.51454465  0.25026488  1
  O  O247  1  0.36233124  0.49895428  0.75247473  1
  O  O248  1  0.87717859  -0.00579738  0.26697776  1
  O  O249  1  0.87928229  0.02102258  0.73683380  1
  O  O250  1  0.87789885  0.50881979  0.26722755  1
  O  O251  1  0.86875967  0.50283144  0.75962565  1
  O  O252  1  0.12191333  0.37122114  0.38176811  1
  O  O253  1  0.12220727  0.37335436  0.86577525  1
  O  O254  1  0.13663587  0.84970547  0.37109160  1
  O  O255  1  0.12942235  0.86370150  0.86478432  1
  O  O256  1  0.63305761  0.35571408  0.37503301  1
  O  O257  1  0.64379734  0.34831395  0.84894400  1
  O  O258  1  0.63386695  0.86116256  0.37077185  1
  O  O259  1  0.61204405  0.86618766  0.87713597  1
  O  O260  1  0.38222758  0.12925233  0.14169543  1
  O  O261  1  0.36299226  0.13851194  0.62234548  1
  O  O262  1  0.38237516  0.62567706  0.11970989  1
  O  O263  1  0.38972043  0.61331108  0.63832326  1
  O  O264  1  0.79383507  0.24636685  0.12606929  1
  O  O265  1  0.88729375  0.13453766  0.62638784  1
  O  O266  1  0.88013316  0.63472800  0.13298968  1
  O  O267  1  0.87604060  0.61071626  0.63958494  1
  O  O268  1  0.25677957  0.23671752  0.13863922  1
  O  O269  1  0.24990957  0.24907519  0.60525002  1
  O  O270  1  0.24297451  0.75281303  0.10921614  1
  O  O271  1  0.24851074  0.77346842  0.63751598  1
  O  O272  1  0.72843406  0.26535390  0.15287594  1
  O  O273  1  0.77012937  0.25195286  0.61234880  1
  O  O274  1  0.74945757  0.75216728  0.12439627  1
  O  O275  1  0.74334340  0.75751958  0.62419506  1
  O  O276  1  0.23423419  0.25709609  0.39242905  1
  O  O277  1  0.25030495  0.22518499  0.86320287  1
  O  O278  1  0.26454065  0.74515047  0.38342232  1
  O  O279  1  0.23559643  0.74682440  0.87889719  1
  O  O280  1  0.76143433  0.25053457  0.38334771  1
  O  O281  1  0.79596925  0.28955043  0.96068518  1
  O  O282  1  0.73898714  0.73406880  0.36449163  1
  O  O283  1  0.74209736  0.74463203  0.88231635  1
  O  O284  1  0.02752640  0.16291532  0.00285052  1
  O  O285  1  0.00816214  0.11322733  0.50770453  1
  O  O286  1  0.00305966  0.63108314  0.00702690  1
  O  O287  1  0.00107977  0.65821647  0.53513594  1
  O  O288  1  0.50807685  0.12605308  0.02467041  1
  O  O289  1  0.49779430  0.10779379  0.49848049  1
  O  O290  1  0.49771348  0.62159167  -0.01421675  1
  O  O291  1  0.49770418  0.62867522  0.51673964  1
  O  O292  1  0.50664453  0.36404251  0.49676563  1
  O  O293  1  0.46467601  0.33332694  0.97994182  1
  O  O294  1  0.49434573  0.89339401  0.50908251  1
  O  O295  1  0.48096764  0.86775388  0.98213324  1
  O  O296  1  0.99030725  0.37499203  0.49904988  1
  O  O297  1  1.00414660  0.39217868  1.00985204  1
  O  O298  1  0.99111475  0.88690903  0.51082078  1
  O  O299  1  1.00058091  0.86500815  0.97988603  1
  O  O300  1  0.48470432  0.49097802  0.35611051  1
  O  O301  1  0.47983609  0.50066018  0.86075001  1
  O  O302  1  0.49154116  1.00087557  0.38508918  1
  O  O303  1  0.48902473  0.99011959  0.86541971  1
  O  O304  1  0.99261304  0.52046509  0.37986002  1
  O  O305  1  0.98783821  0.50260699  0.88374296  1
  O  O306  1  0.99656316  0.99751655  0.38668966  1
  O  O307  1  0.98472391  0.99053262  0.88308334  1
  O  O308  1  -0.01280836  0.01049039  0.10816016  1
  O  O309  1  0.01117924  0.00541335  0.61847339  1
  O  O310  1  -0.00992768  0.51518479  0.10996015  1
  O  O311  1  0.04275859  0.46621902  0.62683301  1
  O  O312  1  0.49810850  0.01564814  0.13941558  1
  O  O313  1  0.51472216  0.00370086  0.61626327  1
  O  O314  1  0.49696499  0.49011244  0.10721697  1
  O  O315  1  0.51265273  0.51164481  0.62678126  1
  O  O316  1  0.25810966  0.38960403  0.24619802  1
  O  O317  1  0.23179734  0.38255311  0.74988561  1
  O  O318  1  0.26005195  0.88342497  0.25064378  1
  O  O319  1  0.25350294  0.89941495  0.74183082  1
  O  O320  1  0.75883125  0.38752400  0.26372678  1
  O  O321  1  0.74778911  0.38281176  0.73389385  1
  O  O322  1  0.75160859  0.88109508  0.24530164  1
  O  O323  1  0.75396075  0.87271587  0.73436511  1
  O  O324  1  0.26455382  0.11392029  0.25747772  1
  O  O325  1  0.24178416  0.11009929  0.75724519  1
  O  O326  1  0.27257852  0.62334866  0.24174515  1
  O  O327  1  0.26062966  0.61386647  0.74310905  1
  O  O328  1  0.76633635  0.10078404  0.23467085  1
  O  O329  1  0.77010863  0.13965339  0.75209521  1
  O  O330  1  0.76474660  0.61323230  0.25348357  1
  O  O331  1  0.75666586  0.61536672  0.75854992  1
  O  O332  1  0.37822342  0.12201774  0.36960325  1
  O  O333  1  0.38896100  0.11262230  0.89198288  1
  O  O334  1  0.38360806  0.61158281  0.37887407  1
  O  O335  1  0.36992051  0.61532110  0.85730627  1
  O  O336  1  0.87983696  0.10519829  0.37946350  1
  O  O337  1  0.88672028  0.12870696  0.85859181  1
  O  O338  1  0.86827142  0.61940564  0.37144797  1
  O  O339  1  0.86597753  0.61822968  0.86564875  1
  O  O340  1  0.17278769  0.38414289  0.04578258  1
  O  O341  1  0.09654566  0.40640227  0.63388422  1
  O  O342  1  0.11165847  0.90365531  0.13328289  1
  O  O343  1  0.13317722  0.89260668  0.62191473  1
  O  O344  1  0.62259762  0.39388142  0.11438843  1
  O  O345  1  0.62530054  0.39679193  0.62619742  1
  O  O346  1  0.62645283  0.86862599  0.14008528  1
  O  O347  1  0.63947468  0.87854695  0.62535497  1
  O  O348  1  0.11916468  0.24725498  0.26679540  1
  O  O349  1  0.11666644  0.26666537  0.73472119  1
  O  O350  1  0.10911589  0.75367350  0.23779630  1
  O  O351  1  0.12689973  0.73796844  0.75543381  1
  O  O352  1  0.60032243  0.26497049  0.25740559  1
  O  O353  1  0.62107478  0.27039079  0.70299248  1
  O  O354  1  0.61657092  0.73546388  0.25752735  1
  O  O355  1  0.61758234  0.75266559  0.76311434  1
  O  O356  1  0.37292499  0.23891376  0.25373388  1
  O  O357  1  0.36388313  0.26721945  0.72231687  1
  O  O358  1  0.39052495  0.73498738  0.24554679  1
  O  O359  1  0.37621214  0.73923325  0.75364439  1
  O  O360  1  0.89308477  0.24641613  0.24794701  1
  O  O361  1  0.89183162  0.24801667  0.73783390  1
  O  O362  1  0.88011644  0.74333735  0.24431582  1
  O  O363  1  0.87263588  0.73079726  0.74889306  1
  O  O364  1  0.38691292  0.48942873  0.48651063  1
  O  O365  1  0.36732026  0.48365537  0.98395535  1
  O  O366  1  0.38252482  0.99768062  0.49066818  1
  O  O367  1  0.36650642  0.98714063  0.98803776  1
  O  O368  1  0.87434374  0.49360427  0.49170146  1
  O  O369  1  0.88481992  0.50636127  0.98577055  1
  O  O370  1  0.88780673  0.99641408  0.49442691  1
  O  O371  1  0.85954454  1.02087994  0.99565551  1
  O  O372  1  0.11806474  0.00101491  -0.00057537  1
  O  O373  1  0.11681372  0.00636204  0.49845035  1
  O  O374  1  0.10627641  0.51835081  -0.01388189  1
  O  O375  1  0.13089624  0.52767840  0.49565882  1
  O  O376  1  0.62191178  0.02685057  -0.00134143  1
  O  O377  1  0.61787145  -0.00088788  0.50699678  1
  O  O378  1  0.61758628  0.48505704  -0.01383454  1
  O  O379  1  0.63091278  0.49869711  0.50446373  1
  O  O380  1  0.36900391  0.35798985  0.10988173  1
  O  O381  1  0.38100598  0.38009070  0.59989776  1
  O  O382  1  0.38104532  0.88052450  0.10622789  1
  O  O383  1  0.36414675  0.88770556  0.62876583  1
  O  O384  1  0.83622676  0.42492518  0.12760841  1
  O  O385  1  0.88129303  0.37237819  0.61274732  1
  O  O386  1  0.86795781  0.86049190  0.12945813  1
  O  O387  1  0.86279442  0.88055188  0.61410248  1
  O  O388  1  0.12066305  0.13057785  0.38853621  1
  O  O389  1  0.12696959  0.11886235  0.86976957  1
  O  O390  1  0.12387788  0.65938040  0.37387735  1
  O  O391  1  0.12339195  0.63936740  0.88501794  1
  O  O392  1  0.63575935  0.15679257  0.35376237  1
  O  O393  1  0.63357440  0.13153006  0.87084388  1
  O  O394  1  0.63781502  0.61758944  0.37258827  1
  O  O395  1  0.63853174  0.63157952  0.86715834  1
