# generated using pymatgen
data_V35Zn35O128
_symmetry_space_group_name_H-M   'P 1'
_cell_length_a   16.94051737
_cell_length_b   16.98046006
_cell_length_c   16.88513979
_cell_angle_alpha   89.76170094
_cell_angle_beta   90.16108203
_cell_angle_gamma   89.72534044
_symmetry_Int_Tables_number   1
_chemical_formula_structural   V35Zn35O128
_chemical_formula_sum   'V70 Zn70 O256'
_cell_volume   4857.02451763
_cell_formula_units_Z   2
loop_
 _symmetry_equiv_pos_site_id
 _symmetry_equiv_pos_as_xyz
  1  'x, y, z'
loop_
 _atom_site_type_symbol
 _atom_site_label
 _atom_site_symmetry_multiplicity
 _atom_site_fract_x
 _atom_site_fract_y
 _atom_site_fract_z
 _atom_site_occupancy
  V  V0  1  0.48258262  0.72453003  0.25996943  1
  V  V1  1  0.12400000  0.13218275  -0.00536258  1
  V  V2  1  0.87720329  0.00383954  0.86593181  1
  V  V3  1  -0.00037365  0.74678134  0.24825656  1
  V  V4  1  0.00337286  -0.00259343  0.00143275  1
  V  V5  1  -0.00258997  0.14069055  0.63338864  1
  V  V6  1  0.24767492  0.86327900  0.11047719  1
  V  V7  1  0.49821195  0.61550929  0.62485619  1
  V  V8  1  0.76166597  0.24932512  0.50739047  1
  V  V9  1  0.11997633  0.50342475  0.60738227  1
  V  V10  1  0.50037156  0.37735937  0.37357888  1
  V  V11  1  0.87206025  0.47707301  0.36231687  1
  V  V12  1  -0.00273347  -0.00767269  0.49593245  1
  V  V13  1  0.23753714  0.51398665  0.25318930  1
  V  V14  1  0.37656678  0.39397869  0.00171391  1
  V  V15  1  0.49388252  0.23688624  0.75036112  1
  V  V16  1  0.00857156  0.62534799  0.10768473  1
  V  V17  1  0.49760063  0.02131207  0.51679464  1
  V  V18  1  0.38436537  0.86868281  -0.00759953  1
  V  V19  1  0.76999923  0.12552702  0.37290388  1
  V  V20  1  0.24427841  0.36393586  0.61978268  1
  V  V21  1  0.13028838  0.74541237  0.88527307  1
  V  V22  1  -0.04925236  0.65257354  0.63052957  1
  V  V23  1  0.88431675  0.23829153  0.13407888  1
  V  V24  1  0.24490096  0.73389727  0.49553228  1
  V  V25  1  0.00373474  0.86891110  0.87228883  1
  V  V26  1  0.24338145  0.62174542  0.88053311  1
  V  V27  1  0.61641487  0.49127748  0.61248720  1
  V  V28  1  0.37759744  0.14417862  0.25264462  1
  V  V29  1  0.38313329  0.36745899  0.50775552  1
  V  V30  1  0.12040312  0.72547818  0.38316880  1
  V  V31  1  0.12517159  0.13986990  0.50257726  1
  V  V32  1  0.63430327  0.00382671  0.63078433  1
  V  V33  1  0.61543718  0.23680043  0.39000875  1
  V  V34  1  0.24007609  0.37104509  0.13250893  1
  V  V35  1  0.62320460  0.37569589  0.75489108  1
  V  V36  1  0.24387309  0.13392045  0.37870882  1
  V  V37  1  0.61320509  0.35154542  0.23658876  1
  V  V38  1  0.61555532  0.62665887  0.48556276  1
  V  V39  1  0.25032143  0.87171985  0.62080325  1
  V  V40  1  0.25403670  0.12473351  0.87017964  1
  V  V41  1  0.76319459  0.37605524  0.62114580  1
  V  V42  1  0.12394729  0.86506113  0.74507718  1
  V  V43  1  0.74860823  0.51029173  0.76313442  1
  V  V44  1  0.02941261  0.36781455  0.35757632  1
  V  V45  1  0.58842708  0.62448012  -0.01740650  1
  V  V46  1  0.86136956  0.87018643  0.50491394  1
  V  V47  1  0.49528159  0.38901854  0.87725402  1
  V  V48  1  0.37170511  0.73004811  0.12191809  1
  V  V49  1  0.63303103  0.24220643  0.88129770  1
  V  V50  1  0.05539657  0.30960040  0.82194672  1
  V  V51  1  0.51968017  0.11998059  0.08742348  1
  V  V52  1  0.00307387  0.48783498  -0.01035633  1
  V  V53  1  0.36776717  0.50272836  0.37258280  1
  V  V54  1  0.27058094  0.24530605  -0.00453821  1
  V  V55  1  0.37238132  0.74339115  0.62505949  1
  V  V56  1  0.14072810  0.00134400  0.12275047  1
  V  V57  1  0.76428200  0.39073417  0.12764020  1
  V  V58  1  0.37582932  -0.01373806  0.36907236  1
  V  V59  1  0.39405797  0.86706907  0.50362737  1
  V  V60  1  0.25280237  0.00183672  0.74903471  1
  V  V61  1  0.86383708  0.13605120  0.74997618  1
  V  V62  1  0.38551308  -0.00584049  0.87462218  1
  V  V63  1  0.75419015  0.24157378  0.00447565  1
  V  V64  1  0.23584518  0.49139618  0.75199783  1
  V  V65  1  0.13539225  0.88156881  0.26529898  1
  V  V66  1  0.36980048  0.61207196  0.75089590  1
  V  V67  1  0.78412526  0.90693317  0.13683536  1
  V  V68  1  0.65269288  0.87271840  0.75129205  1
  V  V69  1  0.49084713  0.77025003  0.75450903  1
  Zn  Zn70  1  0.12236797  0.00493747  0.62850245  1
  Zn  Zn71  1  0.60455486  0.88700444  0.23519186  1
  Zn  Zn72  1  0.74711026  0.74870542  0.49064645  1
  Zn  Zn73  1  0.59900631  0.76147580  0.89314189  1
  Zn  Zn74  1  0.37292342  0.22687408  0.62526798  1
  Zn  Zn75  1  0.77084926  0.61636253  0.35262063  1
  Zn  Zn76  1  0.22421230  0.16945392  0.17030006  1
  Zn  Zn77  1  0.17927521  0.19448916  0.69330911  1
  Zn  Zn78  1  0.18176075  0.68879403  0.19137395  1
  Zn  Zn79  1  0.18126201  0.67995695  0.68477181  1
  Zn  Zn80  1  0.68934902  0.17726828  0.18712242  1
  Zn  Zn81  1  0.68453351  0.18909766  0.68740357  1
  Zn  Zn82  1  0.67441765  0.73430457  0.29299554  1
  Zn  Zn83  1  0.73671861  0.67616197  0.66165713  1
  Zn  Zn84  1  0.30387209  0.31357998  0.32277991  1
  Zn  Zn85  1  0.31258560  0.31380879  0.81467444  1
  Zn  Zn86  1  0.31016185  0.80950874  0.31153465  1
  Zn  Zn87  1  0.31008771  0.80868493  0.81088464  1
  Zn  Zn88  1  0.80150803  0.30333181  0.30590431  1
  Zn  Zn89  1  0.81532811  0.32032187  0.81146105  1
  Zn  Zn90  1  0.83131924  0.82049280  0.33537637  1
  Zn  Zn91  1  0.82801121  0.80863747  0.80778127  1
  Zn  Zn92  1  0.19268284  0.42730042  0.43779131  1
  Zn  Zn93  1  0.18128059  0.43431765  0.93948177  1
  Zn  Zn94  1  0.19077158  0.95220400  0.44743485  1
  Zn  Zn95  1  0.19184426  0.93779736  0.93483347  1
  Zn  Zn96  1  0.69251090  0.43421995  0.43014047  1
  Zn  Zn97  1  0.68856138  0.45122706  0.95671305  1
  Zn  Zn98  1  0.68711519  0.95154876  0.44322480  1
  Zn  Zn99  1  0.72202242  0.89783153  0.94493760  1
  Zn  Zn100  1  0.33957376  0.05080752  0.07222175  1
  Zn  Zn101  1  0.30839525  0.05706602  0.55897541  1
  Zn  Zn102  1  0.29121413  0.55422576  0.06613110  1
  Zn  Zn103  1  0.31064331  0.54932273  0.56087535  1
  Zn  Zn104  1  0.81727171  0.06710644  0.05714693  1
  Zn  Zn105  1  0.81634169  0.06501274  0.56159577  1
  Zn  Zn106  1  0.84679000  0.55435657  0.09394358  1
  Zn  Zn107  1  0.80629285  0.55830753  0.54614860  1
  Zn  Zn108  1  0.43065354  0.42772634  0.19440944  1
  Zn  Zn109  1  0.43520605  0.43250546  0.69312298  1
  Zn  Zn110  1  0.44229829  0.94264484  0.16959035  1
  Zn  Zn111  1  0.43695028  1.06079112  0.69555077  1
  Zn  Zn112  1  0.95236398  0.43915934  0.18664358  1
  Zn  Zn113  1  0.94193242  0.47066236  0.69300804  1
  Zn  Zn114  1  0.96076594  0.95333340  0.20604787  1
  Zn  Zn115  1  0.93402137  0.94876719  0.67535445  1
  Zn  Zn116  1  0.05565534  0.07262656  0.31477715  1
  Zn  Zn117  1  0.06582451  0.06221826  0.81126950  1
  Zn  Zn118  1  0.04948431  0.55356855  0.31861486  1
  Zn  Zn119  1  0.05557491  0.56577063  0.79981993  1
  Zn  Zn120  1  0.54929925  0.06415826  0.32275980  1
  Zn  Zn121  1  0.57875429  0.05551487  0.82046696  1
  Zn  Zn122  1  0.60395890  0.57231064  0.27686088  1
  Zn  Zn123  1  0.56829106  0.56749337  0.80453859  1
  Zn  Zn124  1  0.42798089  0.18797537  0.43595095  1
  Zn  Zn125  1  0.44563024  0.17933609  0.92500646  1
  Zn  Zn126  1  0.43472794  0.67920570  0.43992434  1
  Zn  Zn127  1  0.42299082  0.68426414  0.93535771  1
  Zn  Zn128  1  0.94492913  0.19992104  0.44495124  1
  Zn  Zn129  1  0.93282619  0.18769373  0.94173237  1
  Zn  Zn130  1  0.93782264  0.68337534  0.44547902  1
  Zn  Zn131  1  0.91801003  0.61454895  0.92673884  1
  Zn  Zn132  1  0.05731253  0.31602064  0.05271073  1
  Zn  Zn133  1  0.03272078  0.34261376  0.57245390  1
  Zn  Zn134  1  0.05910257  0.81113809  0.06233396  1
  Zn  Zn135  1  0.05383591  0.80410450  0.56574576  1
  Zn  Zn136  1  0.54159396  0.29223653  0.05190162  1
  Zn  Zn137  1  0.56018286  0.30604348  0.56543324  1
  Zn  Zn138  1  0.54936874  0.80292548  0.07735593  1
  Zn  Zn139  1  0.59130562  0.79629589  0.57906188  1
  O  O140  1  0.14252259  0.10809648  0.11004873  1
  O  O141  1  0.11807119  0.12877296  0.61885014  1
  O  O142  1  0.11090574  0.62928024  0.12943520  1
  O  O143  1  0.12315679  0.60334195  0.62439127  1
  O  O144  1  0.61368595  0.11761165  0.12975220  1
  O  O145  1  0.62103493  0.10276095  0.64984199  1
  O  O146  1  0.76382518  0.71574348  0.10431843  1
  O  O147  1  0.61358309  0.60399149  0.61137063  1
  O  O148  1  0.38152721  0.36772567  0.38965244  1
  O  O149  1  0.38785110  0.37366578  0.88279800  1
  O  O150  1  0.36607958  0.88133448  0.39026941  1
  O  O151  1  0.36328795  0.87984973  0.88366699  1
  O  O152  1  0.86614004  0.37618402  0.36494397  1
  O  O153  1  0.91339824  0.37945230  0.83699125  1
  O  O154  1  0.88677312  0.88920725  0.40356376  1
  O  O155  1  0.89967182  0.88189903  0.86081025  1
  O  O156  1  0.27322109  0.01019790  0.38992944  1
  O  O157  1  0.25581550  0.00519405  0.86658484  1
  O  O158  1  0.25798416  0.48753270  0.36294469  1
  O  O159  1  0.23590180  0.50922535  0.85991540  1
  O  O160  1  0.75544100  0.02981762  0.39957728  1
  O  O161  1  0.78337998  -0.01917142  0.89049139  1
  O  O162  1  0.76203046  0.49575051  0.36744863  1
  O  O163  1  0.73889666  0.49046005  0.86243212  1
  O  O164  1  0.25229355  0.48192256  0.14338028  1
  O  O165  1  0.23902413  0.48805683  0.63218837  1
  O  O166  1  0.24454793  0.98365132  0.11503407  1
  O  O167  1  0.24847606  0.98491866  0.63290322  1
  O  O168  1  0.76124661  0.49010757  0.13101835  1
  O  O169  1  0.73203945  0.48758538  0.62780292  1
  O  O170  1  0.75585970  1.00308684  0.12691119  1
  O  O171  1  0.73216778  1.00176142  0.61159509  1
  O  O172  1  0.01025546  0.37095003  0.25602327  1
  O  O173  1  -0.02937345  0.37498555  0.77704647  1
  O  O174  1  0.03059295  0.86376352  0.24558080  1
  O  O175  1  0.02060116  0.88615249  0.75754947  1
  O  O176  1  0.49841338  0.35781174  0.26787811  1
  O  O177  1  0.50346779  0.36659308  0.76230278  1
  O  O178  1  0.54009440  0.89236074  0.14523372  1
  O  O179  1  0.46992318  0.86318574  0.74778240  1
  O  O180  1  0.47673240  0.12012074  0.25382772  1
  O  O181  1  0.50194130  0.13306376  0.76387945  1
  O  O182  1  0.50147789  0.62736998  0.25829025  1
  O  O183  1  0.48631729  0.62160646  0.74037058  1
  O  O184  1  1.06359910  0.20369028  0.25095351  1
  O  O185  1  1.00310026  0.12480346  0.73756849  1
  O  O186  1  1.01300150  0.64524838  0.25905063  1
  O  O187  1  0.98456175  0.58827538  0.70864298  1
  O  O188  1  0.37036836  0.24753612  -0.00948518  1
  O  O189  1  0.38069332  0.26138862  0.51134607  1
  O  O190  1  0.37186641  0.75771770  0.01074338  1
  O  O191  1  0.36195413  0.75058280  0.50682830  1
  O  O192  1  0.85832855  0.25395485  0.00085230  1
  O  O193  1  0.85975130  0.25756720  0.50377831  1
  O  O194  1  0.84792545  0.72722250  -0.04339302  1
  O  O195  1  0.87099407  0.76394068  0.49708664  1
  O  O196  1  0.12397618  0.23572701  0.50192235  1
  O  O197  1  0.12982155  0.23270469  1.00338336  1
  O  O198  1  0.13564548  0.75220246  0.49414044  1
  O  O199  1  0.12642642  0.75315666  0.98339076  1
  O  O200  1  0.63266073  0.25676040  0.49327180  1
  O  O201  1  0.63063141  0.25301988  0.98601909  1
  O  O202  1  0.60042615  0.72667865  0.47826350  1
  O  O203  1  0.60529424  0.72838882  1.01166575  1
  O  O204  1  0.48155037  0.21244169  0.10555454  1
  O  O205  1  0.50153762  0.24904161  0.64671348  1
  O  O206  1  0.47555778  0.73162627  0.13398171  1
  O  O207  1  0.48803031  0.73729330  0.63714190  1
  O  O208  1  0.98162853  0.26001783  0.11360480  1
  O  O209  1  0.99909600  0.23992672  0.61919949  1
  O  O210  1  1.01088290  0.74712426  0.14124944  1
  O  O211  1  0.99061119  0.74562880  0.64033751  1
  O  O212  1  0.00694466  0.26216611  0.37508212  1
  O  O213  1  0.00996695  0.24396370  0.88269053  1
  O  O214  1  0.01882073  0.74693554  0.38062381  1
  O  O215  1  0.01720902  0.76706380  0.87028781  1
  O  O216  1  0.51079765  0.25664888  0.39022999  1
  O  O217  1  0.51428641  0.25630339  0.86732426  1
  O  O218  1  0.46306887  0.74832324  0.35718269  1
  O  O219  1  0.48412280  0.74791551  0.85851831  1
  O  O220  1  0.23415946  0.11826798  0.49638181  1
  O  O221  1  0.24954471  0.13566305  0.99285205  1
  O  O222  1  0.25320072  0.63652349  0.50643946  1
  O  O223  1  0.24409648  0.61231993  0.97884402  1
  O  O224  1  0.75257446  0.14553044  0.50395730  1
  O  O225  1  0.74887711  0.14256419  0.99793573  1
  O  O226  1  0.72170658  0.61979347  0.48942392  1
  O  O227  1  0.74967848  0.65360905  1.06976780  1
  O  O228  1  0.26481581  0.36453118  -0.00780293  1
  O  O229  1  0.26142486  0.36738768  0.51462432  1
  O  O230  1  0.25172021  0.86759841  0.00632234  1
  O  O231  1  0.25292665  0.86892509  0.51330505  1
  O  O232  1  0.72989541  0.37185809  0.02804468  1
  O  O233  1  0.74405510  0.37011552  0.51539913  1
  O  O234  1  0.75041025  0.86519592  0.04732178  1
  O  O235  1  0.75651704  0.87560515  0.49379488  1
  O  O236  1  0.13903171  0.50327132  0.25996938  1
  O  O237  1  0.13360442  0.49576059  0.73946797  1
  O  O238  1  0.12803046  0.98887271  0.22975002  1
  O  O239  1  0.13899510  0.98790772  0.75022505  1
  O  O240  1  0.59091744  0.46992615  0.22148268  1
  O  O241  1  0.62782156  0.48872732  0.74183247  1
  O  O242  1  0.62833683  0.98525695  0.29376415  1
  O  O243  1  0.63338488  0.98013916  0.75308817  1
  O  O244  1  0.38671519  -0.01919915  0.26861701  1
  O  O245  1  0.36185299  -0.00512630  0.76333469  1
  O  O246  1  0.36160862  0.48552417  0.26490732  1
  O  O247  1  0.36093390  0.50744157  0.74332699  1
  O  O248  1  0.97326792  0.05552462  0.24438060  1
  O  O249  1  0.88202381  0.00760516  0.76128155  1
  O  O250  1  0.88631588  0.49971079  0.26263070  1
  O  O251  1  0.84636118  0.50115910  0.74366454  1
  O  O252  1  0.12960828  0.36962884  0.36604191  1
  O  O253  1  0.11998399  0.36651831  0.87333200  1
  O  O254  1  0.14176458  0.88916634  0.36433298  1
  O  O255  1  0.12938317  0.86499698  0.86394580  1
  O  O256  1  0.61039538  0.37268354  0.37004229  1
  O  O257  1  0.61185481  0.37151537  0.86998068  1
  O  O258  1  0.61802418  0.92043602  0.35360677  1
  O  O259  1  0.65038656  0.85877548  0.86497736  1
  O  O260  1  0.33457036  0.12624238  0.15660055  1
  O  O261  1  0.36050757  0.11757543  0.63606824  1
  O  O262  1  0.35438242  0.63352786  0.11708684  1
  O  O263  1  0.37551239  0.62618782  0.62921978  1
  O  O264  1  0.88049789  0.13912222  0.11608379  1
  O  O265  1  0.88689358  0.12301378  0.63942543  1
  O  O266  1  0.90918787  0.63272099  0.14282152  1
  O  O267  1  0.84417431  0.63897481  0.62238896  1
  O  O268  1  0.25370766  0.26027179  0.10158234  1
  O  O269  1  0.25937165  0.26445881  0.64609293  1
  O  O270  1  0.25468135  0.75870811  0.12705178  1
  O  O271  1  0.25243484  0.75055052  0.61756723  1
  O  O272  1  0.75561767  0.25024823  0.11526626  1
  O  O273  1  0.74186245  0.26519008  0.61919287  1
  O  O274  1  0.71789654  0.84293657  0.20946799  1
  O  O275  1  0.70009862  0.75414102  0.59569260  1
  O  O276  1  0.25428066  0.23269686  0.38747511  1
  O  O277  1  0.25559159  0.23873547  0.88240282  1
  O  O278  1  0.24289671  0.75037994  0.39041789  1
  O  O279  1  0.23981347  0.73593007  0.86937530  1
  O  O280  1  0.73785186  0.24733707  0.39067968  1
  O  O281  1  0.73964073  0.27062519  0.88798236  1
  O  O282  1  0.75481016  0.74307568  0.37243820  1
  O  O283  1  0.79063797  0.75419056  0.91387748  1
  O  O284  1  0.01893766  0.11231813  -0.00747586  1
  O  O285  1  0.00915616  0.12302919  0.51062940  1
  O  O286  1  0.00020625  0.64601384  0.00848158  1
  O  O287  1  -0.01831793  0.62422342  0.53928820  1
  O  O288  1  0.52116348  0.11883181  -0.01590716  1
  O  O289  1  0.49042808  0.11945158  0.50994098  1
  O  O290  1  0.48970380  0.60942937  -0.00912719  1
  O  O291  1  0.49573935  0.62126862  0.51863541  1
  O  O292  1  0.48929980  0.37365798  0.49605575  1
  O  O293  1  0.48782734  0.37480944  0.98935196  1
  O  O294  1  0.49173329  0.85689449  0.51308138  1
  O  O295  1  0.48267774  0.86584760  0.99234395  1
  O  O296  1  0.99609385  0.35213498  0.46571359  1
  O  O297  1  0.99232414  0.38886690  0.99162593  1
  O  O298  1  1.00449024  0.88966683  0.50991603  1
  O  O299  1  1.01287365  0.88554163  0.98258095  1
  O  O300  1  0.48098071  0.47728846  0.37135172  1
  O  O301  1  0.50336250  0.48651588  0.86661091  1
  O  O302  1  0.48002289  1.00591424  0.39956528  1
  O  O303  1  0.48383722  0.99898270  0.86530264  1
  O  O304  1  0.99296962  0.47285791  0.37453363  1
  O  O305  1  0.99399750  0.52915406  0.88654775  1
  O  O306  1  1.00905981  1.00693850  0.39779918  1
  O  O307  1  1.00238893  0.99111608  0.88064688  1
  O  O308  1  0.02433594  -0.01081590  0.10373090  1
  O  O309  1  0.00558731  0.01775043  0.61888742  1
  O  O310  1  -0.00233156  0.51135239  0.10475672  1
  O  O311  1  0.02392933  0.45528194  0.61749944  1
  O  O312  1  0.45396447  0.04046817  0.10962868  1
  O  O313  1  0.50251219  0.00293449  0.62103477  1
  O  O314  1  0.53021116  0.48507583  0.16702020  1
  O  O315  1  0.50824244  0.50160749  0.63415564  1
  O  O316  1  0.24682088  0.35627838  0.23226550  1
  O  O317  1  0.25895555  0.38867043  0.74359321  1
  O  O318  1  0.23859982  0.86845895  0.23528525  1
  O  O319  1  0.24376594  0.87851347  0.74171417  1
  O  O320  1  0.72297476  0.36761582  0.23063637  1
  O  O321  1  0.73826589  0.37828340  0.73950148  1
  O  O322  1  0.77205425  0.89312739  0.25420955  1
  O  O323  1  0.75092641  0.85357718  0.74030868  1
  O  O324  1  0.24933727  0.12300657  0.27478282  1
  O  O325  1  0.23813414  0.11534889  0.76065811  1
  O  O326  1  0.25013135  0.61220356  0.24699004  1
  O  O327  1  0.25193219  0.61017920  0.74946465  1
  O  O328  1  0.74645451  0.13312476  0.27404583  1
  O  O329  1  0.76520414  0.12618185  0.74352878  1
  O  O330  1  0.69980460  0.62792160  0.26347515  1
  O  O331  1  0.72545061  0.60929281  0.74997647  1
  O  O332  1  0.36643357  0.11734587  0.36770845  1
  O  O333  1  0.36487550  0.10589305  0.88145008  1
  O  O334  1  0.37298369  0.60027636  0.38302581  1
  O  O335  1  0.35235233  0.62788220  0.86221196  1
  O  O336  1  0.86850784  0.14159162  0.38085435  1
  O  O337  1  0.88344432  0.11201845  0.86445457  1
  O  O338  1  0.87979714  0.60308628  0.38921831  1
  O  O339  1  0.87003815  0.64660178  0.82268041  1
  O  O340  1  0.14336970  0.36979945  0.10881805  1
  O  O341  1  0.14370168  0.37129090  0.61811939  1
  O  O342  1  0.13917078  0.87968125  0.11833511  1
  O  O343  1  0.13275922  0.86882453  0.63587128  1
  O  O344  1  0.59847961  0.33797363  0.13986654  1
  O  O345  1  0.61716712  0.38161729  0.63646470  1
  O  O346  1  0.59761998  0.98546598  0.02958537  1
  O  O347  1  0.61732465  0.88731047  0.64738865  1
  O  O348  1  0.12411575  0.23825073  0.22831752  1
  O  O349  1  0.10823138  0.26160060  0.75118744  1
  O  O350  1  0.12948163  0.75813974  0.27419579  1
  O  O351  1  0.13130429  0.76200800  0.75300352  1
  O  O352  1  0.62609581  0.25322111  0.27359261  1
  O  O353  1  0.61940578  0.26032912  0.75837319  1
  O  O354  1  0.57721341  0.77262889  0.25229569  1
  O  O355  1  0.59879628  0.77423741  0.75004021  1
  O  O356  1  0.37350465  0.24245972  0.26062676  1
  O  O357  1  0.39248493  0.25177899  0.75645879  1
  O  O358  1  0.37458671  0.75496908  0.23236153  1
  O  O359  1  0.37184144  0.73533014  0.74028922  1
  O  O360  1  0.86862678  0.24785846  0.23353800  1
  O  O361  1  0.87433696  0.23428711  0.76103151  1
  O  O362  1  0.90344964  0.76484623  0.26410333  1
  O  O363  1  0.88550938  0.70954267  0.78019576  1
  O  O364  1  0.36331901  0.47991272  0.48611423  1
  O  O365  1  0.36428120  0.49091436  0.99631074  1
  O  O366  1  0.38835265  0.98395586  0.50887736  1
  O  O367  1  0.36728736  0.98200672  0.98382175  1
  O  O368  1  0.87531186  0.50441080  0.47679699  1
  O  O369  1  0.88814138  0.52555474  0.99299541  1
  O  O370  1  0.89092440  0.99814030  0.50864711  1
  O  O371  1  0.89998385  1.01074380  0.98973147  1
  O  O372  1  0.12593210  0.00615002  0.00253497  1
  O  O373  1  0.11621267  0.00868699  0.51101304  1
  O  O374  1  0.10623269  0.49981675  -0.00698179  1
  O  O375  1  0.13689747  0.49658890  0.50912584  1
  O  O376  1  0.63927332  0.00020179  -0.02892331  1
  O  O377  1  0.60388932  -0.00632379  0.51744896  1
  O  O378  1  0.63825435  0.54014096  0.01030322  1
  O  O379  1  0.62023774  0.48722799  0.51221004  1
  O  O380  1  0.36908268  0.37754698  0.10700706  1
  O  O381  1  0.37013680  0.37903741  0.61545198  1
  O  O382  1  0.36222526  0.87414900  0.10827892  1
  O  O383  1  0.36440955  0.85384400  0.61903406  1
  O  O384  1  0.86385988  0.36962476  0.13156749  1
  O  O385  1  0.85965702  0.38420511  0.63035088  1
  O  O386  1  0.88530918  0.90181732  0.13887595  1
  O  O387  1  0.87739517  0.88060508  0.60911963  1
  O  O388  1  0.13417296  0.11814335  0.38587291  1
  O  O389  1  0.14005289  0.11611396  0.88805014  1
  O  O390  1  0.12334526  0.62820893  0.38239063  1
  O  O391  1  0.13084429  0.63938649  0.85885451  1
  O  O392  1  0.62008674  0.13703012  0.38372088  1
  O  O393  1  0.63693333  0.14446410  0.86461058  1
  O  O394  1  0.59602579  0.59125533  0.39457839  1
  O  O395  1  0.61112352  0.63932686  0.88105750  1
