# generated using pymatgen
data_V35Zn35O128
_symmetry_space_group_name_H-M   'P 1'
_cell_length_a   16.92602701
_cell_length_b   16.82542539
_cell_length_c   17.00325422
_cell_angle_alpha   90.43225365
_cell_angle_beta   90.10309941
_cell_angle_gamma   90.14096193
_symmetry_Int_Tables_number   1
_chemical_formula_structural   V35Zn35O128
_chemical_formula_sum   'V70 Zn70 O256'
_cell_volume   4842.15558339
_cell_formula_units_Z   2
loop_
 _symmetry_equiv_pos_site_id
 _symmetry_equiv_pos_as_xyz
  1  'x, y, z'
loop_
 _atom_site_type_symbol
 _atom_site_label
 _atom_site_symmetry_multiplicity
 _atom_site_fract_x
 _atom_site_fract_y
 _atom_site_fract_z
 _atom_site_occupancy
  V  V0  1  0.60824644  0.88771516  0.73668164  1
  V  V1  1  0.24475418  0.37949840  0.62162549  1
  V  V2  1  0.60352622  -0.00765166  0.11376163  1
  V  V3  1  0.26152091  0.12358729  0.36735111  1
  V  V4  1  0.63216376  0.13246195  0.48795325  1
  V  V5  1  0.49895631  0.36938937  0.88368029  1
  V  V6  1  0.76146697  0.86776567  0.13345966  1
  V  V7  1  0.49916929  0.72696901  0.73964181  1
  V  V8  1  -0.01379105  0.38809129  0.38269340  1
  V  V9  1  0.87146642  0.50890949  0.87652591  1
  V  V10  1  0.25029051  0.74211644  0.47724245  1
  V  V11  1  0.36758617  0.25267428  0.61797244  1
  V  V12  1  -0.01562791  0.24114037  0.24825383  1
  V  V13  1  0.24929497  0.25752905  0.49641985  1
  V  V14  1  0.49598412  0.48815695  0.50077553  1
  V  V15  1  0.11589484  0.12752987  0.50210657  1
  V  V16  1  0.35751488  0.49585304  0.36386460  1
  V  V17  1  0.73718233  0.25020267  -0.00140404  1
  V  V18  1  0.11642265  0.38198685  0.24066747  1
  V  V19  1  0.11856870  0.37233662  0.75025174  1
  V  V20  1  0.63161973  0.25027493  0.85729940  1
  V  V21  1  0.63388494  0.51879761  0.13111934  1
  V  V22  1  0.25124199  0.88018697  0.11416700  1
  V  V23  1  0.37570702  0.73915611  0.62336093  1
  V  V24  1  0.25920541  0.50108461  0.75192229  1
  V  V25  1  0.75709830  0.77319627  0.50687013  1
  V  V26  1  0.62790923  0.49882479  0.63508717  1
  V  V27  1  0.25503393  0.13377705  0.89792326  1
  V  V28  1  0.75024846  0.10153064  0.87149953  1
  V  V29  1  0.28458319  0.37826173  0.10251417  1
  V  V30  1  0.41689212  0.14140012  0.22810500  1
  V  V31  1  -0.00267446  0.76767386  0.27759433  1
  V  V32  1  0.86004445  0.62585772  0.27190079  1
  V  V33  1  0.37612210  0.48500026  0.89286372  1
  V  V34  1  0.50259531  -0.00099113  0.48925159  1
  V  V35  1  0.49970545  0.25728749  0.74043273  1
  V  V36  1  0.86984610  0.36915545  0.00835533  1
  V  V37  1  0.78087381  -0.00132200  0.70573430  1
  V  V38  1  0.12504398  0.24923087  0.87908568  1
  V  V39  1  0.11492204  0.51740219  0.62767630  1
  V  V40  1  0.26399880  0.63337633  0.88346392  1
  V  V41  1  0.64222040  0.61323516  0.49815815  1
  V  V42  1  0.01174305  0.49784665  0.00714883  1
  V  V43  1  0.13481226  -0.00549813  0.63053148  1
  V  V44  1  0.75017742  0.74705129  -0.00916632  1
  V  V45  1  0.38065139  0.00456932  0.89153658  1
  V  V46  1  0.49767496  0.72649954  0.25920713  1
  V  V47  1  0.62614350  0.86947688  0.26245620  1
  V  V48  1  0.11427573  0.63207045  0.48534282  1
  V  V49  1  0.12407491  0.00503359  0.14199084  1
  V  V50  1  0.74011356  0.02418716  0.25317269  1
  V  V51  1  0.48524102  0.62922104  0.11143922  1
  V  V52  1  0.75156896  0.35724629  0.64105679  1
  V  V53  1  -0.00346997  0.64720345  0.12259619  1
  V  V54  1  0.35533686  0.11896970  0.74061493  1
  V  V55  1  0.87269475  0.89672300  -0.01184036  1
  V  V56  1  0.86516827  0.23870467  0.12574568  1
  V  V57  1  -0.00217257  0.36637827  0.87252005  1
  V  V58  1  0.50278026  0.11494428  0.62286346  1
  V  V59  1  0.90161768  0.23769509  0.62999216  1
  V  V60  1  0.87099890  0.00167518  0.36320758  1
  V  V61  1  0.61393660  0.29764587  0.33125093  1
  V  V62  1  0.25633603  0.87838103  0.63802386  1
  V  V63  1  0.86821465  0.37864233  0.50434436  1
  V  V64  1  0.00757347  -0.02119845  0.48463940  1
  V  V65  1  0.11554347  0.25459840  0.37272088  1
  V  V66  1  0.11470415  0.12434642  0.01071403  1
  V  V67  1  0.75697072  0.51571968  0.75255149  1
  V  V68  1  0.13005292  0.64954264  -0.00324921  1
  V  V69  1  0.37423474  0.87706160  0.48552890  1
  Zn  Zn70  1  0.89337899  0.73454861  0.61626752  1
  Zn  Zn71  1  0.64391694  0.71304867  0.36589900  1
  Zn  Zn72  1  0.22416335  0.51267374  0.25036076  1
  Zn  Zn73  1  0.62902305  0.73584944  0.86785513  1
  Zn  Zn74  1  0.50681505  0.85638460  0.38201825  1
  Zn  Zn75  1  -0.05565100  0.06355866  0.06092817  1
  Zn  Zn76  1  0.24518379  0.17537583  0.15743405  1
  Zn  Zn77  1  0.16791545  0.18636870  0.68727413  1
  Zn  Zn78  1  0.16560814  0.70507600  0.18195931  1
  Zn  Zn79  1  0.21354435  0.68249141  0.68842402  1
  Zn  Zn80  1  0.63019829  0.17892997  0.17957514  1
  Zn  Zn81  1  0.68831742  0.17091633  0.68765424  1
  Zn  Zn82  1  0.68948232  0.68368077  0.18452639  1
  Zn  Zn83  1  0.69236773  0.69222215  0.67952400  1
  Zn  Zn84  1  0.31049173  0.31088604  0.30213505  1
  Zn  Zn85  1  0.31041216  0.30971683  0.80647852  1
  Zn  Zn86  1  0.30531792  0.68861096  0.27773507  1
  Zn  Zn87  1  0.36502845  0.80059124  0.83489540  1
  Zn  Zn88  1  0.80370043  0.29459049  0.32443147  1
  Zn  Zn89  1  0.82143763  0.30759386  0.81006132  1
  Zn  Zn90  1  0.81580572  0.80790279  0.32437706  1
  Zn  Zn91  1  0.77223313  0.84705104  0.82796990  1
  Zn  Zn92  1  0.17808022  0.44630998  0.43712443  1
  Zn  Zn93  1  0.19218937  0.43256780  0.94018855  1
  Zn  Zn94  1  0.20044074  0.94477835  0.44198876  1
  Zn  Zn95  1  0.20633069  0.95280421  0.95224164  1
  Zn  Zn96  1  0.66977258  0.40137344  0.46326438  1
  Zn  Zn97  1  0.68568285  0.43194167  0.92876120  1
  Zn  Zn98  1  0.69004875  0.95144950  0.44211960  1
  Zn  Zn99  1  0.66131775  0.90537219  0.94242298  1
  Zn  Zn100  1  0.34541153  0.02320551  0.09908267  1
  Zn  Zn101  1  0.31174780  0.06593152  0.54719119  1
  Zn  Zn102  1  0.28261346  0.58331362  0.10376243  1
  Zn  Zn103  1  0.32457135  0.57188870  0.52947543  1
  Zn  Zn104  1  0.76729108  0.06705137  0.06510771  1
  Zn  Zn105  1  0.83128410  0.06961840  0.53607601  1
  Zn  Zn106  1  0.81445870  0.56241194  0.06298715  1
  Zn  Zn107  1  0.82369936  0.56483190  0.57374507  1
  Zn  Zn108  1  0.43842670  0.46553225  0.19580209  1
  Zn  Zn109  1  0.42965691  0.44326648  0.67179389  1
  Zn  Zn110  1  0.43369328  0.94086832  0.21963819  1
  Zn  Zn111  1  0.43167894  0.93356202  0.68705105  1
  Zn  Zn112  1  0.93414892  0.44266999  0.19041586  1
  Zn  Zn113  1  0.93380912  0.44019835  0.68775150  1
  Zn  Zn114  1  0.93966174  0.94467855  0.19388651  1
  Zn  Zn115  1  0.93592119  0.92466183  0.63374719  1
  Zn  Zn116  1  0.06182776  0.06852898  0.31701239  1
  Zn  Zn117  1  0.08104666  0.04814347  0.81866106  1
  Zn  Zn118  1  0.04181185  0.56873928  0.30658123  1
  Zn  Zn119  1  0.07313391  0.55541791  0.82670164  1
  Zn  Zn120  1  0.55242551  0.06625487  0.30734293  1
  Zn  Zn121  1  0.56035188  0.06737622  0.80895491  1
  Zn  Zn122  1  0.57835970  0.50890357  0.33153598  1
  Zn  Zn123  1  0.56348468  0.55259347  0.80597740  1
  Zn  Zn124  1  0.44812338  0.20458700  0.42885224  1
  Zn  Zn125  1  0.46104817  0.16173395  0.91997335  1
  Zn  Zn126  1  0.46134474  0.65934802  0.43305253  1
  Zn  Zn127  1  0.47586175  0.65216521  0.90627223  1
  Zn  Zn128  1  0.92880750  0.18925202  0.44307704  1
  Zn  Zn129  1  0.92955938  0.15124744  0.79157088  1
  Zn  Zn130  1  0.93106247  0.68618730  0.44231880  1
  Zn  Zn131  1  0.92119259  0.68531441  0.96732683  1
  Zn  Zn132  1  0.05496250  0.30305897  0.06303800  1
  Zn  Zn133  1  0.05956126  0.32025585  0.56059404  1
  Zn  Zn134  1  0.05807629  0.83415183  0.05725202  1
  Zn  Zn135  1  0.06569710  0.80995402  0.55967711  1
  Zn  Zn136  1  0.50556017  0.37085407  0.09344375  1
  Zn  Zn137  1  0.56700671  0.30787208  0.57243416  1
  Zn  Zn138  1  0.58115234  0.79124768  0.08126109  1
  Zn  Zn139  1  0.56629163  0.80379984  0.56323337  1
  O  O140  1  0.14224402  0.12645034  0.11414900  1
  O  O141  1  0.13719689  0.11138030  0.60615235  1
  O  O142  1  0.10999295  0.63240225  0.10426490  1
  O  O143  1  0.12836603  0.61830166  0.64219657  1
  O  O144  1  0.64395196  0.09135458  0.10804658  1
  O  O145  1  0.60446516  0.12392819  0.61793475  1
  O  O146  1  0.61461464  0.62490958  0.12055945  1
  O  O147  1  0.63928610  0.60321229  0.62012752  1
  O  O148  1  0.36185018  0.39344604  0.37004698  1
  O  O149  1  0.38491312  0.37402226  0.86788918  1
  O  O150  1  0.38516439  0.86797291  0.38835139  1
  O  O151  1  0.38199753  0.90666007  0.86917322  1
  O  O152  1  0.87584634  0.36316416  0.39285119  1
  O  O153  1  0.88495133  0.37684967  0.88298210  1
  O  O154  1  0.86414856  0.90253997  0.37999700  1
  O  O155  1  0.85396411  0.90296975  0.89070346  1
  O  O156  1  0.25126629  0.02330996  0.37889380  1
  O  O157  1  0.26386635  0.02380468  0.88073029  1
  O  O158  1  0.24998427  0.50381463  0.36931967  1
  O  O159  1  0.26416920  0.49282410  0.87053051  1
  O  O160  1  0.75255183  0.00499152  0.35839141  1
  O  O161  1  0.72634304  0.00824259  0.89404945  1
  O  O162  1  0.75861760  0.46695173  0.30892691  1
  O  O163  1  0.76096574  0.49292533  0.86529582  1
  O  O164  1  0.25221556  0.47480982  0.13844210  1
  O  O165  1  0.23825742  0.49227738  0.63456871  1
  O  O166  1  0.23107598  0.99676029  0.12361726  1
  O  O167  1  0.24570414  0.98803253  0.60484813  1
  O  O168  1  0.73562849  0.51662706  0.12449372  1
  O  O169  1  0.75372115  0.49063334  0.64390695  1
  O  O170  1  0.74444264  0.98516897  0.14688366  1
  O  O171  1  0.76127202  1.00659872  0.60974355  1
  O  O172  1  -0.00651248  0.37077523  0.26465332  1
  O  O173  1  0.00929302  0.38676420  0.76245420  1
  O  O174  1  -0.01149075  0.86720252  0.25801026  1
  O  O175  1  -0.05282217  0.82294641  0.79088905  1
  O  O176  1  0.50331572  0.37290427  0.20477725  1
  O  O177  1  0.48899248  0.35859936  0.74261825  1
  O  O178  1  0.51457554  0.86770765  0.26047453  1
  O  O179  1  0.50467989  0.86439714  0.74082377  1
  O  O180  1  0.52208677  0.14339133  0.22254993  1
  O  O181  1  0.48813675  0.13423744  0.73203447  1
  O  O182  1  0.50662525  0.62754494  0.25720607  1
  O  O183  1  0.49420281  0.62722998  0.73860564  1
  O  O184  1  0.99247648  0.14244253  0.25816121  1
  O  O185  1  1.03111795  0.12739793  0.76427637  1
  O  O186  1  0.98866919  0.63772163  0.22921501  1
  O  O187  1  1.00355660  0.65732640  0.79924868  1
  O  O188  1  0.39754253  0.22856517  0.00604180  1
  O  O189  1  0.36275208  0.24990183  0.50942715  1
  O  O190  1  0.41032018  0.80455727  0.00876994  1
  O  O191  1  0.36447826  0.75687184  0.50690529  1
  O  O192  1  0.87221211  0.26284083  0.00859376  1
  O  O193  1  0.88231743  0.26165798  0.52042095  1
  O  O194  1  0.85763524  0.77643912  -0.00655689  1
  O  O195  1  0.86091214  0.75534866  0.49999020  1
  O  O196  1  0.12651136  0.24488683  0.49509295  1
  O  O197  1  0.12146373  0.24369492  0.98822229  1
  O  O198  1  0.14093659  0.74602360  0.49500601  1
  O  O199  1  0.11841197  0.74817655  0.99239865  1
  O  O200  1  0.61929639  0.23273744  0.50710179  1
  O  O201  1  0.63914815  0.25821508  0.98035721  1
  O  O202  1  0.63826538  0.72550980  0.50861464  1
  O  O203  1  0.64171659  0.78139072  0.98739987  1
  O  O204  1  0.45740523  0.22215218  0.05785326  1
  O  O205  1  0.48554971  0.24025988  0.62322905  1
  O  O206  1  0.50828885  0.73792816  0.14982031  1
  O  O207  1  0.48380070  0.74655882  0.62423769  1
  O  O208  1  0.98251185  0.25248031  0.14092960  1
  O  O209  1  1.00187831  0.25137968  0.63047865  1
  O  O210  1  1.00318060  0.74784402  0.11653056  1
  O  O211  1  1.08667618  0.79727297  0.74022277  1
  O  O212  1  -0.00469093  0.25501618  0.36893956  1
  O  O213  1  0.01025720  0.26257838  0.87343066  1
  O  O214  1  -0.00660003  0.75767254  0.37660196  1
  O  O215  1  0.00144061  0.70883735  0.85434633  1
  O  O216  1  0.52847850  0.25769403  0.37063093  1
  O  O217  1  0.50735668  0.25343687  0.85931924  1
  O  O218  1  0.52145692  0.73767797  0.37394118  1
  O  O219  1  0.47315205  0.74926378  0.84242191  1
  O  O220  1  0.23892653  0.14099695  0.49079060  1
  O  O221  1  0.25561015  0.14067444  0.99488312  1
  O  O222  1  0.23423247  0.63941114  0.50743547  1
  O  O223  1  0.23923093  0.62522228  1.00084059  1
  O  O224  1  0.72845177  0.11553095  0.50301162  1
  O  O225  1  0.75210188  0.14303621  0.97863474  1
  O  O226  1  0.74332295  0.60643329  0.50265647  1
  O  O227  1  0.75362159  0.64902152  1.00757891  1
  O  O228  1  0.25529733  0.36948793  0.00624341  1
  O  O229  1  0.23320907  0.36996947  0.51087290  1
  O  O230  1  0.25485849  0.87078521  0.01374329  1
  O  O231  1  0.26147994  0.86199891  0.49033727  1
  O  O232  1  0.76413009  0.36410350  -0.01352711  1
  O  O233  1  0.76174423  0.36889254  0.51911224  1
  O  O234  1  0.75784174  0.87951340  0.02141431  1
  O  O235  1  0.74132185  0.87273057  0.50676870  1
  O  O236  1  0.10629275  0.48744662  0.25446748  1
  O  O237  1  0.13405982  0.49348727  0.74795952  1
  O  O238  1  0.12514788  1.01425419  0.24087251  1
  O  O239  1  0.13718894  0.99963541  0.72782574  1
  O  O240  1  0.61932366  0.49876784  0.22797815  1
  O  O241  1  0.64451382  0.49807668  0.74524401  1
  O  O242  1  0.63143612  0.99106749  0.24996189  1
  O  O243  1  0.60366970  0.98912639  0.74271208  1
  O  O244  1  0.40874502  0.04686055  0.27035738  1
  O  O245  1  0.37795275  0.01901072  0.75156144  1
  O  O246  1  0.36985428  0.51988932  0.26655039  1
  O  O247  1  0.36079870  0.49504150  0.74734030  1
  O  O248  1  0.86149564  0.01386237  0.25854713  1
  O  O249  1  0.88179364  -0.01370943  0.71252048  1
  O  O250  1  0.87652943  0.53382873  0.22632943  1
  O  O251  1  0.87017594  0.49949367  0.76685522  1
  O  O252  1  0.10190159  0.37057882  0.38072786  1
  O  O253  1  0.11955435  0.36976586  0.86992798  1
  O  O254  1  0.15088027  0.88205787  0.34253001  1
  O  O255  1  0.12035584  0.89505346  0.88433072  1
  O  O256  1  0.62093023  0.40109042  0.36208353  1
  O  O257  1  0.60886039  0.36599887  0.86721827  1
  O  O258  1  0.62948478  0.88176890  0.36492961  1
  O  O259  1  0.64169710  0.85562780  0.84030845  1
  O  O260  1  0.35905921  0.12903633  0.14067563  1
  O  O261  1  0.37249274  0.13130462  0.62784252  1
  O  O262  1  0.38579945  0.62568200  0.12976553  1
  O  O263  1  0.35665647  0.64080607  0.61900647  1
  O  O264  1  0.86289885  0.13666832  0.11559482  1
  O  O265  1  0.88372107  0.13942395  0.61432875  1
  O  O266  1  0.90012343  0.63533646  0.08651198  1
  O  O267  1  0.88484232  0.62705543  0.64085578  1
  O  O268  1  0.26277530  0.28771873  0.14575990  1
  O  O269  1  0.24691812  0.25727258  0.61561510  1
  O  O270  1  0.24365944  0.78678609  0.15400088  1
  O  O271  1  0.25721038  0.76432855  0.62115431  1
  O  O272  1  0.74964746  0.24829871  0.10133296  1
  O  O273  1  0.75146367  0.25555863  0.63881803  1
  O  O274  1  0.73997379  0.76451839  0.11652168  1
  O  O275  1  0.76111999  0.74819884  0.61149762  1
  O  O276  1  0.23437495  0.25639434  0.38491384  1
  O  O277  1  0.23759324  0.24138426  0.86725338  1
  O  O278  1  0.26065418  0.73331309  0.38007136  1
  O  O279  1  0.27955848  0.73143206  0.87845709  1
  O  O280  1  0.70603434  0.26765719  0.36946339  1
  O  O281  1  0.74334881  0.24858722  0.87100824  1
  O  O282  1  0.74562396  0.75329197  0.39866412  1
  O  O283  1  0.75041856  0.74852520  0.88475022  1
  O  O284  1  0.01509662  0.13251131  0.00671737  1
  O  O285  1  0.01561676  0.12543436  0.49725283  1
  O  O286  1  0.01663768  0.61597066  -0.00656084  1
  O  O287  1  0.01884175  0.64986162  0.51252822  1
  O  O288  1  0.51276096  0.17023862  0.03097440  1
  O  O289  1  0.49313409  0.11511868  0.50783061  1
  O  O290  1  0.48865612  0.65583739  0.01649436  1
  O  O291  1  0.52336767  0.59955306  0.51078585  1
  O  O292  1  0.51950904  0.38819246  0.50941497  1
  O  O293  1  0.49766927  0.36143706  0.98056287  1
  O  O294  1  0.49429949  0.88140138  0.50264503  1
  O  O295  1  0.46667488  0.85046050  1.01887572  1
  O  O296  1  0.98923258  0.37531887  0.48956676  1
  O  O297  1  0.99109257  0.38185971  0.99481217  1
  O  O298  1  1.03696751  0.88540831  0.47209467  1
  O  O299  1  0.97316195  0.88371717  1.00107194  1
  O  O300  1  0.48072709  0.49389193  0.39677441  1
  O  O301  1  0.48777842  0.47894959  0.86364874  1
  O  O302  1  0.50011078  0.99565207  0.38943649  1
  O  O303  1  0.47920270  1.04860238  0.88525841  1
  O  O304  1  0.98744442  0.48639041  0.37287032  1
  O  O305  1  0.99059634  0.49225029  0.88565943  1
  O  O306  1  0.98616075  1.00728631  0.37992773  1
  O  O307  1  1.06046431  0.93715320  0.86140304  1
  O  O308  1  0.01429125  0.00598604  0.13107761  1
  O  O309  1  0.03347638  -0.01194518  0.60108678  1
  O  O310  1  -0.00474375  0.50761716  0.10694773  1
  O  O311  1  0.01677474  0.50095113  0.63674937  1
  O  O312  1  0.50703741  -0.00588792  0.13855477  1
  O  O313  1  0.48615221  0.01274735  0.61706664  1
  O  O314  1  0.50654395  0.52424929  0.11920004  1
  O  O315  1  0.52722778  0.48892879  0.63907282  1
  O  O316  1  0.21580515  0.37469867  0.26539737  1
  O  O317  1  0.23886973  0.38087936  0.74216678  1
  O  O318  1  0.20333795  0.87300487  0.29183196  1
  O  O319  1  0.26231933  0.88295757  0.73348275  1
  O  O320  1  0.77237271  0.41117737  0.26292805  1
  O  O321  1  0.75991905  0.37962324  0.74206945  1
  O  O322  1  0.73992496  0.86706659  0.24677685  1
  O  O323  1  0.74266797  0.90652676  0.73675537  1
  O  O324  1  0.24618722  0.14195908  0.26947169  1
  O  O325  1  0.25504636  0.12755804  0.74127926  1
  O  O326  1  0.24023222  0.62331632  0.21552956  1
  O  O327  1  0.24756512  0.61464577  0.77454395  1
  O  O328  1  0.72875652  0.12095949  0.24458402  1
  O  O329  1  0.74176139  0.09202262  0.75319183  1
  O  O330  1  0.75944683  0.64075873  0.26139452  1
  O  O331  1  0.75187567  0.61476363  0.75112381  1
  O  O332  1  0.35904188  0.14170402  0.39074649  1
  O  O333  1  0.35895307  0.13632198  0.85713758  1
  O  O334  1  0.36872032  0.59340299  0.41975197  1
  O  O335  1  0.36894794  0.60088134  0.88398645  1
  O  O336  1  0.86476310  0.09390066  0.42116904  1
  O  O337  1  0.85079649  0.10947695  0.86084619  1
  O  O338  1  0.88261799  0.61204180  0.36884993  1
  O  O339  1  0.87543373  0.60675791  0.89126085  1
  O  O340  1  0.10852495  0.36868833  0.14191276  1
  O  O341  1  0.12776973  0.38401406  0.63310920  1
  O  O342  1  0.13230328  0.89522721  0.12185304  1
  O  O343  1  0.14665224  0.88222708  0.61550531  1
  O  O344  1  0.61865824  0.41675223  0.07614199  1
  O  O345  1  0.64699700  0.38128356  0.62393231  1
  O  O346  1  0.63048484  0.88123869  0.14467992  1
  O  O347  1  0.62592969  0.86426341  0.63920569  1
  O  O348  1  0.09898983  0.26408834  0.26309181  1
  O  O349  1  0.12805562  0.26532573  0.75879412  1
  O  O350  1  0.09546243  0.74592056  0.25785175  1
  O  O351  1  0.14119691  0.75815922  0.77041947  1
  O  O352  1  0.62609571  0.27843398  0.23160857  1
  O  O353  1  0.61387033  0.24403396  0.74740553  1
  O  O354  1  0.62261193  0.75820028  0.25694828  1
  O  O355  1  0.60587846  0.74077471  0.74062493  1
  O  O356  1  0.38584470  0.23179160  0.26585514  1
  O  O357  1  0.37641879  0.23877171  0.73594941  1
  O  O358  1  0.39918726  0.74621783  0.26964724  1
  O  O359  1  0.37915520  0.75435265  0.72753845  1
  O  O360  1  0.87425281  0.25593904  0.24301932  1
  O  O361  1  0.88079491  0.24218104  0.73742960  1
  O  O362  1  0.88556787  0.73708285  0.26022955  1
  O  O363  1  0.88621104  0.79022744  0.76552177  1
  O  O364  1  0.40160501  0.48855150  0.54346883  1
  O  O365  1  0.37888677  0.48739803  0.98748493  1
  O  O366  1  0.38238525  0.98437097  0.50025498  1
  O  O367  1  0.37441813  1.01047386  0.99056864  1
  O  O368  1  0.87478743  0.47861129  0.51413568  1
  O  O369  1  0.87760331  0.48664066  0.99102822  1
  O  O370  1  0.91055985  0.97577460  0.52175539  1
  O  O371  1  0.85899428  0.99896521  1.02228323  1
  O  O372  1  0.12691317  0.02057443  0.00458347  1
  O  O373  1  0.12151354  0.01719893  0.48439892  1
  O  O374  1  0.11158526  0.49294539  -0.00255582  1
  O  O375  1  0.12791408  0.52043728  0.51797915  1
  O  O376  1  0.60266875  -0.03388730  0.01688374  1
  O  O377  1  0.60607988  0.00731822  0.50357053  1
  O  O378  1  0.61975510  0.47664482  0.01543045  1
  O  O379  1  0.62669884  0.49684843  0.51787069  1
  O  O380  1  0.38650259  0.39016437  0.10983823  1
  O  O381  1  0.35549092  0.36182249  0.63226087  1
  O  O382  1  0.34954400  0.91215827  0.14636084  1
  O  O383  1  0.36586789  0.87006219  0.61179903  1
  O  O384  1  0.87505213  0.37294050  0.11161935  1
  O  O385  1  0.87021949  0.36405900  0.62424784  1
  O  O386  1  0.86144657  0.87556851  0.13749223  1
  O  O387  1  0.97101736  0.81686849  0.62216101  1
  O  O388  1  0.12903582  0.14043639  0.38361432  1
  O  O389  1  0.14070059  0.12796766  0.89127192  1
  O  O390  1  0.11045491  0.61577819  0.38778252  1
  O  O391  1  0.14690177  0.61932114  0.89092754  1
  O  O392  1  0.61415579  0.11849569  0.38920879  1
  O  O393  1  0.63558486  0.13986427  0.86244523  1
  O  O394  1  0.62905034  0.59919914  0.39368882  1
  O  O395  1  0.58728476  0.63067722  0.88279907  1
