# generated using pymatgen
data_V35Zn35O128
_symmetry_space_group_name_H-M   'P 1'
_cell_length_a   16.97619260
_cell_length_b   16.95268240
_cell_length_c   16.91823109
_cell_angle_alpha   89.82854277
_cell_angle_beta   89.60114083
_cell_angle_gamma   89.82831696
_symmetry_Int_Tables_number   1
_chemical_formula_structural   V35Zn35O128
_chemical_formula_sum   'V70 Zn70 O256'
_cell_volume   4868.77025589
_cell_formula_units_Z   2
loop_
 _symmetry_equiv_pos_site_id
 _symmetry_equiv_pos_as_xyz
  1  'x, y, z'
loop_
 _atom_site_type_symbol
 _atom_site_label
 _atom_site_symmetry_multiplicity
 _atom_site_fract_x
 _atom_site_fract_y
 _atom_site_fract_z
 _atom_site_occupancy
  V  V0  1  0.63238879  0.25257770  0.36460481  1
  V  V1  1  0.01025528  0.37555709  0.36956172  1
  V  V2  1  0.87638867  0.13106917  0.24424974  1
  V  V3  1  0.25018593  0.00820363  0.27818244  1
  V  V4  1  0.27425584  0.38619477  0.12067484  1
  V  V5  1  0.35868229  0.77257731  0.13221232  1
  V  V6  1  0.61969752  0.76171086  0.37122701  1
  V  V7  1  0.39229813  0.61263803  0.26542256  1
  V  V8  1  0.00381863  0.13290919  0.12630328  1
  V  V9  1  0.00383995  0.85176415  0.84586141  1
  V  V10  1  0.13102144  0.27140108  0.87859107  1
  V  V11  1  0.25212555  0.23730334  0.46498649  1
  V  V12  1  0.00748420  0.49821342  0.49909185  1
  V  V13  1  0.74430670  0.88138928  0.62227830  1
  V  V14  1  0.75899027  0.59671641  0.88665821  1
  V  V15  1  0.85427897  0.62351814  0.25163734  1
  V  V16  1  0.34249256  0.85461162  0.51315799  1
  V  V17  1  0.56419159  0.57101037  0.44691687  1
  V  V18  1  0.86194274  0.50297452  0.36895025  1
  V  V19  1  0.01375006  0.73758225  0.25100705  1
  V  V20  1  0.62615133  0.12099454  0.51191785  1
  V  V21  1  0.87310407  0.37305589  0.49931542  1
  V  V22  1  0.88376786  0.88718699  0.00280479  1
  V  V23  1  0.62318999  0.62988718  0.00361623  1
  V  V24  1  0.13609492  0.00619334  0.13365756  1
  V  V25  1  0.49871704  -0.00171637  -0.00215071  1
  V  V26  1  0.13196941  0.64925770  0.49630714  1
  V  V27  1  0.75162008  0.25692836  0.50207715  1
  V  V28  1  0.07387224  0.00247296  0.63758703  1
  V  V29  1  0.12779161  0.87990593  0.25786958  1
  V  V30  1  0.62455824  0.00138399  0.12679222  1
  V  V31  1  0.26505078  0.24483184  0.01293171  1
  V  V32  1  0.00499820  0.25395677  0.24458041  1
  V  V33  1  -0.00639953  0.87125675  0.37429507  1
  V  V34  1  -0.01506694  0.02906040  0.48436488  1
  V  V35  1  0.49594803  0.25505818  0.24481957  1
  V  V36  1  0.86237498  0.74048676  0.61779532  1
  V  V37  1  0.61316943  0.50481305  0.62266339  1
  V  V38  1  0.24400317  0.53949826  0.70184706  1
  V  V39  1  0.49274443  0.12402287  0.11746253  1
  V  V40  1  0.25710948  0.33070792  0.64557007  1
  V  V41  1  0.13787652  0.12093657  -0.00676140  1
  V  V42  1  0.12701620  0.38677665  0.22882895  1
  V  V43  1  0.48429552  -0.03369053  0.48603698  1
  V  V44  1  0.63096249  0.23505486  0.87924846  1
  V  V45  1  0.34315739  0.52119422  0.86601455  1
  V  V46  1  0.00125491  0.00552755  -0.00137283  1
  V  V47  1  0.37924477  0.11792316  0.26972280  1
  V  V48  1  0.36730833  0.00892813  0.87641821  1
  V  V49  1  0.61287971  0.38130516  0.76213410  1
  V  V50  1  0.75900692  0.75065678  -0.00885844  1
  V  V51  1  0.75691143  0.12320051  0.36933359  1
  V  V52  1  0.28096412  -0.00036096  0.71239488  1
  V  V53  1  -0.00112472  0.62401520  0.62200092  1
  V  V54  1  0.75885048  0.48878494  0.72709697  1
  V  V55  1  0.86685173  0.87485979  0.48589238  1
  V  V56  1  0.74343809  0.72675530  0.48708002  1
  V  V57  1  0.74850172  0.87600539  0.12831208  1
  V  V58  1  0.63684039  0.49416633  0.12108865  1
  V  V59  1  0.86900292  0.62417607  0.74837307  1
  V  V60  1  0.49421143  0.48620206  0.00200890  1
  V  V61  1  0.61480268  0.87940168  0.74623106  1
  V  V62  1  0.01293547  0.51397563  -0.00622454  1
  V  V63  1  0.76535176  0.25568680  -0.00213327  1
  V  V64  1  -0.01305321  0.25703973  0.74803717  1
  V  V65  1  0.88087176  0.74606047  0.12752880  1
  V  V66  1  0.75425676  -0.00038286  0.24965140  1
  V  V67  1  0.65017166  0.37323486  0.23712463  1
  V  V68  1  0.49567415  0.86083821  0.87997675  1
  V  V69  1  0.50981012  0.76985921  0.23971056  1
  Zn  Zn70  1  0.86845304  0.24571273  0.63585985  1
  Zn  Zn71  1  0.76145199  0.01707450  0.76472607  1
  Zn  Zn72  1  0.47626388  0.62190824  0.62379051  1
  Zn  Zn73  1  0.12944022  0.39468663  0.74384264  1
  Zn  Zn74  1  0.38125640  0.35442210  0.52102777  1
  Zn  Zn75  1  0.47184447  0.36180894  0.87541417  1
  Zn  Zn76  1  0.19259924  0.19113035  0.19299446  1
  Zn  Zn77  1  0.17217670  0.16311767  0.70280990  1
  Zn  Zn78  1  0.21357883  0.69476222  0.20460656  1
  Zn  Zn79  1  0.30571559  0.68350357  0.60900088  1
  Zn  Zn80  1  0.68676528  0.18368813  0.17436716  1
  Zn  Zn81  1  0.68024106  0.20245282  0.68937841  1
  Zn  Zn82  1  0.68532624  0.68989457  0.18111348  1
  Zn  Zn83  1  0.55818132  0.70897501  0.73708010  1
  Zn  Zn84  1  0.31009471  0.31341203  0.29263845  1
  Zn  Zn85  1  0.30744219  0.32435755  0.83056540  1
  Zn  Zn86  1  0.32486656  0.82849313  0.31492896  1
  Zn  Zn87  1  0.27973263  0.86511500  0.83750537  1
  Zn  Zn88  1  0.82127672  0.31210803  0.30886171  1
  Zn  Zn89  1  0.81661381  0.32479254  0.83183607  1
  Zn  Zn90  1  0.80643630  0.80537298  0.30935114  1
  Zn  Zn91  1  0.80458021  0.85755172  0.82886245  1
  Zn  Zn92  1  0.13713431  0.36325625  0.52038421  1
  Zn  Zn93  1  0.20290312  0.43705488  0.94806051  1
  Zn  Zn94  1  0.16737585  0.93639904  0.45049988  1
  Zn  Zn95  1  0.13909089  1.00413203  0.82783910  1
  Zn  Zn96  1  0.68102981  0.43367848  0.43138652  1
  Zn  Zn97  1  0.69044587  0.42240466  0.95371314  1
  Zn  Zn98  1  0.68229998  0.94060323  0.43348204  1
  Zn  Zn99  1  0.68165235  0.93596839  0.94093503  1
  Zn  Zn100  1  0.31785868  0.05525486  0.06629413  1
  Zn  Zn101  1  0.30842016  0.04939972  0.50268665  1
  Zn  Zn102  1  0.32828421  0.58474024  0.08441454  1
  Zn  Zn103  1  0.30564811  0.54253491  0.52560166  1
  Zn  Zn104  1  0.80887498  0.07937212  0.06715658  1
  Zn  Zn105  1  0.81946622  0.06936392  0.56161225  1
  Zn  Zn106  1  0.82856984  0.54619103  0.07189535  1
  Zn  Zn107  1  0.81210692  0.55402697  0.55717726  1
  Zn  Zn108  1  0.44958175  0.44275582  0.18187262  1
  Zn  Zn109  1  0.42153394  0.45088682  0.69140982  1
  Zn  Zn110  1  0.43236728  0.93951627  0.18966270  1
  Zn  Zn111  1  0.44536755  0.94771206  0.66845500  1
  Zn  Zn112  1  0.94123606  0.44473325  0.18656404  1
  Zn  Zn113  1  0.94302825  0.42773709  0.68635075  1
  Zn  Zn114  1  0.93952917  0.94137553  0.18589724  1
  Zn  Zn115  1  0.91988350  0.92515420  0.68188608  1
  Zn  Zn116  1  0.05416710  0.06433801  0.32210227  1
  Zn  Zn117  1  -0.04539178  0.06321821  0.79034805  1
  Zn  Zn118  1  0.07090481  0.55758095  0.31983264  1
  Zn  Zn119  1  0.07116359  0.57341507  0.79706810  1
  Zn  Zn120  1  0.56778619  0.06121284  0.31412164  1
  Zn  Zn121  1  0.58361768  0.04023471  0.82567564  1
  Zn  Zn122  1  0.56761787  0.56888946  0.28741384  1
  Zn  Zn123  1  0.56768830  0.55925932  0.82056523  1
  Zn  Zn124  1  0.46294579  0.22277215  0.45365609  1
  Zn  Zn125  1  0.42586675  0.20064924  0.89819643  1
  Zn  Zn126  1  0.42043402  0.71205094  0.43634307  1
  Zn  Zn127  1  0.42781660  0.68665879  0.95308768  1
  Zn  Zn128  1  0.94143242  0.19072730  0.43128676  1
  Zn  Zn129  1  0.95443815  0.19485802  0.92903731  1
  Zn  Zn130  1  0.93818244  0.68617368  0.43187289  1
  Zn  Zn131  1  0.93514512  0.69600960  0.92792837  1
  Zn  Zn132  1  0.05863475  0.30793743  0.04679705  1
  Zn  Zn133  1  0.12078443  0.14067242  0.51045117  1
  Zn  Zn134  1  0.06457054  0.82481789  0.07581752  1
  Zn  Zn135  1  0.05553829  0.81829641  0.57241191  1
  Zn  Zn136  1  0.56649274  0.30414671  0.05362731  1
  Zn  Zn137  1  0.55151791  0.32553531  0.58528426  1
  Zn  Zn138  1  0.56835516  0.81492648  0.05692231  1
  Zn  Zn139  1  0.56407848  0.79631195  0.56682203  1
  O  O140  1  0.11991633  0.12199740  0.13041016  1
  O  O141  1  0.12023018  0.09850233  0.61899019  1
  O  O142  1  0.16145519  0.64040059  0.10849622  1
  O  O143  1  0.09834614  0.62355839  0.60691626  1
  O  O144  1  0.60745922  0.10850636  0.13228357  1
  O  O145  1  0.63358018  0.13674836  0.61080804  1
  O  O146  1  0.63492034  0.61195252  0.11208768  1
  O  O147  1  0.62653821  0.60090334  0.62775955  1
  O  O148  1  0.37572922  0.38065611  0.36356644  1
  O  O149  1  0.36748443  0.42175014  0.88558571  1
  O  O150  1  0.37899273  0.82578968  0.41090767  1
  O  O151  1  0.39596046  0.89004892  0.86406016  1
  O  O152  1  0.88218678  0.38984457  0.37050051  1
  O  O153  1  0.89454539  0.38602086  0.87917464  1
  O  O154  1  0.87601133  0.86354815  0.37948366  1
  O  O155  1  0.90323414  0.87085215  0.89331719  1
  O  O156  1  0.23672405  0.00992239  0.37691980  1
  O  O157  1  0.26937712  -0.01932522  0.88071591  1
  O  O158  1  0.34084780  0.44784663  0.38637485  1
  O  O159  1  0.24816169  0.52823083  0.89924291  1
  O  O160  1  0.74543187  0.01179587  0.36092020  1
  O  O161  1  0.75824267  -0.04385722  0.86499171  1
  O  O162  1  0.76376520  0.49682624  0.37358024  1
  O  O163  1  0.76472725  0.49975925  0.90172849  1
  O  O164  1  0.26403145  0.48427332  0.10985832  1
  O  O165  1  0.24019333  0.49364335  0.61367284  1
  O  O166  1  0.23901304  1.00606497  0.13811143  1
  O  O167  1  0.28871170  1.02258723  0.61514209  1
  O  O168  1  0.73552171  0.49867216  0.11539375  1
  O  O169  1  0.74198143  0.49096865  0.62498790  1
  O  O170  1  0.74366019  0.99691943  0.12714614  1
  O  O171  1  0.76166144  0.98022978  0.61284877  1
  O  O172  1  0.00369484  0.37485126  0.24978361  1
  O  O173  1  0.01822433  0.36322297  0.74217239  1
  O  O174  1  0.00387300  0.87363969  0.25928490  1
  O  O175  1  -0.01930779  0.85141796  0.74818483  1
  O  O176  1  0.50353827  0.35449088  0.23943173  1
  O  O177  1  0.51140929  0.39825409  0.76390930  1
  O  O178  1  0.50378196  0.86968319  0.24972359  1
  O  O179  1  0.51125008  0.88440489  0.74648965  1
  O  O180  1  0.49092623  0.12104353  0.24428132  1
  O  O181  1  0.43496739  0.14337155  0.69474522  1
  O  O182  1  0.49157229  0.64357555  0.24505745  1
  O  O183  1  0.50379608  0.61531087  0.74972536  1
  O  O184  1  0.99726345  0.13461115  0.24693482  1
  O  O185  1  0.96878953  0.17299096  0.81585844  1
  O  O186  1  1.01299377  0.63767191  0.25301240  1
  O  O187  1  0.98726666  0.61300732  0.73032573  1
  O  O188  1  0.36203079  0.23337242  -0.00446987  1
  O  O189  1  0.35517977  0.23189702  0.48727940  1
  O  O190  1  0.37175151  0.70308901  0.05186671  1
  O  O191  1  0.34889348  0.74755533  0.52931987  1
  O  O192  1  0.86430158  0.23467646  -0.01800150  1
  O  O193  1  0.86344573  0.25822353  0.48941109  1
  O  O194  1  0.87736762  0.75673086  0.01153861  1
  O  O195  1  0.85972228  0.74688833  0.49458590  1
  O  O196  1  0.14437966  0.25222950  0.49246309  1
  O  O197  1  0.14173878  0.23230215  1.00241235  1
  O  O198  1  0.11727973  0.74825950  0.50327585  1
  O  O199  1  0.14154713  0.77410310  1.00211496  1
  O  O200  1  0.64448731  0.24808113  0.48219854  1
  O  O201  1  0.64453440  0.24729842  0.98854081  1
  O  O202  1  0.63690855  0.74781199  0.48505445  1
  O  O203  1  0.64352927  0.73575703  1.00980384  1
  O  O204  1  0.51069416  0.23147190  0.13371042  1
  O  O205  1  0.51779266  0.24278562  0.66990611  1
  O  O206  1  0.51195243  0.75801795  0.13794798  1
  O  O207  1  0.50903125  0.73103902  0.63639323  1
  O  O208  1  1.00516212  0.24268727  0.12848847  1
  O  O209  1  0.99032947  0.22152875  0.65572641  1
  O  O210  1  0.99088710  0.75780407  0.14098724  1
  O  O211  1  0.97911654  0.73100771  0.60962451  1
  O  O212  1  -0.00939999  0.27069549  0.36098340  1
  O  O213  1  0.03564081  0.27711115  0.92279991  1
  O  O214  1  -0.00492819  0.75654527  0.35741828  1
  O  O215  1  0.01416252  0.75452378  0.87443125  1
  O  O216  1  0.52166540  0.23981069  0.34954795  1
  O  O217  1  0.53054107  0.25359899  0.89665728  1
  O  O218  1  0.51692724  0.75140565  0.36436184  1
  O  O219  1  0.48816646  0.76139144  0.88298445  1
  O  O220  1  0.23681991  0.13178976  0.48192761  1
  O  O221  1  0.24309478  0.12810370  1.01394371  1
  O  O222  1  0.23094941  0.63050533  0.51063595  1
  O  O223  1  0.20872047  0.63255730  1.05019454  1
  O  O224  1  0.75100889  0.13848301  0.48749560  1
  O  O225  1  0.76942900  0.10095058  0.94600654  1
  O  O226  1  0.74921737  0.62866730  0.49677938  1
  O  O227  1  0.76284651  0.63073013  0.99327602  1
  O  O228  1  0.25127579  0.35874955  0.01559595  1
  O  O229  1  0.25921041  0.33827701  0.52414424  1
  O  O230  1  0.19799657  0.82434351  -0.02099871  1
  O  O231  1  0.24432483  0.87949757  0.50793792  1
  O  O232  1  0.75711834  0.35383029  0.01755960  1
  O  O233  1  0.75898578  0.36394302  0.48309731  1
  O  O234  1  0.76356153  0.86940219  0.01203554  1
  O  O235  1  0.75755656  0.86956492  0.49728361  1
  O  O236  1  0.11878256  0.48648966  0.24461104  1
  O  O237  1  0.15259012  0.51126019  0.75025428  1
  O  O238  1  0.13427344  1.00558389  0.25634736  1
  O  O239  1  0.05477568  1.01867246  0.73899655  1
  O  O240  1  0.62383309  0.48356542  0.23431862  1
  O  O241  1  0.63912137  0.49369014  0.74263821  1
  O  O242  1  0.64148093  1.00245195  0.23951755  1
  O  O243  1  0.64556645  0.98535681  0.74896465  1
  O  O244  1  0.36075745  0.00465478  0.25720805  1
  O  O245  1  0.37822471  0.00304180  0.75614578  1
  O  O246  1  0.40123979  0.51280690  0.25677343  1
  O  O247  1  0.33728450  0.51350204  0.75604537  1
  O  O248  1  0.86394413  0.01323838  0.24071207  1
  O  O249  1  0.87436175  -0.00218209  0.75233123  1
  O  O250  1  0.88207932  0.51560135  0.25763989  1
  O  O251  1  0.86511723  0.50361229  0.73114306  1
  O  O252  1  0.10872337  0.37932919  0.35992412  1
  O  O253  1  0.14370736  0.37344754  0.86876370  1
  O  O254  1  0.10838932  0.88127170  0.36699307  1
  O  O255  1  0.09222365  0.90218599  0.85879469  1
  O  O256  1  0.63585210  0.36450175  0.35001369  1
  O  O257  1  0.62926735  0.38301109  0.86625001  1
  O  O258  1  0.63513731  0.85998141  0.36952191  1
  O  O259  1  0.60139354  0.88656585  0.86438598  1
  O  O260  1  0.39027436  0.11343999  0.13708712  1
  O  O261  1  0.45077324  0.20160217  0.65083214  1
  O  O262  1  0.31571613  0.63199902  0.19111786  1
  O  O263  1  0.37058905  0.58628806  0.60856828  1
  O  O264  1  0.89461005  0.12201063  0.13383569  1
  O  O265  1  0.83295733  0.13254764  0.66204436  1
  O  O266  1  0.87226355  0.63288429  0.14038952  1
  O  O267  1  0.87465936  0.62474566  0.62337859  1
  O  O268  1  0.25419802  0.25451288  0.11841705  1
  O  O269  1  0.25611699  0.23064631  0.65860339  1
  O  O270  1  0.25964034  0.78169632  0.14418120  1
  O  O271  1  0.36211505  0.75172351  0.72429080  1
  O  O272  1  0.75369722  0.18765935  0.08275870  1
  O  O273  1  0.75030389  0.25717883  0.60362504  1
  O  O274  1  0.76244608  0.75758839  0.12139015  1
  O  O275  1  0.75405352  0.75641302  0.59823207  1
  O  O276  1  0.24758126  0.25430059  0.36623690  1
  O  O277  1  0.23778526  0.25389708  0.89785175  1
  O  O278  1  0.23593769  0.74733207  0.36315635  1
  O  O279  1  0.24685106  0.79162085  0.92496087  1
  O  O280  1  0.74895416  0.24315012  0.37035994  1
  O  O281  1  0.74394760  0.25543578  0.88592348  1
  O  O282  1  0.74072793  0.74256199  0.37961038  1
  O  O283  1  0.76371775  0.76320487  0.89196932  1
  O  O284  1  0.01608362  0.12613329  0.01172542  1
  O  O285  1  -0.07268308  0.11067726  0.51932303  1
  O  O286  1  0.01885867  0.61975821  -0.01165633  1
  O  O287  1  -0.00175619  0.61040884  0.49982538  1
  O  O288  1  0.49544622  0.11521488  0.01553410  1
  O  O289  1  0.52949452  0.13910018  0.49118250  1
  O  O290  1  0.52500617  0.63002968  -0.00422568  1
  O  O291  1  0.49599784  0.63145804  0.49362157  1
  O  O292  1  0.48900765  0.32759063  0.49748974  1
  O  O293  1  0.49788037  0.38132130  0.99962712  1
  O  O294  1  0.51289557  0.86973242  0.49653152  1
  O  O295  1  0.50438445  0.88051480  0.98645929  1
  O  O296  1  0.99095704  0.38184669  0.48056589  1
  O  O297  1  1.00510627  0.41090079  1.00111509  1
  O  O298  1  0.98006771  0.85923093  0.48681051  1
  O  O299  1  0.99574219  0.89141706  1.01299593  1
  O  O300  1  0.51845703  0.51089441  0.38339762  1
  O  O301  1  0.50978305  0.50139194  0.90039371  1
  O  O302  1  0.52132368  1.00155265  0.39640607  1
  O  O303  1  0.49360957  1.00553052  0.88508101  1
  O  O304  1  0.99185236  0.49251313  0.38020362  1
  O  O305  1  1.02453504  0.51339663  0.88900230  1
  O  O306  1  0.98491664  0.98509806  0.38301082  1
  O  O307  1  0.99018538  1.02111097  0.90094217  1
  O  O308  1  0.01242515  0.01422867  0.12631823  1
  O  O309  1  -0.02421159  -0.00177585  0.60194640  1
  O  O310  1  0.00741244  0.52309946  0.09771139  1
  O  O311  1  -0.01444358  0.50701144  0.60518463  1
  O  O312  1  0.50503025  0.00167369  0.11980860  1
  O  O313  1  0.49274348  0.00659330  0.58056870  1
  O  O314  1  0.51978014  0.49852292  0.11099803  1
  O  O315  1  0.51024523  0.49636952  0.62688066  1
  O  O316  1  0.23538467  0.37158645  0.22792101  1
  O  O317  1  0.24830366  0.36819156  0.74550816  1
  O  O318  1  0.24233081  0.89668729  0.26846423  1
  O  O319  1  0.24672966  0.90562186  0.73447421  1
  O  O320  1  0.74861090  0.36910146  0.23581330  1
  O  O321  1  0.74937403  0.39331777  0.76020672  1
  O  O322  1  0.76313280  0.88448837  0.23699740  1
  O  O323  1  0.76125169  0.86633420  0.72206381  1
  O  O324  1  0.26506254  0.11786001  0.25312831  1
  O  O325  1  0.21329802  0.06675758  0.75633650  1
  O  O326  1  0.22999425  0.68241798  0.32513166  1
  O  O327  1  0.23751542  0.63933645  0.69110833  1
  O  O328  1  0.75884561  0.12194958  0.24890455  1
  O  O329  1  0.76931906  0.12924894  0.71867345  1
  O  O330  1  0.75648710  0.62543289  0.25070021  1
  O  O331  1  0.75677983  0.59289387  0.77190172  1
  O  O332  1  0.38426135  0.11917682  0.36574044  1
  O  O333  1  0.36725644  0.10800759  0.87397200  1
  O  O334  1  0.37150634  0.63532595  0.36180134  1
  O  O335  1  0.38326854  0.61225497  0.88269113  1
  O  O336  1  0.86569940  0.13109898  0.35762071  1
  O  O337  1  0.81586369  0.10383561  0.88763581  1
  O  O338  1  0.87713494  0.61430410  0.36261958  1
  O  O339  1  0.86444096  0.63100688  0.86331455  1
  O  O340  1  0.11735176  0.37502721  0.12844979  1
  O  O341  1  0.15373320  0.35661779  0.63402460  1
  O  O342  1  0.11886362  0.89413655  0.14976006  1
  O  O343  1  0.10472321  0.90484190  0.62891097  1
  O  O344  1  0.62649498  0.37846274  0.12974436  1
  O  O345  1  0.62300166  0.38245555  0.64836890  1
  O  O346  1  0.64156421  0.88297877  0.11897059  1
  O  O347  1  0.63721215  0.87148037  0.63074299  1
  O  O348  1  0.11128334  0.26284167  0.24552539  1
  O  O349  1  0.11123356  0.23789627  0.78021288  1
  O  O350  1  0.11619949  0.76161006  0.24157347  1
  O  O351  1  0.15239048  0.72406500  0.80727579  1
  O  O352  1  0.62810962  0.25913078  0.24258792  1
  O  O353  1  0.63653911  0.27206723  0.76747534  1
  O  O354  1  0.61987733  0.74498085  0.25809654  1
  O  O355  1  0.63695342  0.78082436  0.76230152  1
  O  O356  1  0.39103062  0.23585118  0.25405134  1
  O  O357  1  0.40696583  0.27976661  0.81961989  1
  O  O358  1  0.39120770  0.76153734  0.23969879  1
  O  O359  1  0.32678031  0.74726622  0.78914695  1
  O  O360  1  0.88852435  0.24236142  0.24440437  1
  O  O361  1  0.88434382  0.28571242  0.74645890  1
  O  O362  1  0.88131437  0.73476205  0.24721188  1
  O  O363  1  0.85716428  0.72725385  0.72947113  1
  O  O364  1  0.36401161  0.46429827  0.46498823  1
  O  O365  1  0.39806324  0.52108928  1.01647039  1
  O  O366  1  0.37778406  0.96566711  0.47169483  1
  O  O367  1  0.38679655  0.99940342  0.99074019  1
  O  O368  1  0.87896760  0.49262995  0.48352049  1
  O  O369  1  0.90963403  0.52326080  0.98284319  1
  O  O370  1  0.87589847  0.97702799  0.49041009  1
  O  O371  1  0.88405526  0.99291204  1.01988866  1
  O  O372  1  0.11977136  0.01383649  0.01815459  1
  O  O373  1  0.08664631  0.00012126  0.50669755  1
  O  O374  1  0.11618008  0.50569404  0.00042534  1
  O  O375  1  0.10510023  0.47810060  0.49957006  1
  O  O376  1  0.61236409  -0.00403496  0.01080643  1
  O  O377  1  0.64115436  0.02107540  0.50061426  1
  O  O378  1  0.62136281  0.50368620  0.00858414  1
  O  O379  1  0.62367908  0.49827458  0.50768038  1
  O  O380  1  0.37128138  0.37227058  0.13641482  1
  O  O381  1  0.36016921  0.37135638  0.63613681  1
  O  O382  1  0.38607657  0.86705139  0.11167765  1
  O  O383  1  0.37827367  0.87793277  0.60633727  1
  O  O384  1  0.87613599  0.44073012  0.10031861  1
  O  O385  1  0.88465679  0.36907536  0.60091553  1
  O  O386  1  0.87143018  0.86658437  0.12100998  1
  O  O387  1  0.86673095  0.85740634  0.60293447  1
  O  O388  1  0.03905542  0.11673583  0.42647450  1
  O  O389  1  0.13247613  0.11105824  0.89495175  1
  O  O390  1  0.11663493  0.62014659  0.40052752  1
  O  O391  1  0.14813610  0.65913748  0.84238511  1
  O  O392  1  0.64332042  0.13718172  0.36831930  1
  O  O393  1  0.63276734  0.13680422  0.85570213  1
  O  O394  1  0.62006509  0.62763255  0.37950243  1
  O  O395  1  0.65054449  0.61419919  0.89335060  1
