# generated using pymatgen
data_V35Zn35O128
_symmetry_space_group_name_H-M   'P 1'
_cell_length_a   16.81840360
_cell_length_b   16.85316267
_cell_length_c   16.81869769
_cell_angle_alpha   89.83333234
_cell_angle_beta   89.90620164
_cell_angle_gamma   90.37757422
_symmetry_Int_Tables_number   1
_chemical_formula_structural   V35Zn35O128
_chemical_formula_sum   'V70 Zn70 O256'
_cell_volume   4767.01681820
_cell_formula_units_Z   2
loop_
 _symmetry_equiv_pos_site_id
 _symmetry_equiv_pos_as_xyz
  1  'x, y, z'
loop_
 _atom_site_type_symbol
 _atom_site_label
 _atom_site_symmetry_multiplicity
 _atom_site_fract_x
 _atom_site_fract_y
 _atom_site_fract_z
 _atom_site_occupancy
  V  V0  1  0.40213000  0.25052367  0.13808433  1
  V  V1  1  0.73053631  0.86388287  0.66155465  1
  V  V2  1  0.62377286  0.03574946  0.12793061  1
  V  V3  1  0.74050892  0.37291788  0.61976964  1
  V  V4  1  0.11282991  0.87919514  0.75675526  1
  V  V5  1  0.25104906  0.75735283  0.49589144  1
  V  V6  1  0.87822098  0.47948755  0.87379209  1
  V  V7  1  0.38519143  0.38728140  -0.00013057  1
  V  V8  1  0.86980990  0.75791397  0.61606287  1
  V  V9  1  0.12676091  0.62595403  0.49244568  1
  V  V10  1  0.25281930  0.25902500  0.00830001  1
  V  V11  1  0.47222959  0.86253934  0.36679455  1
  V  V12  1  0.25336432  0.87989096  0.13394520  1
  V  V13  1  0.36441044  0.03549034  0.32292087  1
  V  V14  1  -0.00750737  0.36979808  0.36476959  1
  V  V15  1  0.61549252  0.25665615  0.86797488  1
  V  V16  1  0.50084492  0.61721644  0.10539335  1
  V  V17  1  0.00803772  0.62448722  0.13117009  1
  V  V18  1  0.00126703  0.12432092  0.61459911  1
  V  V19  1  0.12125716  0.00222609  0.60530132  1
  V  V20  1  0.52088215  0.86997382  0.88342851  1
  V  V21  1  0.74538597  0.22019634  0.51134170  1
  V  V22  1  0.73631979  0.49649138  0.74772558  1
  V  V23  1  0.24696917  0.62443811  0.88059256  1
  V  V24  1  0.39797835  0.12850431  0.75191948  1
  V  V25  1  0.00472932  0.25945662  0.74328649  1
  V  V26  1  0.24998220  0.13066874  0.86927570  1
  V  V27  1  0.12689987  0.48205930  0.12405071  1
  V  V28  1  0.87518563  0.62936684  0.76121418  1
  V  V29  1  0.74186069  0.61564981  0.38270426  1
  V  V30  1  0.25262332  0.76341689  0.00006653  1
  V  V31  1  0.37288247  0.63092095  0.74880755  1
  V  V32  1  0.75045181  0.11551809  0.36285345  1
  V  V33  1  0.11276479  0.12733090  -0.00359099  1
  V  V34  1  0.00055050  0.22329003  0.25431854  1
  V  V35  1  0.38684692  0.25507711  0.63271049  1
  V  V36  1  -0.01928386  0.88920483  0.38497225  1
  V  V37  1  -0.00058318  0.48840230  -0.00307466  1
  V  V38  1  0.50913555  0.63556108  0.62209167  1
  V  V39  1  0.87433190  0.12659676  0.75111062  1
  V  V40  1  0.72761545  0.85449199  0.11397053  1
  V  V41  1  0.24804996  0.23986160  0.49075657  1
  V  V42  1  0.24123502  0.49094304  0.25396265  1
  V  V43  1  0.38051419  0.62905504  0.25306978  1
  V  V44  1  -0.00420956  -0.02344243  -0.00307087  1
  V  V45  1  0.37684886  0.49875330  0.37690223  1
  V  V46  1  0.49836702  0.39980025  0.86348984  1
  V  V47  1  0.37446559  0.76069785  0.62323602  1
  V  V48  1  0.11692617  0.76215117  0.36363132  1
  V  V49  1  0.87629872  -0.01111873  0.87544247  1
  V  V50  1  0.61132677  0.00883975  0.63509876  1
  V  V51  1  0.12528420  -0.00479285  0.12649633  1
  V  V52  1  -0.01677664  0.49386663  0.50034838  1
  V  V53  1  0.36162932  0.38338975  0.51204359  1
  V  V54  1  0.87446797  0.74849393  0.11768193  1
  V  V55  1  0.63536492  0.77133675  0.36523751  1
  V  V56  1  0.11324171  0.75146942  0.87411799  1
  V  V57  1  0.76315553  -0.00706894  0.23742504  1
  V  V58  1  0.00242086  0.63699655  0.63117799  1
  V  V59  1  0.12168662  0.26640158  0.86626732  1
  V  V60  1  0.12613253  0.48695789  0.62767941  1
  V  V61  1  0.62387577  0.49193802  0.10195390  1
  V  V62  1  0.75915292  0.27171573  -0.00223671  1
  V  V63  1  0.75016803  0.12829016  0.88581224  1
  V  V64  1  0.51333091  0.50682501  0.50777114  1
  V  V65  1  0.50906344  0.01449177  0.00675860  1
  V  V66  1  0.37426875  -0.00568515  0.88708979  1
  V  V67  1  0.87900655  0.24828345  0.12979061  1
  V  V68  1  0.24857032  0.49348146  0.74756974  1
  V  V69  1  0.86434156  0.61191912  0.25488816  1
  Zn  Zn70  1  0.25162368  0.88268183  0.62479491  1
  Zn  Zn71  1  0.90580643  0.31033908  0.56685631  1
  Zn  Zn72  1  0.74325539  0.38102159  0.15916258  1
  Zn  Zn73  1  0.25011340  0.00254918  0.74898386  1
  Zn  Zn74  1  0.39036901  0.75834563  0.12583569  1
  Zn  Zn75  1  0.61650075  0.33311138  0.31465945  1
  Zn  Zn76  1  0.17453862  0.19166652  0.17950411  1
  Zn  Zn77  1  0.19048997  0.19457077  0.67730367  1
  Zn  Zn78  1  0.19557396  0.67863596  0.18879104  1
  Zn  Zn79  1  0.18676529  0.69160442  0.68967470  1
  Zn  Zn80  1  0.69476263  0.20808945  0.19976333  1
  Zn  Zn81  1  0.68028856  0.18888054  0.68603010  1
  Zn  Zn82  1  0.67919011  0.67957982  0.19313984  1
  Zn  Zn83  1  0.68333781  0.70113613  0.54930419  1
  Zn  Zn84  1  0.32026076  0.31579924  0.30994813  1
  Zn  Zn85  1  0.31843001  0.31421503  0.81573694  1
  Zn  Zn86  1  0.29594915  0.80263462  0.30465945  1
  Zn  Zn87  1  0.30356404  0.81590658  0.80777038  1
  Zn  Zn88  1  0.81245337  0.30073476  0.32097528  1
  Zn  Zn89  1  0.81270605  0.31277832  0.79529475  1
  Zn  Zn90  1  0.81319635  0.80125804  0.29939269  1
  Zn  Zn91  1  0.81587676  0.79908713  0.82083415  1
  Zn  Zn92  1  0.18359766  0.43606007  0.42977058  1
  Zn  Zn93  1  0.19023314  0.44169411  0.94003092  1
  Zn  Zn94  1  0.20080083  0.93992245  0.42421782  1
  Zn  Zn95  1  0.18599094  0.94026587  0.93601384  1
  Zn  Zn96  1  0.69626617  0.43820444  0.44435926  1
  Zn  Zn97  1  0.68570808  0.44028695  0.92444268  1
  Zn  Zn98  1  0.68173994  0.96400613  0.43272073  1
  Zn  Zn99  1  0.69535503  0.94374628  0.94818092  1
  Zn  Zn100  1  0.31366706  0.07245347  0.07235451  1
  Zn  Zn101  1  0.30444489  0.08058904  0.57468079  1
  Zn  Zn102  1  0.30951279  0.56245086  0.06780507  1
  Zn  Zn103  1  0.30809892  0.57085939  0.56578245  1
  Zn  Zn104  1  0.81728454  0.06157210  0.06479267  1
  Zn  Zn105  1  0.80309840  0.04896824  0.58750993  1
  Zn  Zn106  1  0.81961527  0.54295398  0.07260847  1
  Zn  Zn107  1  0.80692215  0.56631880  0.57111665  1
  Zn  Zn108  1  0.44504633  0.43268954  0.18771938  1
  Zn  Zn109  1  0.43843254  0.44597425  0.68426332  1
  Zn  Zn110  1  0.44054417  0.93933061  0.18697625  1
  Zn  Zn111  1  0.44550242  0.93098774  0.70505836  1
  Zn  Zn112  1  0.93304504  0.43129785  0.18775427  1
  Zn  Zn113  1  0.93615371  0.44086055  0.68547006  1
  Zn  Zn114  1  0.94162372  0.92557465  0.18549892  1
  Zn  Zn115  1  0.93786251  0.94012137  0.68789334  1
  Zn  Zn116  1  0.03099683  0.01968853  0.29501325  1
  Zn  Zn117  1  0.05799372  0.06461442  0.81112310  1
  Zn  Zn118  1  0.05531913  0.55836515  0.31300271  1
  Zn  Zn119  1  0.06401838  0.56126011  0.81264423  1
  Zn  Zn120  1  0.56849793  0.01889477  0.32417064  1
  Zn  Zn121  1  0.57341590  0.05318727  0.81459815  1
  Zn  Zn122  1  0.56074435  0.56611811  0.31411654  1
  Zn  Zn123  1  0.56114683  0.58159928  0.81101098  1
  Zn  Zn124  1  0.39723854  0.18455786  0.42809500  1
  Zn  Zn125  1  0.43515506  0.19259828  0.94227032  1
  Zn  Zn126  1  0.44129822  0.69135198  0.43490060  1
  Zn  Zn127  1  0.43380254  0.68910004  0.93743342  1
  Zn  Zn128  1  0.92427437  0.17701341  0.42767332  1
  Zn  Zn129  1  0.93297052  0.19842124  0.93303340  1
  Zn  Zn130  1  0.93667456  0.69104350  0.43300772  1
  Zn  Zn131  1  0.94171885  0.67513344  0.94913230  1
  Zn  Zn132  1  0.05857556  0.30843740  0.06418956  1
  Zn  Zn133  1  0.08478564  0.32321667  0.52095519  1
  Zn  Zn134  1  0.06824710  0.80454574  0.06325524  1
  Zn  Zn135  1  0.06343480  0.81895952  0.55973542  1
  Zn  Zn136  1  0.56928458  0.30969160  0.04758900  1
  Zn  Zn137  1  0.57242247  0.32531833  0.52364631  1
  Zn  Zn138  1  0.54127803  0.80804682  0.04247106  1
  Zn  Zn139  1  0.58062894  0.85732274  0.53233972  1
  O  O140  1  0.13702317  0.11204214  0.10182227  1
  O  O141  1  0.11366320  0.11293368  0.62877513  1
  O  O142  1  0.11203656  0.61520942  0.13470240  1
  O  O143  1  0.11270913  0.62631402  0.62008383  1
  O  O144  1  0.62928956  0.13402851  0.13148656  1
  O  O145  1  0.62572041  0.10932784  0.62794622  1
  O  O146  1  0.61072928  0.60901952  0.13037726  1
  O  O147  1  0.60751844  0.64770750  0.62710248  1
  O  O148  1  0.37708586  0.39322615  0.39087411  1
  O  O149  1  0.38946348  0.37108602  0.88553402  1
  O  O150  1  0.37144337  0.85332116  0.37102399  1
  O  O151  1  0.36353902  0.89493416  0.87703941  1
  O  O152  1  0.88976025  0.36850053  0.37555233  1
  O  O153  1  0.88355972  0.38150896  0.86559835  1
  O  O154  1  0.88372616  0.86187728  0.36596330  1
  O  O155  1  0.86724723  0.88975261  0.87164583  1
  O  O156  1  0.28446537  -0.00164173  0.37857574  1
  O  O157  1  0.26086692  0.01435392  0.88111732  1
  O  O158  1  0.25624627  0.50032396  0.36433550  1
  O  O159  1  0.23766009  0.51608983  0.86192351  1
  O  O160  1  0.76160690  -0.01452932  0.33925401  1
  O  O161  1  0.76673883  0.01559791  0.88627229  1
  O  O162  1  0.74920684  0.51502874  0.38020093  1
  O  O163  1  0.76915612  0.49515601  0.86210706  1
  O  O164  1  0.23272430  0.49979975  0.13017860  1
  O  O165  1  0.23574120  0.50761124  0.63514227  1
  O  O166  1  0.23892582  0.98762513  0.10568587  1
  O  O167  1  0.23594777  1.00622211  0.62628359  1
  O  O168  1  0.73077332  0.49724002  0.12916721  1
  O  O169  1  0.75223382  0.49074423  0.63871452  1
  O  O170  1  0.72974560  1.00278902  0.11944351  1
  O  O171  1  0.74553528  0.96631255  0.63891401  1
  O  O172  1  0.00641795  0.38301615  0.26573286  1
  O  O173  1  0.00191205  0.35812565  0.73877930  1
  O  O174  1  0.00850340  0.90405866  0.27234441  1
  O  O175  1  0.01298297  0.87577917  0.74920412  1
  O  O176  1  0.54013157  0.41255833  0.25995850  1
  O  O177  1  0.48871990  0.38358450  0.76381070  1
  O  O178  1  0.50152697  0.88926559  0.26820220  1
  O  O179  1  0.48904407  0.86383816  0.78673520  1
  O  O180  1  0.52830862  0.18615558  0.32338562  1
  O  O181  1  0.49559555  0.12730415  0.76159998  1
  O  O182  1  0.48451012  0.61931643  0.24430800  1
  O  O183  1  0.48245547  0.62794390  0.73893866  1
  O  O184  1  0.99882307  0.12378386  0.25917851  1
  O  O185  1  0.99497618  0.13309162  0.74295518  1
  O  O186  1  0.98791162  0.61492101  0.23904519  1
  O  O187  1  0.99467648  0.62011243  0.73688129  1
  O  O188  1  0.36333650  0.25692870  0.00804761  1
  O  O189  1  0.37517776  0.27333403  0.50518757  1
  O  O190  1  0.35492302  0.74172764  0.00816094  1
  O  O191  1  0.35824215  0.74124591  0.50849704  1
  O  O192  1  0.86954375  0.25697685  0.00773563  1
  O  O193  1  0.85486508  0.24242714  0.49484805  1
  O  O194  1  0.87023262  0.73113823  0.01645357  1
  O  O195  1  0.88060501  0.74759986  0.51735182  1
  O  O196  1  0.14834799  0.23176220  0.51016949  1
  O  O197  1  0.12967350  0.24571113  0.98864188  1
  O  O198  1  0.12884710  0.74051482  0.49659672  1
  O  O199  1  0.13733118  0.75174514  0.98377155  1
  O  O200  1  0.64558309  0.23858337  0.50539489  1
  O  O201  1  0.64668956  0.25453264  0.97883417  1
  O  O202  1  0.62058690  0.76181650  0.47931687  1
  O  O203  1  0.70208516  0.65966371  1.01236406  1
  O  O204  1  0.49919700  0.24280871  0.11210306  1
  O  O205  1  0.48336621  0.25705070  0.61186063  1
  O  O206  1  0.50154265  0.72810536  0.11367329  1
  O  O207  1  0.47837881  0.74333974  0.61537616  1
  O  O208  1  0.98721907  0.25058134  0.13394340  1
  O  O209  1  1.00265090  0.23737775  0.63349765  1
  O  O210  1  0.99516619  0.73153280  0.11865156  1
  O  O211  1  0.99577004  0.74086650  0.62429427  1
  O  O212  1  -0.00901746  0.25150290  0.36127893  1
  O  O213  1  0.01474204  0.24792299  0.86299296  1
  O  O214  1  0.01321702  0.75449209  0.37233897  1
  O  O215  1  0.01480971  0.74065532  0.88301194  1
  O  O216  1  0.50545899  0.22899507  0.38673956  1
  O  O217  1  0.51471245  0.24612717  0.87691562  1
  O  O218  1  0.50849604  0.76034730  0.37200360  1
  O  O219  1  0.51349679  0.77126136  0.92433664  1
  O  O220  1  0.28862806  0.14187162  0.48178960  1
  O  O221  1  0.24611344  0.14267367  0.98793681  1
  O  O222  1  0.23185087  0.63433429  0.50566410  1
  O  O223  1  0.25163696  0.62490777  0.98392660  1
  O  O224  1  0.74931420  0.11801305  0.51555169  1
  O  O225  1  0.75886753  0.13563725  0.98742586  1
  O  O226  1  0.75267092  0.62840002  0.49111267  1
  O  O227  1  0.75253958  0.61486677  0.98337246  1
  O  O228  1  0.26215560  0.36396539  -0.01312477  1
  O  O229  1  0.25789948  0.37445216  0.50385388  1
  O  O230  1  0.25175218  0.86580587  -0.00145259  1
  O  O231  1  0.24266370  0.86051774  0.50532787  1
  O  O232  1  0.75654940  0.37108801  -0.01287965  1
  O  O233  1  0.76302513  0.38005298  0.51904170  1
  O  O234  1  0.75806810  0.88057264  0.02020377  1
  O  O235  1  0.79897330  0.91341777  0.48549983  1
  O  O236  1  0.13459808  0.50105024  0.24641233  1
  O  O237  1  0.13178787  0.50224781  0.73761650  1
  O  O238  1  0.12563269  1.01136880  0.22414258  1
  O  O239  1  0.12576180  0.98963321  0.75488178  1
  O  O240  1  0.59789438  0.47444736  0.25026436  1
  O  O241  1  0.63944848  0.51543190  0.75915307  1
  O  O242  1  0.63165173  1.00404881  0.22831189  1
  O  O243  1  0.62675922  0.99190893  0.73807194  1
  O  O244  1  0.35915226  0.01202433  0.22352743  1
  O  O245  1  0.37595018  0.01642293  0.76537572  1
  O  O246  1  0.37476481  0.49878142  0.26529579  1
  O  O247  1  0.35799037  0.51845477  0.73842598  1
  O  O248  1  0.85980271  0.00600841  0.21007403  1
  O  O249  1  0.88670745  0.01196037  0.76743677  1
  O  O250  1  0.87120166  0.51104355  0.24625043  1
  O  O251  1  0.88874524  0.50750053  0.76641802  1
  O  O252  1  0.09614593  0.36584539  0.40874731  1
  O  O253  1  0.12781078  0.36475989  0.87549129  1
  O  O254  1  0.12390924  0.86526932  0.37637186  1
  O  O255  1  0.12724522  0.86596565  0.86706270  1
  O  O256  1  0.61232457  0.36956141  0.41885094  1
  O  O257  1  0.60727404  0.36923459  0.87526580  1
  O  O258  1  0.63688728  0.87469674  0.36786517  1
  O  O259  1  0.62002141  0.88873153  0.88253948  1
  O  O260  1  0.35918276  0.15663023  0.13331510  1
  O  O261  1  0.38146655  0.13450939  0.64502310  1
  O  O262  1  0.38864198  0.61451969  0.13254096  1
  O  O263  1  0.37277286  0.63769450  0.63432989  1
  O  O264  1  0.86155427  0.14863358  0.12296134  1
  O  O265  1  0.88744000  0.10909005  0.64156744  1
  O  O266  1  0.88035978  0.62170836  0.13350798  1
  O  O267  1  0.88694510  0.63380055  0.63155688  1
  O  O268  1  0.23641978  0.25769651  0.10778023  1
  O  O269  1  0.27092213  0.23960944  0.60808023  1
  O  O270  1  0.23597237  0.76210187  0.11136781  1
  O  O271  1  0.25462001  0.75209625  0.61462059  1
  O  O272  1  0.75090504  0.25739355  0.10424529  1
  O  O273  1  0.75131770  0.25523947  0.61874913  1
  O  O274  1  0.75456012  0.75132552  0.12613810  1
  O  O275  1  0.76059577  0.75909642  0.62046785  1
  O  O276  1  0.25776235  0.26701667  0.39131914  1
  O  O277  1  0.23857896  0.24813919  0.87705050  1
  O  O278  1  0.23587509  0.74900028  0.39079764  1
  O  O279  1  0.24703823  0.74371930  0.88423090  1
  O  O280  1  0.74562929  0.21908884  0.38711374  1
  O  O281  1  0.75937097  0.24341425  0.87999546  1
  O  O282  1  0.74043105  0.74449386  0.37150519  1
  O  O283  1  0.72870684  0.74061404  0.88250218  1
  O  O284  1  0.01286068  0.13461694  -0.00367362  1
  O  O285  1  -0.01035808  0.13369132  0.51658401  1
  O  O286  1  -0.00204121  0.60445370  0.02112884  1
  O  O287  1  0.00626829  0.61617443  0.51052615  1
  O  O288  1  0.49928979  0.11396968  -0.00675733  1
  O  O289  1  0.47155475  0.09831922  0.49827396  1
  O  O290  1  0.49178659  0.61455350  0.00537479  1
  O  O291  1  0.49077677  0.62107187  0.51368558  1
  O  O292  1  0.48176499  0.40335088  0.51681904  1
  O  O293  1  0.49090693  0.37641306  0.98671703  1
  O  O294  1  0.49845092  0.89391744  0.46192417  1
  O  O295  1  0.49491176  0.90270486  0.99274803  1
  O  O296  1  0.98529913  0.38567283  0.51684845  1
  O  O297  1  0.99881826  0.38801081  1.00573396  1
  O  O298  1  0.99541888  0.86545263  0.48546145  1
  O  O299  1  1.00278382  0.87829158  0.99473033  1
  O  O300  1  0.48426603  0.51526383  0.39643818  1
  O  O301  1  0.50439894  0.49969951  0.87116267  1
  O  O302  1  0.46083619  1.00658910  0.35704066  1
  O  O303  1  0.49144048  0.99643419  0.88346750  1
  O  O304  1  1.00170268  0.48947773  0.39435542  1
  O  O305  1  0.99851173  0.50367503  0.88892437  1
  O  O306  1  0.99006178  0.99230657  0.39727401  1
  O  O307  1  0.98964415  1.00337707  0.88774840  1
  O  O308  1  0.01343220  -0.00788520  0.10665749  1
  O  O309  1  0.01023204  0.00915169  0.62380764  1
  O  O310  1  0.00873747  0.49992206  0.12167853  1
  O  O311  1  0.01030101  0.50858344  0.61881148  1
  O  O312  1  0.51187230  0.00604224  0.11701043  1
  O  O313  1  0.50858516  -0.00796894  0.63490825  1
  O  O314  1  0.51009572  0.50483881  0.11960431  1
  O  O315  1  0.49564483  0.52295759  0.61983632  1
  O  O316  1  0.25739585  0.39212450  0.24704535  1
  O  O317  1  0.25830836  0.39515652  0.75764081  1
  O  O318  1  0.24127118  0.87409168  0.23251323  1
  O  O319  1  0.23798004  0.88378889  0.74362768  1
  O  O320  1  0.71648610  0.31417890  0.25402739  1
  O  O321  1  0.74175846  0.38869844  0.74722663  1
  O  O322  1  0.75516640  0.88405339  0.21952930  1
  O  O323  1  0.73784793  0.85738923  0.76077426  1
  O  O324  1  0.21558667  0.13121633  0.28232734  1
  O  O325  1  0.24925765  0.12706681  0.76124807  1
  O  O326  1  0.26972183  0.60276792  0.23716346  1
  O  O327  1  0.25535452  0.62181248  0.75650880  1
  O  O328  1  0.74623126  0.11650482  0.25720699  1
  O  O329  1  0.77030174  0.13331221  0.75568787  1
  O  O330  1  0.75646086  0.62175228  0.26097688  1
  O  O331  1  0.77537308  0.60308752  0.74383568  1
  O  O332  1  0.36784931  0.13763349  0.32936423  1
  O  O333  1  0.36868872  0.12954912  0.86554144  1
  O  O334  1  0.37511398  0.61881183  0.36267327  1
  O  O335  1  0.36312880  0.63612186  0.85941448  1
  O  O336  1  0.84906786  0.09980700  0.38704698  1
  O  O337  1  0.87191428  0.12069448  0.86791989  1
  O  O338  1  0.86592104  0.63230422  0.36267049  1
  O  O339  1  0.88259487  0.62400646  0.86384711  1
  O  O340  1  0.12042396  0.38315095  0.12946619  1
  O  O341  1  0.12353506  0.38913669  0.61573321  1
  O  O342  1  0.13356341  0.88687672  0.11404199  1
  O  O343  1  0.12190767  0.89054526  0.63310867  1
  O  O344  1  0.62346736  0.38673015  0.11489265  1
  O  O345  1  0.63935000  0.36941398  0.61727901  1
  O  O346  1  0.62729702  0.85246235  0.10804820  1
  O  O347  1  0.63222483  0.84721912  0.64016527  1
  O  O348  1  0.09920965  0.24801998  0.24005969  1
  O  O349  1  0.11994129  0.24774706  0.75704460  1
  O  O350  1  0.13917059  0.74077464  0.26742129  1
  O  O351  1  0.13017014  0.76435867  0.76128478  1
  O  O352  1  0.57508722  0.22843539  0.27168699  1
  O  O353  1  0.63735848  0.25229180  0.76920969  1
  O  O354  1  0.62342334  0.74900056  0.26509703  1
  O  O355  1  0.67936833  0.70195310  0.83363956  1
  O  O356  1  0.39924030  0.28065138  0.23695217  1
  O  O357  1  0.37626081  0.24366527  0.74280960  1
  O  O358  1  0.36137371  0.73134743  0.23967361  1
  O  O359  1  0.36204676  0.74168929  0.73625449  1
  O  O360  1  0.88588561  0.24730044  0.24172580  1
  O  O361  1  0.89343250  0.23659961  0.75787118  1
  O  O362  1  0.87191866  0.72894967  0.22973717  1
  O  O363  1  0.87330726  0.73415745  0.74434553  1
  O  O364  1  0.36198210  0.49831566  0.49448152  1
  O  O365  1  0.36534875  0.48479358  1.00272729  1
  O  O366  1  0.43076615  1.03974483  0.51970970  1
  O  O367  1  0.38051282  1.01449744  0.99094793  1
  O  O368  1  0.88646325  0.50825510  0.50799768  1
  O  O369  1  0.88462077  0.49895376  0.98570343  1
  O  O370  1  0.85147290  0.96365330  0.50406939  1
  O  O371  1  0.88973061  1.00207945  0.99470633  1
  O  O372  1  0.11066606  0.01119831  -0.00757618  1
  O  O373  1  0.13158489  -0.00311654  0.50718196  1
  O  O374  1  0.11702187  0.49524926  0.01330115  1
  O  O375  1  0.12313633  0.51250001  0.51177853  1
  O  O376  1  0.61761060  0.01061548  0.01170744  1
  O  O377  1  0.63269337  -0.03352619  0.53465884  1
  O  O378  1  0.62875818  0.50268833  0.00202143  1
  O  O379  1  0.61129093  0.50779106  0.50490203  1
  O  O380  1  0.38648539  0.36490622  0.10887165  1
  O  O381  1  0.37015502  0.37020779  0.62218758  1
  O  O382  1  0.35970532  0.87242684  0.12635842  1
  O  O383  1  0.37416623  0.86395615  0.63382881  1
  O  O384  1  0.85842027  0.36136426  0.13822112  1
  O  O385  1  0.85766558  0.36791715  0.64934747  1
  O  O386  1  0.88346922  0.85013130  0.12315234  1
  O  O387  1  0.86965244  0.85971640  0.64103347  1
  O  O388  1  0.16891347  0.12586447  0.33976234  1
  O  O389  1  0.13128762  0.13120909  0.88333336  1
  O  O390  1  0.11365994  0.62935875  0.38984565  1
  O  O391  1  0.13804422  0.64021047  0.86241250  1
  O  O392  1  0.65161656  0.07246590  0.38986014  1
  O  O393  1  0.64564387  0.13117260  0.86880361  1
  O  O394  1  0.63760057  0.62915393  0.37261482  1
  O  O395  1  0.62146413  0.66238169  0.87333300  1
