# generated using pymatgen
data_V35Zn35O128
_symmetry_space_group_name_H-M   'P 1'
_cell_length_a   17.04328067
_cell_length_b   17.06955051
_cell_length_c   16.91773738
_cell_angle_alpha   90.78005193
_cell_angle_beta   89.96826751
_cell_angle_gamma   89.87496557
_symmetry_Int_Tables_number   1
_chemical_formula_structural   V35Zn35O128
_chemical_formula_sum   'V70 Zn70 O256'
_cell_volume   4921.25876886
_cell_formula_units_Z   2
loop_
 _symmetry_equiv_pos_site_id
 _symmetry_equiv_pos_as_xyz
  1  'x, y, z'
loop_
 _atom_site_type_symbol
 _atom_site_label
 _atom_site_symmetry_multiplicity
 _atom_site_fract_x
 _atom_site_fract_y
 _atom_site_fract_z
 _atom_site_occupancy
  V  V0  1  0.36848679  0.76629131  0.64559971  1
  V  V1  1  0.86168462  0.88057518  0.01787995  1
  V  V2  1  0.00563792  -0.01913586  0.49819243  1
  V  V3  1  0.38185475  0.87503102  0.49241068  1
  V  V4  1  0.57176765  0.69112190  -0.06137752  1
  V  V5  1  0.25383703  0.13586443  0.88462455  1
  V  V6  1  0.37732433  0.36376762  -0.01353883  1
  V  V7  1  0.11267307  -0.00051645  0.13454521  1
  V  V8  1  0.24297546  0.38692776  0.63939282  1
  V  V9  1  0.42154372  0.66364597  0.29397815  1
  V  V10  1  0.07240870  0.20693328  0.84844014  1
  V  V11  1  0.11487172  0.12386887  0.50386814  1
  V  V12  1  0.62076468  0.87988868  0.25379364  1
  V  V13  1  0.37805308  -0.00449396  0.87531847  1
  V  V14  1  0.76293596  0.86326904  0.61398017  1
  V  V15  1  0.24976862  0.60120511  0.37126991  1
  V  V16  1  0.75632923  0.11646271  0.37441781  1
  V  V17  1  0.50190517  0.64223327  0.62509229  1
  V  V18  1  0.88058740  0.11153900  0.24012800  1
  V  V19  1  0.73506732  0.38003387  0.13153865  1
  V  V20  1  0.00205490  0.24373861  0.24347350  1
  V  V21  1  0.12230360  0.00466930  0.63349179  1
  V  V22  1  0.11838177  0.85026483  0.73287751  1
  V  V23  1  0.37340826  0.72509697  0.11579932  1
  V  V24  1  0.25848948  0.48582307  0.23307427  1
  V  V25  1  0.87017900  -0.00064746  0.88063860  1
  V  V26  1  -0.02283263  0.37282445  0.87086155  1
  V  V27  1  0.51118698  0.49374254  -0.01905852  1
  V  V28  1  0.11750408  0.39478865  0.75675389  1
  V  V29  1  0.24307400  0.24694218  0.51474757  1
  V  V30  1  0.13509938  0.75805723  0.35975209  1
  V  V31  1  0.61787313  0.86086718  0.75262203  1
  V  V32  1  0.52381496  0.61967589  0.12144069  1
  V  V33  1  0.75810823  0.00090797  0.74503751  1
  V  V34  1  0.37718375  0.24240860  0.63533699  1
  V  V35  1  0.49587935  0.01553612  0.50764015  1
  V  V36  1  0.63463497  0.50225393  0.61688484  1
  V  V37  1  0.74350709  0.25025022  0.00480034  1
  V  V38  1  0.88921599  -0.00880886  0.37622439  1
  V  V39  1  0.75566369  0.64554971  0.87779210  1
  V  V40  1  -0.02584762  0.65307426  0.61500848  1
  V  V41  1  0.13460718  0.61750607  0.51006885  1
  V  V42  1  0.37631518  0.37974377  0.50107969  1
  V  V43  1  0.87065938  0.50504012  0.36191496  1
  V  V44  1  0.00297953  0.37616126  0.37476388  1
  V  V45  1  0.74047284  0.34020377  0.66816028  1
  V  V46  1  0.37316591  0.59277745  0.75128580  1
  V  V47  1  0.75361841  0.75354340  0.02101208  1
  V  V48  1  0.51228899  0.01991367  0.00164387  1
  V  V49  1  -0.03004574  0.71833765  0.20327872  1
  V  V50  1  0.61861591  0.00811836  0.62607564  1
  V  V51  1  0.37929405  0.12162636  0.74692426  1
  V  V52  1  0.88092543  0.24230151  0.62891676  1
  V  V53  1  0.26771670  0.12546839  0.37532348  1
  V  V54  1  0.00280702  0.87136376  0.89892060  1
  V  V55  1  0.12371331  0.24900972  0.37863976  1
  V  V56  1  0.38703073  0.87873713  0.00130873  1
  V  V57  1  0.10769975  0.13839924  0.00691977  1
  V  V58  1  0.01014457  0.50895625  0.00237482  1
  V  V59  1  0.12205125  0.37523579  0.22625513  1
  V  V60  1  0.62387014  0.62971722  0.48280234  1
  V  V61  1  0.76696945  0.52605285  0.73250693  1
  V  V62  1  0.86717657  0.51324875  0.88490604  1
  V  V63  1  0.00392472  0.49405081  0.51261289  1
  V  V64  1  0.87278309  0.37418683  0.49791317  1
  V  V65  1  0.87871767  0.26245688  0.12157021  1
  V  V66  1  0.74514960  0.24682183  0.48851967  1
  V  V67  1  0.73706571  0.12509104  0.87982189  1
  V  V68  1  0.27678427  0.90862199  0.14501208  1
  V  V69  1  0.62479199  0.25918450  0.36302716  1
  Zn  Zn70  1  0.21703050  0.77317232  0.00543076  1
  Zn  Zn71  1  0.38247398  -0.00136817  0.36346382  1
  Zn  Zn72  1  0.24734670  -0.00788267  0.75139429  1
  Zn  Zn73  1  0.58263753  0.30674468  0.78916566  1
  Zn  Zn74  1  0.50579351  0.20880312  0.25853029  1
  Zn  Zn75  1  0.25524663  0.75957617  0.49736313  1
  Zn  Zn76  1  0.18214135  0.16519699  0.20024404  1
  Zn  Zn77  1  0.18787896  0.17590531  0.69697191  1
  Zn  Zn78  1  0.21763803  0.68385847  0.19261554  1
  Zn  Zn79  1  0.20681085  0.68002655  0.68944045  1
  Zn  Zn80  1  0.69628538  0.17478572  0.18598840  1
  Zn  Zn81  1  0.70480618  0.17436355  0.68222433  1
  Zn  Zn82  1  0.77368732  0.73852264  0.23554086  1
  Zn  Zn83  1  0.69534656  0.68921928  0.67943814  1
  Zn  Zn84  1  0.29837366  0.32111615  0.32329530  1
  Zn  Zn85  1  0.30866168  0.31523371  0.81477172  1
  Zn  Zn86  1  0.31005065  0.80804062  0.32075148  1
  Zn  Zn87  1  0.28501029  0.81533902  0.82736722  1
  Zn  Zn88  1  0.81524680  0.31200571  0.30603731  1
  Zn  Zn89  1  0.77280362  0.33036588  0.83627661  1
  Zn  Zn90  1  0.80412700  0.81726722  0.42552418  1
  Zn  Zn91  1  0.80975453  0.82188676  0.81198863  1
  Zn  Zn92  1  0.18920634  0.43280539  0.44589321  1
  Zn  Zn93  1  0.17526054  0.40873789  0.94850811  1
  Zn  Zn94  1  0.20216996  0.94207300  0.44001385  1
  Zn  Zn95  1  0.19538405  0.95136699  0.95913313  1
  Zn  Zn96  1  0.69057960  0.43775333  0.43427402  1
  Zn  Zn97  1  0.67065068  0.45675477  0.91279991  1
  Zn  Zn98  1  0.69021824  0.95275674  0.44800811  1
  Zn  Zn99  1  0.68393881  0.92977654  0.93382332  1
  Zn  Zn100  1  0.32439109  0.06979788  0.05522528  1
  Zn  Zn101  1  0.30348054  0.05557891  0.56305135  1
  Zn  Zn102  1  0.33330130  0.50208842  0.06169476  1
  Zn  Zn103  1  0.32096522  0.56570054  0.56954133  1
  Zn  Zn104  1  0.78783265  0.05756632  0.06750944  1
  Zn  Zn105  1  0.82470426  0.05875151  0.56329389  1
  Zn  Zn106  1  0.69998730  0.55941589  0.06683730  1
  Zn  Zn107  1  0.83039093  0.65105602  0.49638343  1
  Zn  Zn108  1  0.45493185  0.43023225  0.17763597  1
  Zn  Zn109  1  0.45164613  0.43348691  0.80980334  1
  Zn  Zn110  1  0.44707015  0.96208391  0.17955302  1
  Zn  Zn111  1  0.44028090  0.93777640  0.69170684  1
  Zn  Zn112  1  0.87978912  0.48353132  0.14836558  1
  Zn  Zn113  1  0.92121722  0.42639597  0.68878678  1
  Zn  Zn114  1  0.94086131  0.91610265  0.19492053  1
  Zn  Zn115  1  0.93868880  0.82283864  0.69561683  1
  Zn  Zn116  1  0.06540935  0.06559500  0.31529953  1
  Zn  Zn117  1  0.07278387  0.02686742  0.84141669  1
  Zn  Zn118  1  0.06594233  0.56093872  0.30596894  1
  Zn  Zn119  1  0.02771989  0.55724860  0.79088622  1
  Zn  Zn120  1  0.56777875  0.05461329  0.33238451  1
  Zn  Zn121  1  0.56323405  0.05509209  0.81167944  1
  Zn  Zn122  1  0.55452991  0.52915439  0.30690056  1
  Zn  Zn123  1  0.57567485  0.56841659  0.79607406  1
  Zn  Zn124  1  0.44689539  0.20239115  0.45495236  1
  Zn  Zn125  1  0.44648455  0.19399605  0.91838951  1
  Zn  Zn126  1  0.47248924  0.70986824  0.46659739  1
  Zn  Zn127  1  0.37702426  0.70625531  0.91148841  1
  Zn  Zn128  1  0.93559993  0.18636157  0.43571965  1
  Zn  Zn129  1  0.92626254  0.17717696  0.93614830  1
  Zn  Zn130  1  0.92981847  0.70928796  0.37106358  1
  Zn  Zn131  1  1.01962961  0.71559483  1.01190599  1
  Zn  Zn132  1  0.05055778  0.30909948  0.04543709  1
  Zn  Zn133  1  0.05968095  0.31318669  0.57184422  1
  Zn  Zn134  1  0.10521902  0.80796169  0.15706743  1
  Zn  Zn135  1  0.07048207  0.80474569  0.54658385  1
  Zn  Zn136  1  0.58090045  0.31033762  -0.04959730  1
  Zn  Zn137  1  0.49478566  0.37525705  0.62953906  1
  Zn  Zn138  1  0.54963299  0.80916775  0.06669583  1
  Zn  Zn139  1  0.56789661  0.82191579  0.56710839  1
  O  O140  1  0.12889850  0.17105720  0.10084234  1
  O  O141  1  0.12457818  0.11209120  0.61841577  1
  O  O142  1  0.15864754  0.61800840  0.09537485  1
  O  O143  1  0.14802253  0.62183913  0.60759574  1
  O  O144  1  0.51938012  0.18999198  0.12986005  1
  O  O145  1  0.63171336  0.10654794  0.62971262  1
  O  O146  1  0.62084312  0.62634931  0.12900219  1
  O  O147  1  0.61705886  0.62244128  0.61258074  1
  O  O148  1  0.36553543  0.36434680  0.40159310  1
  O  O149  1  0.38419028  0.37270334  0.87645575  1
  O  O150  1  0.37831813  0.88049981  0.38639389  1
  O  O151  1  0.36561288  0.88241354  0.89508743  1
  O  O152  1  0.89057272  0.37064950  0.37584934  1
  O  O153  1  0.87484480  0.38944240  0.86365205  1
  O  O154  1  0.87474189  0.89496540  0.36745163  1
  O  O155  1  0.87876343  0.88238600  0.88519610  1
  O  O156  1  0.26526730  0.01990413  0.38067715  1
  O  O157  1  0.26481866  0.00757762  0.88203245  1
  O  O158  1  0.24339860  0.49823768  0.36678003  1
  O  O159  1  0.17558912  0.60733705  0.88135129  1
  O  O160  1  0.77290796  0.01159166  0.38801105  1
  O  O161  1  0.74692865  0.00549106  0.86392158  1
  O  O162  1  0.77331282  0.48730186  0.37362464  1
  O  O163  1  0.75712268  0.51667987  0.86635532  1
  O  O164  1  0.24735219  0.49421561  0.13353462  1
  O  O165  1  0.25081343  0.48266553  0.62848255  1
  O  O166  1  0.28182013  1.00898628  0.14249464  1
  O  O167  1  0.22707776  0.99609973  0.62626662  1
  O  O168  1  0.76838888  0.48182164  0.11415382  1
  O  O169  1  0.76376706  0.53064683  0.63425362  1
  O  O170  1  0.69792677  1.07720849  0.13047536  1
  O  O171  1  0.74889095  0.99983494  0.63241551  1
  O  O172  1  0.01612547  0.35790928  0.25920112  1
  O  O173  1  0.00572004  0.38292181  0.75928067  1
  O  O174  1  0.00332624  0.82057156  0.20822862  1
  O  O175  1  0.02121636  0.86652202  0.77425950  1
  O  O176  1  0.43595241  0.29891009  0.23077317  1
  O  O177  1  0.51368564  0.37469588  0.73659076  1
  O  O178  1  0.51653799  0.89467687  0.25402580  1
  O  O179  1  0.51897427  0.87899254  0.74401604  1
  O  O180  1  0.48709171  0.09318120  0.26178499  1
  O  O181  1  0.47745968  0.11555669  0.75320368  1
  O  O182  1  0.49059302  0.61023168  0.23342792  1
  O  O183  1  0.49602199  0.60607213  0.72398881  1
  O  O184  1  0.99166622  0.13725835  0.25559576  1
  O  O185  1  1.01638003  0.13310512  0.81517031  1
  O  O186  1  1.02709766  0.64165265  0.23791277  1
  O  O187  1  1.00330938  0.61996659  0.70507264  1
  O  O188  1  0.38287562  0.26519802  -0.00982835  1
  O  O189  1  0.35896857  0.24968769  0.52033654  1
  O  O190  1  0.38430329  0.76917346  0.01478344  1
  O  O191  1  0.38159670  0.76700420  0.50715900  1
  O  O192  1  0.87026670  0.23116131  0.02109196  1
  O  O193  1  0.87761551  0.25869526  0.50597817  1
  O  O194  1  0.85573970  0.76959302  0.00725108  1
  O  O195  1  0.87912771  0.74735595  0.46435686  1
  O  O196  1  0.12537292  0.24304364  0.50035863  1
  O  O197  1  0.10124835  0.23804992  0.96210671  1
  O  O198  1  0.13745232  0.72892452  0.49079993  1
  O  O199  1  0.11533868  0.76306451  1.05321947  1
  O  O200  1  0.64574213  0.24367887  0.47854358  1
  O  O201  1  0.64519818  0.24041898  1.01341647  1
  O  O202  1  0.58494698  0.72980310  0.49583332  1
  O  O203  1  0.62755829  0.75668142  1.00000833  1
  O  O204  1  0.50631599  0.25374075  0.09726269  1
  O  O205  1  0.47332878  0.24642467  0.63096144  1
  O  O206  1  0.48662480  0.72751273  0.12326693  1
  O  O207  1  0.48567885  0.74454808  0.62901496  1
  O  O208  1  0.98796502  0.25329303  0.13045280  1
  O  O209  1  0.97892327  0.26459593  0.63401463  1
  O  O210  1  0.95081490  0.70137962  0.10690574  1
  O  O211  1  0.99266850  0.75511710  0.61393260  1
  O  O212  1  0.00753104  0.25446261  0.36800163  1
  O  O213  1  -0.02127780  0.26566116  0.87024236  1
  O  O214  1  0.03674484  0.74599825  0.36673591  1
  O  O215  1  0.01713105  0.77462184  0.90764954  1
  O  O216  1  0.52297178  0.23352661  0.37586010  1
  O  O217  1  0.52508717  0.25253910  0.86916022  1
  O  O218  1  0.47091189  0.72440122  0.35415559  1
  O  O219  1  0.49839137  0.73877622  0.89554524  1
  O  O220  1  0.23674462  0.13150901  0.49746925  1
  O  O221  1  0.25633894  0.12889649  0.98761411  1
  O  O222  1  0.24594918  0.60722720  0.48614183  1
  O  O223  1  0.20057918  0.61200621  1.03490321  1
  O  O224  1  0.77098545  0.13878460  0.48334696  1
  O  O225  1  0.74577317  0.12659190  0.98429971  1
  O  O226  1  0.72008048  0.64852702  0.47229573  1
  O  O227  1  0.74178447  0.64385799  0.98990531  1
  O  O228  1  0.27700001  0.39732032  -0.01420490  1
  O  O229  1  0.24700643  0.36414116  0.52054681  1
  O  O230  1  0.26671634  0.88723187  0.02634534  1
  O  O231  1  0.27373084  0.87781895  0.50258144  1
  O  O232  1  0.75526575  0.35062985  0.01173063  1
  O  O233  1  0.76418337  0.35488521  0.47832446  1
  O  O234  1  0.74719140  0.86196389  0.00101742  1
  O  O235  1  0.75233234  0.88083138  0.50705687  1
  O  O236  1  0.12012152  0.47614817  0.24380713  1
  O  O237  1  0.12142673  0.49233721  0.75815488  1
  O  O238  1  0.13246664  1.05540947  0.22079278  1
  O  O239  1  0.11399962  1.00254410  0.73580631  1
  O  O240  1  0.66316177  0.53193649  0.25192864  1
  O  O241  1  0.65167908  0.51368646  0.72763101  1
  O  O242  1  0.62828892  0.98511746  0.24961417  1
  O  O243  1  0.63383687  0.99262143  0.73961039  1
  O  O244  1  0.41699533  0.04485390  0.25737937  1
  O  O245  1  0.36796279  0.00457381  0.75483267  1
  O  O246  1  0.35502235  0.47551243  0.24277940  1
  O  O247  1  0.37842657  0.49372996  0.74483794  1
  O  O248  1  0.89514475  0.00649877  0.26110158  1
  O  O249  1  0.85690714  -0.01302991  0.76648022  1
  O  O250  1  0.88881477  0.49969092  0.26261295  1
  O  O251  1  0.87004763  0.50972054  0.75636009  1
  O  O252  1  0.11915417  0.35926280  0.38239423  1
  O  O253  1  0.10983999  0.37140755  0.86104621  1
  O  O254  1  0.15143242  0.85452882  0.38385078  1
  O  O255  1  0.09828621  0.91846815  0.90335872  1
  O  O256  1  0.63290635  0.35728391  0.36994372  1
  O  O257  1  0.65966255  0.35570842  0.87032431  1
  O  O258  1  0.63097691  0.89477215  0.35743506  1
  O  O259  1  0.63604196  0.86822395  0.85192899  1
  O  O260  1  0.35262466  0.16852906  0.12437617  1
  O  O261  1  0.35927672  0.12897423  0.63886812  1
  O  O262  1  0.36482850  0.62906124  0.09874496  1
  O  O263  1  0.38430797  0.63524607  0.63879653  1
  O  O264  1  0.87120943  0.10997742  0.13995329  1
  O  O265  1  0.87401180  0.14259441  0.62313411  1
  O  O266  1  0.75728836  0.61943723  0.22467890  1
  O  O267  1  0.87840648  0.63310745  0.59979194  1
  O  O268  1  0.29532751  0.21583919  0.12881431  1
  O  O269  1  0.24179281  0.24615262  0.62222202  1
  O  O270  1  0.27088145  0.75715662  0.12045549  1
  O  O271  1  0.27125830  0.74279742  0.61485442  1
  O  O272  1  0.76215896  0.25057061  0.12195596  1
  O  O273  1  0.75547377  0.24589694  0.59688628  1
  O  O274  1  0.74899906  0.74772930  0.12045999  1
  O  O275  1  0.75143878  0.76412583  0.61555106  1
  O  O276  1  0.23934807  0.24718576  0.39575507  1
  O  O277  1  0.25071646  0.23379764  0.87158907  1
  O  O278  1  0.25129928  0.72754210  0.37779619  1
  O  O279  1  0.26687511  0.74152434  0.90858399  1
  O  O280  1  0.74948440  0.23812993  0.37203911  1
  O  O281  1  0.76560331  0.23226627  0.89196807  1
  O  O282  1  0.74330407  0.76766193  0.34306958  1
  O  O283  1  0.75482194  0.74492114  0.88151848  1
  O  O284  1  0.01040684  0.12049514  -0.00171089  1
  O  O285  1  0.01405575  0.12321509  0.49283042  1
  O  O286  1  0.01325688  0.60650775  -0.01756629  1
  O  O287  1  0.01924683  0.61353061  0.52063836  1
  O  O288  1  0.49496671  0.11682818  -0.01532929  1
  O  O289  1  0.49009146  0.11393572  0.51529041  1
  O  O290  1  0.52193101  0.62566419  0.00355407  1
  O  O291  1  0.48907630  0.60970592  0.52763764  1
  O  O292  1  0.47420032  0.35965480  0.51955952  1
  O  O293  1  0.50218895  0.38990290  0.98755022  1
  O  O294  1  0.48673729  0.88505997  0.51226959  1
  O  O295  1  0.48927989  0.88667574  1.00628353  1
  O  O296  1  0.99743607  0.37491939  0.49188354  1
  O  O297  1  0.99473747  0.38314666  0.97437303  1
  O  O298  1  1.01155259  0.88354748  0.48924150  1
  O  O299  1  0.96790058  0.88497850  1.00135905  1
  O  O300  1  0.51938912  0.43507766  0.26582101  1
  O  O301  1  0.52878995  0.49818513  0.87429988  1
  O  O302  1  0.49551645  1.00404051  0.40202379  1
  O  O303  1  0.48275857  1.00148153  0.87641079  1
  O  O304  1  1.00225817  0.48549908  0.37922326  1
  O  O305  1  0.98173611  0.49609346  0.87463753  1
  O  O306  1  0.99970025  1.00115524  0.38195328  1
  O  O307  1  0.97114252  0.99445896  0.88054642  1
  O  O308  1  0.01673309  -0.01744410  0.13845633  1
  O  O309  1  0.01696165  -0.00373180  0.60190004  1
  O  O310  1  -0.02014226  0.49946095  0.09867626  1
  O  O311  1  -0.00898412  0.48058579  0.61061590  1
  O  O312  1  0.50351218  0.01806678  0.10324481  1
  O  O313  1  0.51364408  -0.00008679  0.62549882  1
  O  O314  1  0.50174860  0.51995974  0.10325182  1
  O  O315  1  0.53836616  0.48474000  0.61825356  1
  O  O316  1  0.22934805  0.37606876  0.25139660  1
  O  O317  1  0.23210509  0.37214246  0.74826929  1
  O  O318  1  0.28469386  0.88438621  0.24201082  1
  O  O319  1  0.21028071  0.88276112  0.77491648  1
  O  O320  1  0.75414952  0.36704930  0.23148416  1
  O  O321  1  0.76086914  0.40724159  0.74466016  1
  O  O322  1  0.72252404  0.87007340  0.23850722  1
  O  O323  1  0.74209650  0.88514083  0.73697189  1
  O  O324  1  0.26089962  0.14553916  0.27717049  1
  O  O325  1  0.25332245  0.11165614  0.76583956  1
  O  O326  1  0.24087217  0.59540405  0.25747067  1
  O  O327  1  0.27379305  0.61399585  0.74627181  1
  O  O328  1  0.77508345  0.12455313  0.26427346  1
  O  O329  1  0.75490483  0.10757920  0.75858318  1
  O  O330  1  0.69867770  0.59891213  0.27168011  1
  O  O331  1  0.75067070  0.62951299  0.76341707  1
  O  O332  1  0.36539328  0.13959165  0.39422846  1
  O  O333  1  0.36667889  0.11980455  0.86474040  1
  O  O334  1  0.35885184  0.61227326  0.35866149  1
  O  O335  1  0.39759550  0.61861957  0.84655331  1
  O  O336  1  0.87695818  0.11573412  0.36523088  1
  O  O337  1  0.86000563  0.10367042  0.87955853  1
  O  O338  1  0.88312434  0.60254532  0.39103751  1
  O  O339  1  0.85934348  0.62001442  0.87915024  1
  O  O340  1  0.11795780  0.35769050  0.12830148  1
  O  O341  1  0.13156018  0.36976731  0.64379912  1
  O  O342  1  0.16089437  0.90739045  0.14510338  1
  O  O343  1  0.11615287  0.87938114  0.63218862  1
  O  O344  1  0.63984593  0.38109072  0.12357154  1
  O  O345  1  0.67627148  0.39888695  0.61306221  1
  O  O346  1  0.61224834  0.86917690  0.14989465  1
  O  O347  1  0.64007963  0.88732363  0.62813443  1
  O  O348  1  0.12096134  0.25218195  0.25990053  1
  O  O349  1  0.11933754  0.24080463  0.76616860  1
  O  O350  1  0.15394500  0.75621123  0.25415799  1
  O  O351  1  0.13030328  0.75223407  0.73230591  1
  O  O352  1  0.62448214  0.22852693  0.25901501  1
  O  O353  1  0.67199879  0.27839343  0.71878458  1
  O  O354  1  0.60549805  0.78089936  0.27141909  1
  O  O355  1  0.62610129  0.76205501  0.73232755  1
  O  O356  1  0.36955528  0.26269093  0.25066659  1
  O  O357  1  0.36142709  0.23223190  0.74489321  1
  O  O358  1  0.36730714  0.72946763  0.23366432  1
  O  O359  1  0.35886597  0.76720894  0.74576310  1
  O  O360  1  0.88394659  0.23813304  0.23668792  1
  O  O361  1  0.83361490  0.27206643  0.71914742  1
  O  O362  1  0.88416411  0.72459100  0.26084709  1
  O  O363  1  0.87652440  0.75441430  0.75480031  1
  O  O364  1  0.36755113  0.47804030  0.51594756  1
  O  O365  1  0.40955717  0.51302740  0.97780648  1
  O  O366  1  0.38553412  0.99125483  0.51406722  1
  O  O367  1  0.38770731  0.99513894  0.99454345  1
  O  O368  1  0.89021921  0.47993749  0.48449437  1
  O  O369  1  0.87676074  0.50107251  0.98145853  1
  O  O370  1  0.89751953  1.00403081  0.48984205  1
  O  O371  1  0.84151119  0.98793869  0.99002901  1
  O  O372  1  0.13976355  0.02940871  0.03539716  1
  O  O373  1  0.12042331  0.00622756  0.49770834  1
  O  O374  1  0.10839399  0.48342534  -0.00195392  1
  O  O375  1  0.11639844  0.50865124  0.49330259  1
  O  O376  1  0.60859160  -0.00194022  -0.01891110  1
  O  O377  1  0.60997077  -0.00237618  0.51418039  1
  O  O378  1  0.62094718  0.50395046  0.00126840  1
  O  O379  1  0.65009435  0.51553810  0.51040672  1
  O  O380  1  0.38987193  0.39817678  0.08992186  1
  O  O381  1  0.35085908  0.35286538  0.63303876  1
  O  O382  1  0.38252878  0.88403789  0.12011282  1
  O  O383  1  0.37612321  0.86669919  0.62638308  1
  O  O384  1  0.87453985  0.36026869  0.12291345  1
  O  O385  1  0.85181199  0.37022058  0.61078821  1
  O  O386  1  0.85918125  0.89547987  0.11721505  1
  O  O387  1  0.86092259  0.87821955  0.62945281  1
  O  O388  1  0.13356203  0.13620355  0.38345082  1
  O  O389  1  0.14033156  0.11624679  0.89045818  1
  O  O390  1  0.14113670  0.62422332  0.37789214  1
  O  O391  1  0.11444995  0.63818994  0.85693769  1
  O  O392  1  0.65379238  0.11543421  0.37053642  1
  O  O393  1  0.63924140  0.12669763  0.86126446  1
  O  O394  1  0.58603125  0.59737704  0.39357041  1
  O  O395  1  0.63457894  0.63824851  0.86978748  1
