# generated using pymatgen
data_V35Zn35O128
_symmetry_space_group_name_H-M   'P 1'
_cell_length_a   16.85059104
_cell_length_b   16.86905068
_cell_length_c   16.89006402
_cell_angle_alpha   89.81546463
_cell_angle_beta   90.00199817
_cell_angle_gamma   90.05907863
_symmetry_Int_Tables_number   1
_chemical_formula_structural   V35Zn35O128
_chemical_formula_sum   'V70 Zn70 O256'
_cell_volume   4801.03191881
_cell_formula_units_Z   2
loop_
 _symmetry_equiv_pos_site_id
 _symmetry_equiv_pos_as_xyz
  1  'x, y, z'
loop_
 _atom_site_type_symbol
 _atom_site_label
 _atom_site_symmetry_multiplicity
 _atom_site_fract_x
 _atom_site_fract_y
 _atom_site_fract_z
 _atom_site_occupancy
  V  V0  1  0.37923050  0.37046284  -0.01450628  1
  V  V1  1  0.73598799  0.00124982  0.23288989  1
  V  V2  1  0.00813342  0.49812211  -0.00545647  1
  V  V3  1  0.24569338  0.25817446  0.49954746  1
  V  V4  1  0.87174922  0.24870551  0.11277786  1
  V  V5  1  -0.00690738  0.86873889  0.87655902  1
  V  V6  1  0.13559341  0.75251594  0.38292821  1
  V  V7  1  0.26439364  0.36971098  0.12032570  1
  V  V8  1  0.12671669  0.74743142  0.85752412  1
  V  V9  1  0.39165062  0.36342240  0.49864977  1
  V  V10  1  0.75177052  0.38845839  0.63032766  1
  V  V11  1  0.47655585  0.25586421  0.24563973  1
  V  V12  1  0.87778436  0.25442160  0.63049721  1
  V  V13  1  -0.00371251  0.24281618  0.24464753  1
  V  V14  1  0.86739095  0.38742878  -0.00763129  1
  V  V15  1  0.49289917  0.62285847  0.14634908  1
  V  V16  1  0.25442043  0.87504461  0.11909841  1
  V  V17  1  0.74560140  0.37911472  0.14089585  1
  V  V18  1  0.00346130  0.51442810  0.49063517  1
  V  V19  1  0.87534092  0.60050863  0.76032669  1
  V  V20  1  0.75855794  0.76064482  0.49726709  1
  V  V21  1  0.73837222  0.88498133  0.65827527  1
  V  V22  1  0.37866282  0.00378458  0.37256453  1
  V  V23  1  0.10628809  0.11519422  0.00788714  1
  V  V24  1  0.63078948  0.27532925  0.88221423  1
  V  V25  1  0.19762794  0.43304105  0.69072775  1
  V  V26  1  0.25217775  0.87847474  0.62666126  1
  V  V27  1  0.36973769  0.86192731  0.50614190  1
  V  V28  1  0.14348881  0.24729534  0.88795140  1
  V  V29  1  0.37607530  -0.00145730  0.87720990  1
  V  V30  1  0.11800686  0.10828683  0.50084207  1
  V  V31  1  0.88713720  0.38387469  0.48390465  1
  V  V32  1  0.62430305  0.12348398  0.49664627  1
  V  V33  1  0.61968352  0.26239453  0.36579082  1
  V  V34  1  0.48941457  0.63422409  0.62220801  1
  V  V35  1  0.38394334  0.49161873  0.37079715  1
  V  V36  1  0.24882103  0.12316836  0.37018093  1
  V  V37  1  0.13304329  0.63026917  0.00721791  1
  V  V38  1  0.62774901  0.50521314  0.13995432  1
  V  V39  1  0.51011961  0.73656681  0.77121106  1
  V  V40  1  0.13711334  0.63212062  0.50692676  1
  V  V41  1  0.87734471  0.60187906  0.25686853  1
  V  V42  1  0.62390709  0.11040139  0.00418569  1
  V  V43  1  0.75975816  0.61405470  0.37840939  1
  V  V44  1  0.25913587  0.61358844  0.86086001  1
  V  V45  1  -0.01270388  0.88188808  0.39045281  1
  V  V46  1  0.49682011  0.14141247  0.62837894  1
  V  V47  1  0.12652956  0.87595062  0.24715968  1
  V  V48  1  0.61252434  0.49909640  0.62517824  1
  V  V49  1  -0.01299397  0.75417026  0.24538068  1
  V  V50  1  0.50143038  0.00064127  0.50763644  1
  V  V51  1  0.74911078  0.11742539  0.87026922  1
  V  V52  1  -0.00300883  0.11271960  0.62611198  1
  V  V53  1  0.50372084  0.85862153  0.37206966  1
  V  V54  1  -0.00087488  0.62150357  0.12701968  1
  V  V55  1  0.75437645  0.25438393  0.49078558  1
  V  V56  1  0.75465966  0.74404236  0.00798200  1
  V  V57  1  0.12126784  0.37740207  0.23281547  1
  V  V58  1  0.12634163  0.89958309  0.74320617  1
  V  V59  1  0.37889986  0.74588996  0.13510950  1
  V  V60  1  0.86281298  0.12593674  0.24736598  1
  V  V61  1  0.24973142  0.00134980  0.24686620  1
  V  V62  1  0.11544433  0.25978748  0.37346907  1
  V  V63  1  0.01056703  0.25789596  0.75167242  1
  V  V64  1  0.80558581  0.06916766  0.42917050  1
  V  V65  1  0.49540699  0.50818581  -0.00560943  1
  V  V66  1  0.62184544  0.86741337  0.24308625  1
  V  V67  1  0.48698475  0.12035322  0.12699649  1
  V  V68  1  0.50471849  0.29062938  0.75592911  1
  V  V69  1  0.62181877  0.62454204  0.49068959  1
  Zn  Zn70  1  0.87510388  0.75196448  0.63189574  1
  Zn  Zn71  1  0.34240692  0.23884852  0.66025255  1
  Zn  Zn72  1  0.25936634  0.75425185  -0.00636804  1
  Zn  Zn73  1  0.25508586  0.51381921  0.25117489  1
  Zn  Zn74  1  0.00335853  0.63237758  0.63425267  1
  Zn  Zn75  1  0.00335979  0.38401532  0.86054217  1
  Zn  Zn76  1  0.18652627  0.18730348  0.17826379  1
  Zn  Zn77  1  0.17858731  0.17868993  0.68829927  1
  Zn  Zn78  1  0.18945512  0.69221645  0.19352041  1
  Zn  Zn79  1  0.20377786  0.68660128  0.67692723  1
  Zn  Zn80  1  0.68431476  0.19171870  0.18082946  1
  Zn  Zn81  1  0.68388606  0.20114196  0.68672913  1
  Zn  Zn82  1  0.68995541  0.68041897  0.19795644  1
  Zn  Zn83  1  0.68923624  0.68575776  0.68077306  1
  Zn  Zn84  1  0.30340070  0.32035890  0.31600377  1
  Zn  Zn85  1  0.31594020  0.31334344  0.81714207  1
  Zn  Zn86  1  0.31799197  0.81480598  0.31306668  1
  Zn  Zn87  1  0.31001432  0.80285190  0.79966794  1
  Zn  Zn88  1  0.81325952  0.31443557  0.31058021  1
  Zn  Zn89  1  0.80916718  0.31497416  0.81523449  1
  Zn  Zn90  1  0.80115340  0.81552591  0.31966669  1
  Zn  Zn91  1  0.80827624  0.79765024  0.81336898  1
  Zn  Zn92  1  0.18677709  0.44807908  0.43671207  1
  Zn  Zn93  1  0.18829128  0.43227807  0.93480671  1
  Zn  Zn94  1  0.18717828  0.93258977  0.43520415  1
  Zn  Zn95  1  0.18286572  0.94161525  0.93329458  1
  Zn  Zn96  1  0.68805668  0.43856889  0.44122327  1
  Zn  Zn97  1  0.66914638  0.43369445  0.95669033  1
  Zn  Zn98  1  0.67943892  0.93535759  0.43505271  1
  Zn  Zn99  1  0.67249899  0.94083699  0.82998571  1
  Zn  Zn100  1  0.30139998  0.07469532  0.06321317  1
  Zn  Zn101  1  0.31540736  0.06296309  0.56408650  1
  Zn  Zn102  1  0.31145321  0.55251792  0.06980280  1
  Zn  Zn103  1  0.32647917  0.56841857  0.52163734  1
  Zn  Zn104  1  0.79995765  0.06523026  0.05674523  1
  Zn  Zn105  1  0.81459651  0.05584649  0.59828067  1
  Zn  Zn106  1  0.81962776  0.55795137  0.07238494  1
  Zn  Zn107  1  0.82041920  0.56654569  0.56347726  1
  Zn  Zn108  1  0.43845321  0.43541317  0.19212071  1
  Zn  Zn109  1  0.41628566  0.43500436  0.66101656  1
  Zn  Zn110  1  0.43828047  0.93752944  0.18774096  1
  Zn  Zn111  1  0.50321269  0.94817387  0.71253400  1
  Zn  Zn112  1  0.94487498  0.43184357  0.18311011  1
  Zn  Zn113  1  0.94746423  0.44467321  0.67612266  1
  Zn  Zn114  1  0.94296720  0.95375713  0.24121254  1
  Zn  Zn115  1  0.93324852  0.92573204  0.69950343  1
  Zn  Zn116  1  0.06313908  0.06547825  0.30896789  1
  Zn  Zn117  1  0.05588704  0.07272991  0.81575749  1
  Zn  Zn118  1  0.08568876  0.57128068  0.30970775  1
  Zn  Zn119  1  0.06924536  0.56091589  0.80627350  1
  Zn  Zn120  1  0.56143810  0.07258582  0.31128976  1
  Zn  Zn121  1  0.59787331  0.09704046  0.79209050  1
  Zn  Zn122  1  0.56415894  0.55274508  0.31943111  1
  Zn  Zn123  1  0.54302149  0.54029724  0.79275966  1
  Zn  Zn124  1  0.43856273  0.18852102  0.43143570  1
  Zn  Zn125  1  0.45398962  0.19587065  0.93593763  1
  Zn  Zn126  1  0.43401242  0.68015729  0.42929501  1
  Zn  Zn127  1  0.43464231  0.68282477  0.95140592  1
  Zn  Zn128  1  0.94106675  0.19078559  0.44073583  1
  Zn  Zn129  1  0.93077463  0.18396892  0.93180128  1
  Zn  Zn130  1  0.93987574  0.69614097  0.43558472  1
  Zn  Zn131  1  0.94320481  0.68047711  0.92512767  1
  Zn  Zn132  1  0.05884971  0.30504910  0.05725452  1
  Zn  Zn133  1  0.06694263  0.32140515  0.56509391  1
  Zn  Zn134  1  0.06179417  0.81667759  0.06172229  1
  Zn  Zn135  1  0.05925157  0.81694742  0.56953979  1
  Zn  Zn136  1  0.55418943  0.31554333  0.07005801  1
  Zn  Zn137  1  0.57144103  0.30941631  0.56319894  1
  Zn  Zn138  1  0.56874708  0.80149594  0.07042415  1
  Zn  Zn139  1  0.57134128  0.80942438  0.56168274  1
  O  O140  1  0.12260694  0.12247313  0.11044676  1
  O  O141  1  0.11077177  0.12445106  0.61128769  1
  O  O142  1  0.11572874  0.63422643  0.11089907  1
  O  O143  1  0.11995063  0.64132805  0.61027802  1
  O  O144  1  0.62167754  0.13258990  0.11015268  1
  O  O145  1  0.61459878  0.13881295  0.60587926  1
  O  O146  1  0.61687128  0.61390654  0.13661625  1
  O  O147  1  0.61787726  0.61366749  0.61253815  1
  O  O148  1  0.37306436  0.37737539  0.38639481  1
  O  O149  1  0.36923200  0.38837297  0.88709225  1
  O  O150  1  0.38678504  0.88330323  0.38088610  1
  O  O151  1  0.35436766  0.89456124  0.87152554  1
  O  O152  1  0.87790711  0.37140248  0.38543439  1
  O  O153  1  0.87879658  0.37213801  0.89012551  1
  O  O154  1  0.88798271  0.87198426  0.37106617  1
  O  O155  1  0.89454467  0.85268917  0.86724694  1
  O  O156  1  0.25544056  0.00485007  0.36878664  1
  O  O157  1  0.26893215  0.00899718  0.87241769  1
  O  O158  1  0.26374952  0.48778874  0.36731766  1
  O  O159  1  0.24232892  0.51495769  0.87866987  1
  O  O160  1  0.74832018  0.00741024  0.37243520  1
  O  O161  1  0.74215542  0.01534774  0.87769649  1
  O  O162  1  0.75433902  0.51406329  0.38056650  1
  O  O163  1  0.71728560  0.53383494  0.88392509  1
  O  O164  1  0.25253260  0.48202844  0.13808413  1
  O  O165  1  0.25827990  0.50261624  0.62081981  1
  O  O166  1  0.26205029  0.98632055  0.13528594  1
  O  O167  1  0.25597610  0.98372194  0.61743749  1
  O  O168  1  0.73779382  0.49466079  0.12345940  1
  O  O169  1  0.75002613  0.49019866  0.61849776  1
  O  O170  1  0.74062931  0.99991565  0.13390607  1
  O  O171  1  0.74538036  0.98815669  0.64898102  1
  O  O172  1  0.00670266  0.35348339  0.24294415  1
  O  O173  1  -0.00109460  0.36274935  0.74321704  1
  O  O174  1  0.00903581  0.86153309  0.24286979  1
  O  O175  1  0.02132111  0.87466926  0.75860563  1
  O  O176  1  0.49978945  0.35487243  0.24524829  1
  O  O177  1  0.49468353  0.39096134  0.74211914  1
  O  O178  1  0.50635692  0.88019348  0.26502944  1
  O  O179  1  0.49620615  0.84190320  0.74934129  1
  O  O180  1  0.50373078  0.13934341  0.23814216  1
  O  O181  1  0.50531997  0.12037964  0.72616192  1
  O  O182  1  0.50313260  0.62459439  0.24550329  1
  O  O183  1  0.49216238  0.62504328  0.73118660  1
  O  O184  1  0.98220249  0.13109290  0.25065308  1
  O  O185  1  1.00336276  0.13965426  0.73029575  1
  O  O186  1  0.99254533  0.63508610  0.24980032  1
  O  O187  1  0.98749236  0.61505085  0.74948324  1
  O  O188  1  0.38403839  0.26914206  -0.01144315  1
  O  O189  1  0.35314357  0.25219185  0.48102829  1
  O  O190  1  0.37064730  0.74688050  0.02225768  1
  O  O191  1  0.37903933  0.76397601  0.48941185  1
  O  O192  1  0.87961533  0.26518817  0.00987714  1
  O  O193  1  0.87348611  0.26149686  0.50440019  1
  O  O194  1  0.86082281  0.74314713  -0.00109352  1
  O  O195  1  0.86244699  0.74559643  0.50508350  1
  O  O196  1  0.12448415  0.24650622  0.48467459  1
  O  O197  1  0.12443713  0.23733675  0.99377826  1
  O  O198  1  0.12025239  0.75238469  0.48972486  1
  O  O199  1  0.12833783  0.73842118  0.99332943  1
  O  O200  1  0.63766138  0.24578356  0.49128723  1
  O  O201  1  0.62029669  0.27281034  0.98459320  1
  O  O202  1  0.64144706  0.73166857  0.50366572  1
  O  O203  1  0.65034020  0.73727746  1.01483518  1
  O  O204  1  0.49877156  0.24344151  0.13938740  1
  O  O205  1  0.50730530  0.24901852  0.64110824  1
  O  O206  1  0.49105065  0.73667682  0.12385833  1
  O  O207  1  0.50391020  0.73470306  0.61973467  1
  O  O208  1  0.98034145  0.25179173  0.13027221  1
  O  O209  1  0.99196756  0.25223437  0.62943012  1
  O  O210  1  1.00383578  0.74100920  0.13784191  1
  O  O211  1  0.98946950  0.75083728  0.62509921  1
  O  O212  1  0.00996193  0.24336096  0.36459352  1
  O  O213  1  -0.01225295  0.25121547  0.85295624  1
  O  O214  1  0.00461032  0.76509819  0.36469732  1
  O  O215  1  0.01866281  0.75506203  0.87653307  1
  O  O216  1  0.51165569  0.24338749  0.35931555  1
  O  O217  1  0.51398453  0.26402200  0.86225631  1
  O  O218  1  0.49591956  0.75988029  0.37312817  1
  O  O219  1  0.50576591  0.71914360  0.87035872  1
  O  O220  1  0.23368307  0.12924086  0.48974397  1
  O  O221  1  0.22658477  0.11845598  0.99569670  1
  O  O222  1  0.23569562  0.63418345  0.50541454  1
  O  O223  1  0.23715402  0.62219001  1.00393054  1
  O  O224  1  0.74808474  0.12953990  0.49929513  1
  O  O225  1  0.73572982  0.12826472  0.98808677  1
  O  O226  1  0.75016000  0.62883602  0.49044309  1
  O  O227  1  0.76331860  0.63835587  1.00973890  1
  O  O228  1  0.26402651  0.38436908  0.01142681  1
  O  O229  1  0.24009337  0.35844872  0.49012177  1
  O  O230  1  0.23899457  0.87683688  0.01675701  1
  O  O231  1  0.26357268  0.87811448  0.50081297  1
  O  O232  1  0.76501397  0.38956608  0.00633446  1
  O  O233  1  0.76469548  0.37012721  0.50454435  1
  O  O234  1  0.75623308  0.84777320  0.01670434  1
  O  O235  1  0.74707065  0.86115344  0.48795933  1
  O  O236  1  0.10201801  0.47314163  0.24925602  1
  O  O237  1  0.13556336  0.48734782  0.75038299  1
  O  O238  1  0.13606726  0.98813143  0.25415949  1
  O  O239  1  0.12517503  0.99853837  0.75634503  1
  O  O240  1  0.62169803  0.49285640  0.23956547  1
  O  O241  1  0.62705956  0.50375743  0.72489723  1
  O  O242  1  0.63328008  0.99868880  0.25668490  1
  O  O243  1  0.58041911  0.98560280  0.78651113  1
  O  O244  1  0.36328279  -0.00722507  0.26346806  1
  O  O245  1  0.39142758  -0.00047574  0.77437195  1
  O  O246  1  0.37462911  0.49713261  0.26514099  1
  O  O247  1  0.30863465  0.48851228  0.68697223  1
  O  O248  1  0.85252190  0.01497781  0.24477741  1
  O  O249  1  0.91581537  -0.00271780  0.79802268  1
  O  O250  1  0.88638225  0.50361231  0.25606388  1
  O  O251  1  0.87644992  0.49870908  0.74725192  1
  O  O252  1  0.12467838  0.36032001  0.36546466  1
  O  O253  1  0.11606589  0.35402291  0.88836004  1
  O  O254  1  0.11479858  0.86902273  0.36840600  1
  O  O255  1  0.13045472  0.86506309  0.85972191  1
  O  O256  1  0.62718866  0.36158203  0.38321676  1
  O  O257  1  0.64043190  0.37604161  0.86527135  1
  O  O258  1  0.60792549  0.87521886  0.36929449  1
  O  O259  1  0.60058462  0.85401186  0.90337725  1
  O  O260  1  0.38566216  0.12685979  0.11631875  1
  O  O261  1  0.39203900  0.13979636  0.60792477  1
  O  O262  1  0.38230589  0.63053249  0.13357422  1
  O  O263  1  0.39290671  0.61993405  0.60058320  1
  O  O264  1  0.85955388  0.14331115  0.12842756  1
  O  O265  1  0.88644940  0.14326279  0.61461038  1
  O  O266  1  0.88433931  0.62001884  0.14727504  1
  O  O267  1  0.88292867  0.62471005  0.63567507  1
  O  O268  1  0.24828069  0.26851485  0.12904056  1
  O  O269  1  0.23633346  0.24205512  0.59952427  1
  O  O270  1  0.25790186  0.75911524  0.12774220  1
  O  O271  1  0.24705768  0.77464547  0.62150196  1
  O  O272  1  0.76109806  0.26831051  0.12844076  1
  O  O273  1  0.76097731  0.25593716  0.61299344  1
  O  O274  1  0.76015055  0.74034948  0.11425177  1
  O  O275  1  0.75050123  0.76090123  0.61258304  1
  O  O276  1  0.23191797  0.23940146  0.37513741  1
  O  O277  1  0.24229232  0.24834081  0.87931864  1
  O  O278  1  0.23490282  0.76008707  0.37213950  1
  O  O279  1  0.24033535  0.74468239  0.87708926  1
  O  O280  1  0.74652630  0.25296815  0.38591718  1
  O  O281  1  0.73338154  0.24608128  0.86587283  1
  O  O282  1  0.75449898  0.73538218  0.38736581  1
  O  O283  1  0.74605452  0.74943222  0.90457848  1
  O  O284  1  0.00469719  0.13184156  -0.00342659  1
  O  O285  1  0.00948862  0.12654679  0.50809806  1
  O  O286  1  0.00407504  0.61840830  0.00615300  1
  O  O287  1  0.00106615  0.62145259  0.50019307  1
  O  O288  1  0.51144088  0.13676056  0.01491216  1
  O  O289  1  0.50535891  0.12177297  0.50426715  1
  O  O290  1  0.49641937  0.61192470  0.02228291  1
  O  O291  1  0.51789583  0.63076684  0.49990578  1
  O  O292  1  0.49108748  0.35136670  0.49470254  1
  O  O293  1  0.48638448  0.39037119  1.00972660  1
  O  O294  1  0.49642610  0.88092815  0.49043682  1
  O  O295  1  0.55516173  0.86095392  0.96227136  1
  O  O296  1  0.99189369  0.38310309  0.49957189  1
  O  O297  1  0.99277284  0.39064297  1.00775502  1
  O  O298  1  1.00239554  0.88314971  0.48852267  1
  O  O299  1  1.01482054  0.87686565  0.97568083  1
  O  O300  1  0.48659731  0.49306845  0.37488502  1
  O  O301  1  0.50953808  0.51329244  0.89455826  1
  O  O302  1  0.49025375  1.00466385  0.38222297  1
  O  O303  1  0.47385926  0.97135852  0.89918639  1
  O  O304  1  1.01332856  0.50916855  0.38958797  1
  O  O305  1  1.00598520  0.49877565  0.89048015  1
  O  O306  1  0.99687661  0.98044099  0.34920363  1
  O  O307  1  0.97471677  0.98863241  0.85386695  1
  O  O308  1  -0.04753307  0.00187080  0.07121862  1
  O  O309  1  -0.01942816  0.01523151  0.63281026  1
  O  O310  1  -0.00073136  0.51353789  0.11613909  1
  O  O311  1  0.00396019  0.50713188  0.60192619  1
  O  O312  1  0.49764926  0.01873115  0.13514648  1
  O  O313  1  0.49574092  0.00815336  0.61240004  1
  O  O314  1  0.50550095  0.51089564  0.13227171  1
  O  O315  1  0.50759048  0.50462105  0.62012855  1
  O  O316  1  0.23088875  0.37290543  0.24215769  1
  O  O317  1  0.24299434  0.35681944  0.74210757  1
  O  O318  1  0.24397702  0.88198847  0.24586047  1
  O  O319  1  0.23963714  0.87599833  0.73898553  1
  O  O320  1  0.75867256  0.38431536  0.23932791  1
  O  O321  1  0.75585620  0.37097300  0.72808381  1
  O  O322  1  0.73590870  0.89065128  0.25664157  1
  O  O323  1  0.73026150  0.86715812  0.76339750  1
  O  O324  1  0.23735623  0.11415213  0.25946176  1
  O  O325  1  0.27950734  0.16267951  0.72811119  1
  O  O326  1  0.18970090  0.60471556  0.26011704  1
  O  O327  1  0.25243753  0.62779631  0.76053552  1
  O  O328  1  0.75203311  0.11752270  0.24633184  1
  O  O329  1  0.71388698  0.12282572  0.76587905  1
  O  O330  1  0.76814313  0.62585938  0.26232971  1
  O  O331  1  0.76869378  0.62286946  0.73515140  1
  O  O332  1  0.35881521  0.11560995  0.38247289  1
  O  O333  1  0.39442879  0.10117239  0.87826976  1
  O  O334  1  0.36896430  0.59267005  0.40882350  1
  O  O335  1  0.35498951  0.63019573  0.88628151  1
  O  O336  1  0.86894286  0.12863124  0.36892455  1
  O  O337  1  0.84898062  0.13675185  0.87097560  1
  O  O338  1  0.87202688  0.62545145  0.36620624  1
  O  O339  1  0.87821055  0.61557986  0.86258463  1
  O  O340  1  0.12513026  0.36863907  0.12995305  1
  O  O341  1  0.13866169  0.38546466  0.62219154  1
  O  O342  1  0.13986662  0.86363174  0.13787371  1
  O  O343  1  0.13080370  0.88280518  0.63600659  1
  O  O344  1  0.64076599  0.37969298  0.12603335  1
  O  O345  1  0.64044692  0.38871739  0.61001059  1
  O  O346  1  0.60490046  0.87989893  0.14363917  1
  O  O347  1  0.64126592  0.87402613  0.62321374  1
  O  O348  1  0.11545363  0.24867895  0.25703513  1
  O  O349  1  0.11368296  0.24665768  0.76069140  1
  O  O350  1  0.11652184  0.75940658  0.26321258  1
  O  O351  1  0.12939766  0.74403988  0.75855789  1
  O  O352  1  0.63869481  0.25162307  0.26733739  1
  O  O353  1  0.61033928  0.26030944  0.75554144  1
  O  O354  1  0.63726469  0.76773262  0.24816259  1
  O  O355  1  0.61072571  0.73039748  0.74984678  1
  O  O356  1  0.37705096  0.25011084  0.26001061  1
  O  O357  1  0.40272741  0.26176980  0.75821483  1
  O  O358  1  0.37102391  0.74936741  0.23729957  1
  O  O359  1  0.39733121  0.75464328  0.75109429  1
  O  O360  1  0.87685862  0.24337936  0.24301828  1
  O  O361  1  0.87762008  0.25557997  0.73241794  1
  O  O362  1  0.88661819  0.75453597  0.25296924  1
  O  O363  1  0.85657933  0.72284825  0.74748497  1
  O  O364  1  0.37601001  0.46666924  0.50244934  1
  O  O365  1  0.38840852  0.49547190  1.00703159  1
  O  O366  1  0.38346063  0.99262618  0.48953683  1
  O  O367  1  0.36170300  1.00166319  0.98281397  1
  O  O368  1  0.88541662  0.49104067  0.49549890  1
  O  O369  1  0.88694817  0.49354948  1.00400255  1
  O  O370  1  0.85907087  1.01587019  0.49394029  1
  O  O371  1  0.88656917  0.98785124  1.02882761  1
  O  O372  1  0.11454461  0.01491087  -0.01818916  1
  O  O373  1  0.12282016  0.01007795  0.49395038  1
  O  O374  1  0.11442675  0.51314249  -0.00054726  1
  O  O375  1  0.12133882  0.52210293  0.49648160  1
  O  O376  1  0.61877959  0.01486034  -0.00244455  1
  O  O377  1  0.61286547  0.01016539  0.49235871  1
  O  O378  1  0.60459574  0.49426446  0.02444715  1
  O  O379  1  0.63332189  0.51514052  0.50770749  1
  O  O380  1  0.36741868  0.37294616  0.12296107  1
  O  O381  1  0.37252317  0.34409767  0.60397207  1
  O  O382  1  0.36530529  0.86425880  0.13031226  1
  O  O383  1  0.36881359  0.87383130  0.60875423  1
  O  O384  1  0.86639935  0.37145619  0.11743887  1
  O  O385  1  0.86896903  0.36812582  0.61236784  1
  O  O386  1  0.97232714  0.94454664  0.12256070  1
  O  O387  1  0.84908924  0.87090748  0.64855251  1
  O  O388  1  0.12655620  0.12870288  0.38405818  1
  O  O389  1  0.11505625  0.14286521  0.88104532  1
  O  O390  1  0.11564797  0.64771700  0.39216782  1
  O  O391  1  0.13173368  0.63478977  0.88291777  1
  O  O392  1  0.62335181  0.13920534  0.38951941  1
  O  O393  1  0.62243714  0.14449846  0.89417015  1
  O  O394  1  0.63852266  0.61873321  0.38290549  1
  O  O395  1  0.67061441  0.58782458  0.86445549  1
