# generated using pymatgen
data_V35Zn35O128
_symmetry_space_group_name_H-M   'P 1'
_cell_length_a   16.93215305
_cell_length_b   17.01004539
_cell_length_c   16.99033337
_cell_angle_alpha   89.80229477
_cell_angle_beta   90.05509001
_cell_angle_gamma   89.90798164
_symmetry_Int_Tables_number   1
_chemical_formula_structural   V35Zn35O128
_chemical_formula_sum   'V70 Zn70 O256'
_cell_volume   4893.46188065
_cell_formula_units_Z   2
loop_
 _symmetry_equiv_pos_site_id
 _symmetry_equiv_pos_as_xyz
  1  'x, y, z'
loop_
 _atom_site_type_symbol
 _atom_site_label
 _atom_site_symmetry_multiplicity
 _atom_site_fract_x
 _atom_site_fract_y
 _atom_site_fract_z
 _atom_site_occupancy
  V  V0  1  0.24331629  0.62271804  0.38546365  1
  V  V1  1  0.62127727  0.36218903  0.26837433  1
  V  V2  1  0.11647381  0.12448498  0.00516439  1
  V  V3  1  0.74958737  0.61853227  0.86744887  1
  V  V4  1  0.37699448  0.13299716  0.73607115  1
  V  V5  1  -0.01891466  -0.00566621  0.50940479  1
  V  V6  1  0.89917764  0.25941606  0.63513635  1
  V  V7  1  0.63474807  0.50705366  0.63976268  1
  V  V8  1  0.64289217  0.49400257  0.12590667  1
  V  V9  1  0.26966257  0.11927906  0.36696773  1
  V  V10  1  0.12419449  0.63745897  0.50013270  1
  V  V11  1  0.10862953  0.62021357  0.00265195  1
  V  V12  1  0.75749516  0.38810491  0.63774389  1
  V  V13  1  0.25055934  0.73965943  0.00275540  1
  V  V14  1  0.40374853  0.50669807  0.38558595  1
  V  V15  1  0.35848560  0.62111085  0.24772441  1
  V  V16  1  0.23413911  0.88005020  0.13260526  1
  V  V17  1  0.52395020  0.86220551  0.36954235  1
  V  V18  1  0.62373434  0.62027461  -0.00520250  1
  V  V19  1  0.75269196  0.75325102  -0.00644566  1
  V  V20  1  0.50096429  0.36226193  0.87375014  1
  V  V21  1  0.50333474  0.63028089  0.13327789  1
  V  V22  1  0.86947364  0.76128401  0.13066204  1
  V  V23  1  0.01543491  0.37837675  0.36092938  1
  V  V24  1  0.88270772  0.33792939  -0.01041475  1
  V  V25  1  0.50641157  -0.00513551  0.50579801  1
  V  V26  1  0.00689954  -0.00509962  0.00156900  1
  V  V27  1  0.36731092  0.60965789  0.75829354  1
  V  V28  1  0.75561300  0.34560647  0.12669925  1
  V  V29  1  0.48465483  0.49641969  -0.00568696  1
  V  V30  1  0.49530830  0.74862951  0.74678338  1
  V  V31  1  0.89835012  0.22615268  0.14740348  1
  V  V32  1  0.74902984  0.13450815  0.36208079  1
  V  V33  1  0.00652429  0.50271419  0.50550309  1
  V  V34  1  0.25196716  0.86627098  0.60640334  1
  V  V35  1  0.50463257  0.62399569  0.61955930  1
  V  V36  1  0.63322993  0.88213122  0.73652634  1
  V  V37  1  0.87615680  0.76275847  0.62006703  1
  V  V38  1  -0.00230205  0.87772518  0.86610350  1
  V  V39  1  0.63770278  0.62389880  0.49755064  1
  V  V40  1  0.74465334  0.25313835  0.49915082  1
  V  V41  1  0.11839060  0.34386807  0.75537340  1
  V  V42  1  0.12954063  0.74483007  0.87492166  1
  V  V43  1  0.00268857  0.74241815  0.74184422  1
  V  V44  1  0.75219926  0.76540508  0.49962264  1
  V  V45  1  0.13189263  0.50659229  0.63536507  1
  V  V46  1  0.37555266  -0.02578338  0.37159976  1
  V  V47  1  -0.00760405  0.62407580  0.13726812  1
  V  V48  1  0.23766723  0.12411718  0.86711433  1
  V  V49  1  0.86913679  0.88202384  -0.01261293  1
  V  V50  1  0.87445282  0.61746407  0.73981792  1
  V  V51  1  0.87874881  0.37879308  0.49613339  1
  V  V52  1  0.13120966  0.24386754  0.37282726  1
  V  V53  1  0.01424117  0.77042299  0.25325246  1
  V  V54  1  0.62374644  0.00008340  0.11303831  1
  V  V55  1  0.49400709  0.87884086  0.87160016  1
  V  V56  1  0.87046184  0.50446640  0.35790629  1
  V  V57  1  0.62356601  0.75164029  0.87014046  1
  V  V58  1  0.88487876  0.10071115  0.75117125  1
  V  V59  1  0.37101436  0.74711066  0.61049771  1
  V  V60  1  0.25340568  0.37583382  0.62527459  1
  V  V61  1  0.25313531  0.24265772  0.01641736  1
  V  V62  1  0.13014765  0.01151575  0.61236174  1
  V  V63  1  0.37330730  0.87857691  0.00331851  1
  V  V64  1  0.13085766  0.49262800  0.13331681  1
  V  V65  1  0.73554449  0.13693634  0.86195822  1
  V  V66  1  0.88311078  0.50581310  0.89107035  1
  V  V67  1  0.36301773  -0.00282139  0.85978630  1
  V  V68  1  0.13764581  0.87675730  0.74638741  1
  V  V69  1  0.87155687  0.00755361  0.35645076  1
  Zn  Zn70  1  0.38109684  0.75627512  0.13766720  1
  Zn  Zn71  1  0.00182780  0.37074962  0.87083587  1
  Zn  Zn72  1  0.76348764  0.63825046  0.36173289  1
  Zn  Zn73  1  0.39825024  0.37691520  0.50106206  1
  Zn  Zn74  1  0.25494520  0.24031626  0.50589967  1
  Zn  Zn75  1  0.63803147  0.36521531  0.77500545  1
  Zn  Zn76  1  0.13920636  0.14309345  0.21148356  1
  Zn  Zn77  1  0.19909265  0.18864348  0.68652746  1
  Zn  Zn78  1  0.18415097  0.69144146  0.18700644  1
  Zn  Zn79  1  0.19116376  0.68199066  0.68761195  1
  Zn  Zn80  1  0.56412408  0.18996409  0.19466967  1
  Zn  Zn81  1  0.72729801  0.19277303  0.68356381  1
  Zn  Zn82  1  0.70133598  0.67610118  0.17831650  1
  Zn  Zn83  1  0.69289541  0.69736235  0.68515655  1
  Zn  Zn84  1  0.33290015  0.30676227  0.35928215  1
  Zn  Zn85  1  0.32998217  0.34343557  0.78141256  1
  Zn  Zn86  1  0.31270774  0.80036747  0.31235109  1
  Zn  Zn87  1  0.31358950  0.80006106  0.81181892  1
  Zn  Zn88  1  0.81307402  0.31283370  0.30806480  1
  Zn  Zn89  1  0.82740305  0.30850376  0.82173355  1
  Zn  Zn90  1  0.86185655  0.80540507  0.34140841  1
  Zn  Zn91  1  0.81373476  0.81111379  0.80465204  1
  Zn  Zn92  1  0.19798480  0.44260518  0.43840684  1
  Zn  Zn93  1  0.19782143  0.40173459  0.91748981  1
  Zn  Zn94  1  0.19842318  0.94636307  0.44812334  1
  Zn  Zn95  1  0.18824764  0.92962001  0.93740305  1
  Zn  Zn96  1  0.68919409  0.44278739  0.44311432  1
  Zn  Zn97  1  0.69408759  0.42220411  0.95158303  1
  Zn  Zn98  1  0.69486229  0.94926206  0.43316188  1
  Zn  Zn99  1  0.68428159  0.94476431  0.92242168  1
  Zn  Zn100  1  0.29726476  0.05227235  0.05459641  1
  Zn  Zn101  1  0.31504539  0.05305426  0.55522678  1
  Zn  Zn102  1  0.27506366  0.52193709  0.00545886  1
  Zn  Zn103  1  0.31509664  0.56090913  0.56232969  1
  Zn  Zn104  1  0.81742068  0.07332326  0.05089409  1
  Zn  Zn105  1  0.86131595  0.10174718  0.53870818  1
  Zn  Zn106  1  0.81509929  0.57755756  0.06185591  1
  Zn  Zn107  1  0.81714268  0.56625340  0.55679920  1
  Zn  Zn108  1  0.45392221  0.45272620  0.19555969  1
  Zn  Zn109  1  0.45660141  0.42644706  0.68009329  1
  Zn  Zn110  1  0.44094419  0.93580656  0.19969681  1
  Zn  Zn111  1  0.43532078  0.93415355  0.68281480  1
  Zn  Zn112  1  0.93544265  0.42990073  0.17934350  1
  Zn  Zn113  1  0.94455642  0.44227713  0.68926304  1
  Zn  Zn114  1  0.99549807  0.98133758  0.21288554  1
  Zn  Zn115  1  0.94732371  0.93607669  0.68307210  1
  Zn  Zn116  1  0.05553632  0.07233575  0.35532430  1
  Zn  Zn117  1  0.06306144  0.05869295  0.80368155  1
  Zn  Zn118  1  0.05940478  0.56349486  0.31075632  1
  Zn  Zn119  1  0.05932402  0.56103149  0.81992637  1
  Zn  Zn120  1  0.54593529  0.09034553  0.36627121  1
  Zn  Zn121  1  0.55770549  0.06476105  0.80459885  1
  Zn  Zn122  1  0.59692883  0.57070445  0.30222750  1
  Zn  Zn123  1  0.55626735  0.55851257  0.81015886  1
  Zn  Zn124  1  0.41422983  0.16760613  0.46647514  1
  Zn  Zn125  1  0.39306828  0.22239781  0.89178459  1
  Zn  Zn126  1  0.44455335  0.68655259  0.42877126  1
  Zn  Zn127  1  0.43571185  0.68365298  0.93715937  1
  Zn  Zn128  1  0.94781146  0.19021397  0.43517845  1
  Zn  Zn129  1  0.92732694  0.17593596  0.93488533  1
  Zn  Zn130  1  0.94075557  0.68521124  0.43503774  1
  Zn  Zn131  1  0.93816159  0.69135758  0.93115853  1
  Zn  Zn132  1  0.06413808  0.30577123  0.07083447  1
  Zn  Zn133  1  0.07600759  0.31950711  0.55222602  1
  Zn  Zn134  1  0.05606896  0.81162137  0.06243945  1
  Zn  Zn135  1  0.05760970  0.81646328  0.56052221  1
  Zn  Zn136  1  0.44178853  0.30409840  0.06054672  1
  Zn  Zn137  1  0.56974683  0.31525414  0.57327947  1
  Zn  Zn138  1  0.55936751  0.80850010  0.05496622  1
  Zn  Zn139  1  0.56402295  0.81526713  0.55109532  1
  O  O140  1  0.12204502  0.11139250  0.10157538  1
  O  O141  1  0.14356534  0.10657632  0.63041105  1
  O  O142  1  0.10920067  0.63030335  0.11790814  1
  O  O143  1  0.13136449  0.61708086  0.60886941  1
  O  O144  1  0.61218407  0.10215592  0.11379174  1
  O  O145  1  0.63479300  0.10734282  0.63089809  1
  O  O146  1  0.62104327  0.62280927  0.10989966  1
  O  O147  1  0.62792889  0.62169513  0.62512515  1
  O  O148  1  0.38856793  0.40201315  0.38178855  1
  O  O149  1  0.39621970  0.37447613  0.86567004  1
  O  O150  1  0.36570152  0.87408408  0.37971919  1
  O  O151  1  0.37315503  0.87873749  0.87689853  1
  O  O152  1  0.88490078  0.38514622  0.38233255  1
  O  O153  1  0.85344215  0.40539336  0.88674733  1
  O  O154  1  0.86052476  0.90893320  0.37595285  1
  O  O155  1  0.88612117  0.86339728  0.87793523  1
  O  O156  1  0.26661172  0.00792385  0.38521361  1
  O  O157  1  0.25721174  0.00212446  0.87812752  1
  O  O158  1  0.26732229  0.51680836  0.38112772  1
  O  O159  1  0.23974159  0.49862871  0.90371494  1
  O  O160  1  0.76207096  0.02200863  0.37690596  1
  O  O161  1  0.75044131  0.02296248  0.88385401  1
  O  O162  1  0.77056236  0.49865544  0.38140095  1
  O  O163  1  0.75446383  0.51797461  0.88114809  1
  O  O164  1  0.22866205  0.50231069  0.10912348  1
  O  O165  1  0.23671977  0.49792591  0.62487848  1
  O  O166  1  0.25136280  0.97920903  0.12359968  1
  O  O167  1  0.24093544  0.97558816  0.61410066  1
  O  O168  1  0.74158056  0.51893898  0.12271816  1
  O  O169  1  0.75284031  0.49581339  0.62625618  1
  O  O170  1  0.72716795  1.00741875  0.09283990  1
  O  O171  1  0.66673118  1.04382196  0.61600204  1
  O  O172  1  -0.00247411  0.37951512  0.26398125  1
  O  O173  1  0.01979646  0.38427158  0.74972548  1
  O  O174  1  0.00214217  0.86887237  0.24063349  1
  O  O175  1  0.01364475  0.86135166  0.75037407  1
  O  O176  1  0.52301464  0.37674120  0.24191463  1
  O  O177  1  0.51891520  0.38058404  0.76806974  1
  O  O178  1  0.49722076  0.86673132  0.26874153  1
  O  O179  1  0.49951728  0.86301405  0.75526076  1
  O  O180  1  0.53163819  0.10361034  0.25605763  1
  O  O181  1  0.47466999  0.11138632  0.74509763  1
  O  O182  1  0.52159772  0.62679950  0.23064060  1
  O  O183  1  0.50066972  0.63606297  0.73927507  1
  O  O184  1  1.06225965  0.06400739  0.24711118  1
  O  O185  1  0.98636210  0.11635933  0.74681207  1
  O  O186  1  1.00125906  0.64148228  0.23891275  1
  O  O187  1  0.98664880  0.63585396  0.75946227  1
  O  O188  1  0.36004999  0.24510873  0.00206271  1
  O  O189  1  0.36750166  0.26742888  0.46961900  1
  O  O190  1  0.35843797  0.75162843  -0.00595463  1
  O  O191  1  0.37878079  0.73873454  0.51357733  1
  O  O192  1  0.87814957  0.24184055  0.02682525  1
  O  O193  1  0.87761349  0.26908431  0.51054341  1
  O  O194  1  0.86554128  0.75610249  -0.00564021  1
  O  O195  1  0.87701966  0.74351243  0.51561981  1
  O  O196  1  0.15071682  0.28655812  0.47670523  1
  O  O197  1  0.11572627  0.22699458  0.99788887  1
  O  O198  1  0.11276800  0.73481007  0.50084752  1
  O  O199  1  0.13211037  0.75254267  0.99170153  1
  O  O200  1  0.64528702  0.26582051  0.50758966  1
  O  O201  1  0.51962190  0.24144780  1.10873445  1
  O  O202  1  0.64693414  0.74009684  0.51405280  1
  O  O203  1  0.63103782  0.74443528  0.98730389  1
  O  O204  1  0.38299332  0.38289379  0.12990427  1
  O  O205  1  0.56578898  0.23973060  0.67039656  1
  O  O206  1  0.49750694  0.73402905  0.11306106  1
  O  O207  1  0.48888291  0.74719404  0.63074873  1
  O  O208  1  0.99839108  0.23752758  0.13492712  1
  O  O209  1  0.99620417  0.26506245  0.61264341  1
  O  O210  1  0.98724449  0.75185290  0.13784229  1
  O  O211  1  0.99311514  0.75006347  0.63377200  1
  O  O212  1  0.01576255  0.27180774  0.38921949  1
  O  O213  1  -0.07360418  0.28626704  0.89685986  1
  O  O214  1  -0.02962800  0.75589941  0.34943471  1
  O  O215  1  0.01011986  0.75817131  0.86434167  1
  O  O216  1  0.45777267  0.23823278  0.27726442  1
  O  O217  1  0.50199088  0.26284154  0.88765875  1
  O  O218  1  0.51270756  0.76186301  0.38649484  1
  O  O219  1  0.50629737  0.75381530  0.86565599  1
  O  O220  1  0.26713463  0.12899283  0.48207990  1
  O  O221  1  0.23292193  0.12010250  0.98955196  1
  O  O222  1  0.23753228  0.62402446  0.49437932  1
  O  O223  1  0.22865479  0.63903815  1.00645416  1
  O  O224  1  0.75990648  0.15483369  0.52078988  1
  O  O225  1  0.76393644  0.12541375  0.96679311  1
  O  O226  1  0.74696306  0.63326805  0.49629019  1
  O  O227  1  0.74212749  0.63720112  0.98672948  1
  O  O228  1  0.22540977  0.33941545  0.00687453  1
  O  O229  1  0.27086775  0.39259788  0.52283453  1
  O  O230  1  0.25819842  0.86341538  0.00685855  1
  O  O231  1  0.24114937  0.85841087  0.50890289  1
  O  O232  1  0.77892403  0.37588271  0.01434328  1
  O  O233  1  0.76428190  0.37571310  0.50830632  1
  O  O234  1  0.76114607  0.86697407  -0.02241437  1
  O  O235  1  0.74556501  0.86302538  0.49918562  1
  O  O236  1  0.12301608  0.51256638  0.23197712  1
  O  O237  1  0.11841065  0.51946070  0.73319792  1
  O  O238  1  0.13302659  0.92839071  0.30108796  1
  O  O239  1  0.12512054  0.97875036  0.73702221  1
  O  O240  1  0.62574131  0.48410707  0.22682162  1
  O  O241  1  0.63578304  0.50781945  0.74108794  1
  O  O242  1  0.65092089  0.99007012  0.21094735  1
  O  O243  1  0.61291960  0.97857760  0.75375433  1
  O  O244  1  0.37636102  -0.00769523  0.27101798  1
  O  O245  1  0.36632506  -0.00341384  0.75745325  1
  O  O246  1  0.38954897  0.51937695  0.26385616  1
  O  O247  1  0.39458949  0.51552551  0.73860104  1
  O  O248  1  0.89058254  0.01352648  0.25976003  1
  O  O249  1  0.87657321  0.00149281  0.73983664  1
  O  O250  1  0.87670979  0.49367178  0.25967425  1
  O  O251  1  0.88089534  0.51571243  0.75581002  1
  O  O252  1  0.11705419  0.39068316  0.36836046  1
  O  O253  1  0.11578642  0.34896689  0.86198480  1
  O  O254  1  0.13281169  0.88624988  0.36203585  1
  O  O255  1  0.12198839  0.86487440  0.86045337  1
  O  O256  1  0.63142300  0.38522066  0.36602153  1
  O  O257  1  0.61587454  0.38017517  0.88525761  1
  O  O258  1  0.62276998  0.88032970  0.37453371  1
  O  O259  1  0.61358800  0.86554819  0.87114411  1
  O  O260  1  0.39570084  0.10427123  0.10515469  1
  O  O261  1  0.35381245  0.12591057  0.63823781  1
  O  O262  1  0.39384339  0.61909214  0.14255579  1
  O  O263  1  0.38394027  0.63387515  0.63052696  1
  O  O264  1  0.87570038  0.12882057  0.12809173  1
  O  O265  1  0.87214449  0.15495758  0.64515296  1
  O  O266  1  0.88557111  0.64669149  0.12024404  1
  O  O267  1  0.87605210  0.62711204  0.63818407  1
  O  O268  1  0.24278145  0.22114609  0.11084687  1
  O  O269  1  0.24127251  0.27117727  0.61973871  1
  O  O270  1  0.25364818  0.75435419  0.11152550  1
  O  O271  1  0.26263277  0.75241941  0.62622179  1
  O  O272  1  0.74702658  0.25078853  0.12051222  1
  O  O273  1  0.76707945  0.27585263  0.61652330  1
  O  O274  1  0.76008334  0.74242812  0.10577832  1
  O  O275  1  0.76861147  0.74784485  0.61587699  1
  O  O276  1  0.24436529  0.23685397  0.36602801  1
  O  O277  1  0.25605902  0.22231780  0.88776119  1
  O  O278  1  0.25415202  0.72196699  0.37044441  1
  O  O279  1  0.23809475  0.75243785  0.88674404  1
  O  O280  1  0.76467364  0.24885945  0.39407938  1
  O  O281  1  0.74666606  0.24026050  0.85640267  1
  O  O282  1  0.77546501  0.74970190  0.39655070  1
  O  O283  1  0.74066536  0.74269011  0.87591174  1
  O  O284  1  0.00572510  0.10366947  -0.01893466  1
  O  O285  1  -0.01857446  0.10848338  0.51139864  1
  O  O286  1  0.00629451  0.64777678  0.01501122  1
  O  O287  1  0.01408793  0.61201970  0.48912973  1
  O  O288  1  0.44718812  0.12751201  0.05677696  1
  O  O289  1  0.50392345  0.10497869  0.47441098  1
  O  O290  1  0.51088722  0.62118825  0.00203110  1
  O  O291  1  0.51909785  0.64041026  0.51673810  1
  O  O292  1  0.47657338  0.37014603  0.57927841  1
  O  O293  1  0.49126864  0.39134052  0.99393874  1
  O  O294  1  0.50131626  0.88190797  0.48570235  1
  O  O295  1  0.47983042  0.85784079  0.98323227  1
  O  O296  1  0.99809182  0.39210503  0.49135938  1
  O  O297  1  0.97347883  0.37505425  1.01331476  1
  O  O298  1  1.00763293  0.89455230  0.50045342  1
  O  O299  1  0.99194570  0.87780603  0.98547060  1
  O  O300  1  0.50116474  0.52164110  0.37130569  1
  O  O301  1  0.50401846  0.50400893  0.89301458  1
  O  O302  1  0.48912941  0.97890940  0.38026920  1
  O  O303  1  0.48216193  0.98441925  0.86861260  1
  O  O304  1  0.99332865  0.49361933  0.38058016  1
  O  O305  1  0.98610936  0.49205689  0.87521119  1
  O  O306  1  0.97801618  1.00537581  0.39826398  1
  O  O307  1  1.00570894  0.98017255  0.87206230  1
  O  O308  1  -0.00271605  -0.01195582  0.09820618  1
  O  O309  1  0.02303138  -0.00561268  0.61991027  1
  O  O310  1  -0.00752374  0.52256161  0.13218918  1
  O  O311  1  0.01209231  0.49994217  0.61105640  1
  O  O312  1  0.52189651  -0.00910368  0.13202458  1
  O  O313  1  0.48985950  -0.00628910  0.60606005  1
  O  O314  1  0.51696509  0.51178112  0.10966821  1
  O  O315  1  0.52557224  0.51483717  0.63065821  1
  O  O316  1  0.29314459  0.38272291  0.23315134  1
  O  O317  1  0.22197446  0.37045029  0.74733883  1
  O  O318  1  0.25871699  0.85568729  0.22744680  1
  O  O319  1  0.23893085  0.86346464  0.74707394  1
  O  O320  1  0.73923631  0.36713672  0.23212675  1
  O  O321  1  0.75291330  0.37460663  0.73853480  1
  O  O322  1  0.70491855  0.82983244  0.25696150  1
  O  O323  1  0.73245679  0.86880244  0.75400520  1
  O  O324  1  0.23320718  0.11374106  0.27331651  1
  O  O325  1  0.25567929  0.12228957  0.76369727  1
  O  O326  1  0.25582758  0.62067906  0.25024947  1
  O  O327  1  0.26732493  0.62113055  0.74450134  1
  O  O328  1  0.75234636  0.14157983  0.26701126  1
  O  O329  1  0.76528592  0.11827455  0.75410064  1
  O  O330  1  0.70048540  0.62333897  0.27212631  1
  O  O331  1  0.76583578  0.63638567  0.75647450  1
  O  O332  1  0.37021079  0.12345598  0.35892100  1
  O  O333  1  0.36555945  0.10373744  0.87117771  1
  O  O334  1  0.37103792  0.62108315  0.36643972  1
  O  O335  1  0.38246285  0.62633860  0.85718897  1
  O  O336  1  0.86503877  0.11946877  0.39350184  1
  O  O337  1  0.87169264  0.12506209  0.85195401  1
  O  O338  1  0.87891607  0.60826145  0.37442243  1
  O  O339  1  0.86980660  0.62092535  0.86632044  1
  O  O340  1  0.10517387  0.39656645  0.12097747  1
  O  O341  1  0.13268535  0.39093483  0.63342123  1
  O  O342  1  0.13449849  0.86932423  0.12050348  1
  O  O343  1  0.13870176  0.86267816  0.63442573  1
  O  O344  1  0.65248023  0.39245193  0.10472572  1
  O  O345  1  0.64603165  0.39596360  0.62536334  1
  O  O346  1  0.62337140  0.89358664  0.10160514  1
  O  O347  1  0.61835625  0.86534059  0.63918025  1
  O  O348  1  0.12030341  0.24244531  0.27258894  1
  O  O349  1  0.11322019  0.24734123  0.73643833  1
  O  O350  1  0.11278158  0.75271740  0.25447388  1
  O  O351  1  0.12118415  0.74799593  0.75562420  1
  O  O352  1  0.62492598  0.26212162  0.25793770  1
  O  O353  1  0.62559039  0.25019594  0.72004800  1
  O  O354  1  0.65068338  0.78501595  0.23713082  1
  O  O355  1  0.61620630  0.75490709  0.75628129  1
  O  O356  1  0.38835492  0.25341586  0.25615519  1
  O  O357  1  0.37159166  0.23110399  0.76819912  1
  O  O358  1  0.37796835  0.72567232  0.24948803  1
  O  O359  1  0.38379507  0.73985741  0.74286253  1
  O  O360  1  0.87976250  0.24503584  0.24559903  1
  O  O361  1  0.89216400  0.27960222  0.73245946  1
  O  O362  1  0.85843986  0.77012922  0.22872699  1
  O  O363  1  0.88338358  0.74265444  0.73934278  1
  O  O364  1  0.39101928  0.51497422  0.49031964  1
  O  O365  1  0.38932114  0.51713771  1.00834106  1
  O  O366  1  0.38723193  1.00105111  0.48393204  1
  O  O367  1  0.36838090  0.97985120  0.98805355  1
  O  O368  1  0.89138541  0.49652275  0.49960369  1
  O  O369  1  0.88028838  0.51998097  0.98924801  1
  O  O370  1  0.88193026  0.98849119  0.53003592  1
  O  O371  1  0.88119014  0.98421313  0.99392282  1
  O  O372  1  0.11141441  -0.00204263  -0.01148628  1
  O  O373  1  0.12297844  0.00558190  0.50933536  1
  O  O374  1  0.10547772  0.52205950  0.01224410  1
  O  O375  1  0.11767102  0.50286463  0.50762212  1
  O  O376  1  0.61288183  -0.00219209  0.00549495  1
  O  O377  1  0.60854444  -0.00551362  0.49420456  1
  O  O378  1  0.62923938  0.51326400  0.00352224  1
  O  O379  1  0.63899891  0.51818706  0.51760296  1
  O  O380  1  0.30638372  0.35893666  0.16421429  1
  O  O381  1  0.34595946  0.38196638  0.66767225  1
  O  O382  1  0.38190114  0.87286286  0.10943970  1
  O  O383  1  0.36116742  0.85921399  0.62714090  1
  O  O384  1  0.86806919  0.35108560  0.12870089  1
  O  O385  1  0.87287610  0.38199741  0.61779710  1
  O  O386  1  0.87388595  0.86076183  0.09521853  1
  O  O387  1  0.87966534  0.86008794  0.62975732  1
  O  O388  1  0.12491703  0.14590556  0.40055124  1
  O  O389  1  0.13445723  0.11378555  0.87390211  1
  O  O390  1  0.13430888  0.61512089  0.38680238  1
  O  O391  1  0.11002006  0.63543639  0.89168964  1
  O  O392  1  0.65064581  0.13080217  0.38665486  1
  O  O393  1  0.63465903  0.12862509  0.85364543  1
  O  O394  1  0.62043677  0.62518795  0.40119119  1
  O  O395  1  0.62888673  0.63438219  0.87566587  1
