# generated using pymatgen
data_V35Zn35O128
_symmetry_space_group_name_H-M   'P 1'
_cell_length_a   16.80751629
_cell_length_b   16.85249261
_cell_length_c   16.83928002
_cell_angle_alpha   90.04055091
_cell_angle_beta   90.14824040
_cell_angle_gamma   90.07610591
_symmetry_Int_Tables_number   1
_chemical_formula_structural   V35Zn35O128
_chemical_formula_sum   'V70 Zn70 O256'
_cell_volume   4769.68017127
_cell_formula_units_Z   2
loop_
 _symmetry_equiv_pos_site_id
 _symmetry_equiv_pos_as_xyz
  1  'x, y, z'
loop_
 _atom_site_type_symbol
 _atom_site_label
 _atom_site_symmetry_multiplicity
 _atom_site_fract_x
 _atom_site_fract_y
 _atom_site_fract_z
 _atom_site_occupancy
  V  V0  1  0.62904046  0.14820011  0.51415915  1
  V  V1  1  0.13532087  0.74873952  0.88586455  1
  V  V2  1  0.24637773  0.12649703  0.38834311  1
  V  V3  1  0.50631344  0.25373641  0.25597689  1
  V  V4  1  0.63173345  -0.00013015  0.11391009  1
  V  V5  1  0.13505896  0.88282282  0.25174541  1
  V  V6  1  0.50468316  0.24996996  0.74735009  1
  V  V7  1  0.63318952  0.13650968  -0.00912257  1
  V  V8  1  0.11797810  0.00919043  0.10694842  1
  V  V9  1  0.23370827  0.23906421  0.00277252  1
  V  V10  1  0.62162280  0.88324984  0.25374120  1
  V  V11  1  0.37886447  0.11910426  0.73416679  1
  V  V12  1  0.62631657  0.75271945  0.37320060  1
  V  V13  1  0.74917187  0.87259345  0.12153161  1
  V  V14  1  0.75045944  0.00656253  0.74509631  1
  V  V15  1  0.51125194  0.00567506  0.51238709  1
  V  V16  1  0.01243102  0.62013803  0.11451507  1
  V  V17  1  0.38103856  0.86699965  0.49547721  1
  V  V18  1  0.25467817  0.86569861  0.11532312  1
  V  V19  1  0.63787686  0.61903487  0.00538680  1
  V  V20  1  0.49756393  0.49390615  0.49599975  1
  V  V21  1  -0.00490873  0.87490703  0.88108306  1
  V  V22  1  0.25303203  0.36818616  0.64000414  1
  V  V23  1  0.73616867  0.13122648  0.36889220  1
  V  V24  1  0.48851184  0.10928778  0.11485700  1
  V  V25  1  0.11698929  0.24260637  0.84818673  1
  V  V26  1  -0.00899663  0.49318245  0.49102393  1
  V  V27  1  0.49986925  0.88748032  0.87601079  1
  V  V28  1  0.38276104  0.87710296  -0.00175861  1
  V  V29  1  0.12145383  0.00186929  0.62063968  1
  V  V30  1  0.13305983  0.87753288  0.75077326  1
  V  V31  1  -0.00517065  0.25617251  0.24194552  1
  V  V32  1  0.88774490  0.40643609  0.00313290  1
  V  V33  1  0.12971962  0.49575039  0.63950515  1
  V  V34  1  0.36600248  0.36470722  0.50290378  1
  V  V35  1  -0.00439053  0.74312469  0.73567326  1
  V  V36  1  0.48873277  0.61717194  0.11371164  1
  V  V37  1  0.12890410  0.61983624  0.50714845  1
  V  V38  1  0.37038294  0.60729549  0.75285556  1
  V  V39  1  0.12206020  0.25934205  0.38280330  1
  V  V40  1  0.63124323  0.62670303  0.49897276  1
  V  V41  1  0.87555995  0.11779917  0.24369320  1
  V  V42  1  0.37497712  0.49577242  0.36290205  1
  V  V43  1  -0.00259802  0.75704087  0.26246646  1
  V  V44  1  0.00848972  0.39018935  0.86996733  1
  V  V45  1  0.67550108  0.42923370  0.18412712  1
  V  V46  1  0.13481313  0.75177842  0.38205234  1
  V  V47  1  0.63165698  0.75102191  0.88838250  1
  V  V48  1  0.75592841  0.61476959  0.37172188  1
  V  V49  1  0.83959421  0.60254996  0.76056571  1
  V  V50  1  0.36741635  0.38026477  -0.01272135  1
  V  V51  1  -0.02819491  0.14554781  0.62781734  1
  V  V52  1  0.36552397  0.11759600  0.24874722  1
  V  V53  1  0.75827925  0.86149829  0.61917204  1
  V  V54  1  0.87227361  0.74996951  0.11783447  1
  V  V55  1  0.51537321  0.37844407  0.87985580  1
  V  V56  1  0.25682146  0.11182646  0.87000559  1
  V  V57  1  0.25616344  0.61894166  0.36325579  1
  V  V58  1  0.87578616  0.01542088  0.87163832  1
  V  V59  1  0.25291124  0.61765820  0.88112145  1
  V  V60  1  0.87677118  0.61181158  0.25550448  1
  V  V61  1  0.25402828  0.87529815  0.62274546  1
  V  V62  1  0.37932051  -0.00109582  0.37456796  1
  V  V63  1  0.37698918  0.75034309  0.63581771  1
  V  V64  1  0.62242250  0.86897559  0.74302637  1
  V  V65  1  0.36833696  0.25844567  0.12240518  1
  V  V66  1  0.13828383  0.38333118  0.23986354  1
  V  V67  1  0.49203582  0.74151933  0.24205367  1
  V  V68  1  0.63525137  0.49141776  0.63422250  1
  V  V69  1  0.50038945  0.62783007  0.63104584  1
  Zn  Zn70  1  -0.00528517  -0.00424138  0.49398430  1
  Zn  Zn71  1  0.87776692  0.88531866  0.00449008  1
  Zn  Zn72  1  0.84251848  0.26142444  0.10063313  1
  Zn  Zn73  1  0.11895433  0.13189047  0.50620663  1
  Zn  Zn74  1  0.86963114  -0.00141930  0.37487408  1
  Zn  Zn75  1  0.87847463  0.86681927  0.49327847  1
  Zn  Zn76  1  0.18262701  0.18820065  0.19366291  1
  Zn  Zn77  1  0.19872792  0.18590536  0.68464693  1
  Zn  Zn78  1  0.19003719  0.68970552  0.19057865  1
  Zn  Zn79  1  0.19092430  0.69212298  0.68985128  1
  Zn  Zn80  1  0.68656025  0.18877362  0.17292662  1
  Zn  Zn81  1  0.70278831  0.20285453  0.70640204  1
  Zn  Zn82  1  0.68436419  0.68380862  0.18724319  1
  Zn  Zn83  1  0.68851342  0.68485813  0.69572368  1
  Zn  Zn84  1  0.31412676  0.31012076  0.31431401  1
  Zn  Zn85  1  0.31547384  0.29763800  0.81379820  1
  Zn  Zn86  1  0.31083673  0.81221434  0.31244105  1
  Zn  Zn87  1  0.31764892  0.81486454  0.81527965  1
  Zn  Zn88  1  0.77697899  0.27987223  0.27535441  1
  Zn  Zn89  1  0.80870695  0.29362737  0.90759752  1
  Zn  Zn90  1  0.80481574  0.81019652  0.31117193  1
  Zn  Zn91  1  0.81069294  0.80898677  0.80778073  1
  Zn  Zn92  1  0.18904717  0.43939984  0.43814378  1
  Zn  Zn93  1  0.20061823  0.42039519  0.91930808  1
  Zn  Zn94  1  0.19473360  0.93903645  0.43893370  1
  Zn  Zn95  1  0.18888967  0.93795411  0.94169081  1
  Zn  Zn96  1  0.69610296  0.43526031  0.44157299  1
  Zn  Zn97  1  0.67338938  0.41396245  0.99623611  1
  Zn  Zn98  1  0.69898244  0.94438370  0.43486354  1
  Zn  Zn99  1  0.69157646  0.94059149  0.93305108  1
  Zn  Zn100  1  0.29761122  0.04981003  0.05913492  1
  Zn  Zn101  1  0.31306678  0.05633041  0.56310393  1
  Zn  Zn102  1  0.31889417  0.57457092  0.05690049  1
  Zn  Zn103  1  0.30781975  0.56117488  0.56017485  1
  Zn  Zn104  1  0.82487653  0.07331255  0.05469114  1
  Zn  Zn105  1  0.80426366  0.05912704  0.55948508  1
  Zn  Zn106  1  0.80654484  0.55990750  0.07502231  1
  Zn  Zn107  1  0.81946211  0.57779044  0.57623170  1
  Zn  Zn108  1  0.44786417  0.43745579  0.18189668  1
  Zn  Zn109  1  0.44444682  0.42946231  0.68911818  1
  Zn  Zn110  1  0.43807648  0.93025736  0.18977430  1
  Zn  Zn111  1  0.44030757  0.94142414  0.68979881  1
  Zn  Zn112  1  0.95098882  0.43403539  0.18582934  1
  Zn  Zn113  1  0.94541029  0.44836055  0.69100647  1
  Zn  Zn114  1  0.94252254  0.93594799  0.19174904  1
  Zn  Zn115  1  0.93679049  0.93066064  0.68943063  1
  Zn  Zn116  1  0.05533117  0.06592508  0.31159294  1
  Zn  Zn117  1  0.05906916  0.06392278  0.80548956  1
  Zn  Zn118  1  0.06190263  0.56127959  0.31300400  1
  Zn  Zn119  1  0.06400146  0.56847624  0.81497527  1
  Zn  Zn120  1  0.55536697  0.06782183  0.31115530  1
  Zn  Zn121  1  0.56589417  0.06473983  0.80623005  1
  Zn  Zn122  1  0.56162289  0.56189314  0.30714485  1
  Zn  Zn123  1  0.56803609  0.56086640  0.82161802  1
  Zn  Zn124  1  0.44540248  0.18465665  0.44172228  1
  Zn  Zn125  1  0.43837687  0.18877886  0.93180856  1
  Zn  Zn126  1  0.44334765  0.68297322  0.43300608  1
  Zn  Zn127  1  0.44123906  0.69885351  0.93328045  1
  Zn  Zn128  1  0.93854956  0.17993187  0.43246938  1
  Zn  Zn129  1  0.95224012  0.18412350  0.94503091  1
  Zn  Zn130  1  0.94236180  0.68459763  0.44727297  1
  Zn  Zn131  1  0.93874486  0.68209147  0.92929567  1
  Zn  Zn132  1  0.05788626  0.31717899  0.06504109  1
  Zn  Zn133  1  0.06011910  0.31937047  0.56756733  1
  Zn  Zn134  1  0.06248097  0.80880906  0.06851599  1
  Zn  Zn135  1  0.05910444  0.81538737  0.55808611  1
  Zn  Zn136  1  0.54754342  0.30734029  0.06390207  1
  Zn  Zn137  1  0.56124464  0.31285412  0.56785846  1
  Zn  Zn138  1  0.55726619  0.80925330  0.06060947  1
  Zn  Zn139  1  0.56139711  0.81310089  0.55805043  1
  O  O140  1  0.13164799  0.10564781  0.13567631  1
  O  O141  1  0.13604065  0.10652509  0.62559626  1
  O  O142  1  0.11135870  0.63917451  0.12769188  1
  O  O143  1  0.14173328  0.61636357  0.61273046  1
  O  O144  1  0.61185922  0.11072384  0.12275386  1
  O  O145  1  0.64243499  0.14664375  0.61312515  1
  O  O146  1  0.61507575  0.63210513  0.11195090  1
  O  O147  1  0.61717392  0.62404403  0.61583242  1
  O  O148  1  0.36949392  0.38902739  0.38648464  1
  O  O149  1  0.36441570  0.37671009  0.88523505  1
  O  O150  1  0.36766760  0.88711220  0.38624437  1
  O  O151  1  0.39041893  0.87633470  0.87867156  1
  O  O152  1  0.83612581  0.33084646  0.45382733  1
  O  O153  1  0.89985221  0.37963062  0.89025404  1
  O  O154  1  0.84813783  0.88394942  0.38134077  1
  O  O155  1  0.88985296  0.86767298  0.87974036  1
  O  O156  1  0.26485523  0.01311467  0.38132581  1
  O  O157  1  0.24114123  0.01304270  0.87334609  1
  O  O158  1  0.26261911  0.50810460  0.37541138  1
  O  O159  1  0.23962077  0.51751158  0.87798859  1
  O  O160  1  0.75270995  0.01838536  0.36988723  1
  O  O161  1  0.76709310  -0.00711456  0.86477948  1
  O  O162  1  0.75162047  0.51562471  0.37547328  1
  O  O163  1  0.75338619  0.41619366  0.80845204  1
  O  O164  1  0.20614336  0.51113157  0.09156296  1
  O  O165  1  0.23978333  0.48946249  0.61897787  1
  O  O166  1  0.23032955  0.98052998  0.12412577  1
  O  O167  1  0.24138660  0.98432735  0.62251029  1
  O  O168  1  0.75027589  0.48344891  0.14360892  1
  O  O169  1  0.73311801  0.50917932  0.61488449  1
  O  O170  1  0.73449449  0.99467310  0.12789019  1
  O  O171  1  0.75251401  0.98757429  0.64048275  1
  O  O172  1  0.01104894  0.36221199  0.25389708  1
  O  O173  1  0.00047458  0.38170543  0.76912054  1
  O  O174  1  0.01170115  0.86125203  0.25308957  1
  O  O175  1  0.01577199  0.86762687  0.75649700  1
  O  O176  1  0.49941969  0.35383529  0.23597608  1
  O  O177  1  0.49868715  0.36492817  0.76656035  1
  O  O178  1  0.51480418  0.86112596  0.24430392  1
  O  O179  1  0.51277514  0.88282605  0.76043965  1
  O  O180  1  0.48361896  0.12733538  0.23784845  1
  O  O181  1  0.48949725  0.13292758  0.75449476  1
  O  O182  1  0.50602137  0.63427751  0.23460830  1
  O  O183  1  0.48832652  0.61960864  0.73800590  1
  O  O184  1  0.98422300  0.13577059  0.25137744  1
  O  O185  1  0.99903352  0.11491962  0.72180760  1
  O  O186  1  0.99043136  0.63554533  0.24751746  1
  O  O187  1  1.00434418  0.64264924  0.75539872  1
  O  O188  1  0.36792492  0.25127806  0.01187125  1
  O  O189  1  0.38416404  0.26684396  0.49475453  1
  O  O190  1  0.37417783  0.77330106  -0.00723854  1
  O  O191  1  0.38490806  0.76397525  0.49913963  1
  O  O192  1  0.86374402  0.23863948  -0.00999949  1
  O  O193  1  0.87078842  0.27380651  0.49366105  1
  O  O194  1  0.88087230  0.75247861  0.01762814  1
  O  O195  1  0.86840716  0.75419344  0.48909449  1
  O  O196  1  0.12142940  0.25040330  0.48719859  1
  O  O197  1  0.13444662  0.24318845  1.01215403  1
  O  O198  1  0.12393573  0.74091228  0.48723629  1
  O  O199  1  0.12520384  0.75763429  0.98465307  1
  O  O200  1  0.61709580  0.24645567  0.49360655  1
  O  O201  1  0.61992939  0.23522998  1.01190550  1
  O  O202  1  0.61464081  0.74081722  0.48282247  1
  O  O203  1  0.62932857  0.74973892  0.99448383  1
  O  O204  1  0.48044881  0.23210233  0.12878672  1
  O  O205  1  0.49437319  0.26545107  0.64597924  1
  O  O206  1  0.50020696  0.74638630  0.13675426  1
  O  O207  1  0.49020192  0.73710931  0.61501468  1
  O  O208  1  1.00142604  0.24817000  0.14111361  1
  O  O209  1  0.99478202  0.24467276  0.62311646  1
  O  O210  1  0.98920446  0.74635213  0.13893650  1
  O  O211  1  1.01326899  0.74935053  0.63605117  1
  O  O212  1  0.01808423  0.23976324  0.36802360  1
  O  O213  1  0.01520065  0.24476757  0.86953548  1
  O  O214  1  0.01481142  0.74154108  0.36632156  1
  O  O215  1  0.01575575  0.76118636  0.86674242  1
  O  O216  1  0.48882227  0.24403294  0.35514299  1
  O  O217  1  0.49203989  0.26481876  0.86816879  1
  O  O218  1  0.51682639  0.73564842  0.35982863  1
  O  O219  1  0.51587961  0.77046259  0.87892069  1
  O  O220  1  0.24930527  0.12551676  0.49102219  1
  O  O221  1  0.25201258  0.13258711  0.98798166  1
  O  O222  1  0.23783251  0.62051852  0.48548233  1
  O  O223  1  0.26294503  0.63510927  0.97951535  1
  O  O224  1  0.73268529  0.12188637  0.48835361  1
  O  O225  1  0.73265848  0.12488246  1.00921639  1
  O  O226  1  0.73999362  0.62465279  0.48780752  1
  O  O227  1  0.73901634  0.62920509  1.01350963  1
  O  O228  1  0.25624157  0.35008715  -0.00354604  1
  O  O229  1  0.26296598  0.37568160  0.50199156  1
  O  O230  1  0.25240575  0.86910411  0.00974267  1
  O  O231  1  0.26978142  0.87898629  0.50873565  1
  O  O232  1  0.78122746  0.38021378  -0.01441269  1
  O  O233  1  0.77946436  0.36788453  0.49664382  1
  O  O234  1  0.75222336  0.88032593  0.01732052  1
  O  O235  1  0.73497996  0.87782025  0.52012538  1
  O  O236  1  0.12308010  0.48289664  0.25898486  1
  O  O237  1  0.12911440  0.50860917  0.73787153  1
  O  O238  1  0.12039727  0.98173569  0.26066117  1
  O  O239  1  0.12371615  0.98356149  0.73878095  1
  O  O240  1  0.61477705  0.49339575  0.23189019  1
  O  O241  1  0.61662456  0.50559923  0.73240251  1
  O  O242  1  0.61366655  0.98631158  0.24509563  1
  O  O243  1  0.64061656  0.98478657  0.76170293  1
  O  O244  1  0.38225913  0.00140090  0.26608244  1
  O  O245  1  0.38101492  0.01695460  0.74936732  1
  O  O246  1  0.38451115  0.49222610  0.26449396  1
  O  O247  1  0.37484795  0.50904284  0.74515840  1
  O  O248  1  0.87659203  0.01503391  0.24258297  1
  O  O249  1  0.86451139  -0.01179310  0.76059973  1
  O  O250  1  0.88388903  0.51393143  0.24846946  1
  O  O251  1  0.87009418  0.50415054  0.75527586  1
  O  O252  1  0.13324965  0.36134478  0.37103150  1
  O  O253  1  0.11867581  0.35230023  0.88162520  1
  O  O254  1  0.14108801  0.85986622  0.36881933  1
  O  O255  1  0.12461445  0.87122640  0.86453360  1
  O  O256  1  0.64953832  0.38115120  0.34670338  1
  O  O257  1  0.61332193  0.37021855  0.90258025  1
  O  O258  1  0.63185460  0.86394874  0.36356436  1
  O  O259  1  0.61870914  0.87117956  0.87391213  1
  O  O260  1  0.37852566  0.11286760  0.12789062  1
  O  O261  1  0.36796268  0.12676117  0.63344134  1
  O  O262  1  0.38683276  0.63109926  0.12345551  1
  O  O263  1  0.37736501  0.63054076  0.63203570  1
  O  O264  1  0.85989461  0.14113752  0.14049335  1
  O  O265  1  0.87102747  0.13447839  0.61926217  1
  O  O266  1  0.87705444  0.63749593  0.13978274  1
  O  O267  1  0.85848153  0.63840208  0.66384127  1
  O  O268  1  0.26116151  0.23408783  0.11568805  1
  O  O269  1  0.24441625  0.26872862  0.62067381  1
  O  O270  1  0.24789742  0.76558530  0.13036607  1
  O  O271  1  0.26313262  0.76172594  0.62426220  1
  O  O272  1  0.74863575  0.28525458  0.16335150  1
  O  O273  1  0.76925274  0.27841099  0.63769908  1
  O  O274  1  0.76564086  0.75539819  0.13440200  1
  O  O275  1  0.74182053  0.76172149  0.63014502  1
  O  O276  1  0.24117487  0.23417679  0.37095789  1
  O  O277  1  0.23507783  0.23982592  0.88505058  1
  O  O278  1  0.24288913  0.73686873  0.37189144  1
  O  O279  1  0.23984988  0.74968475  0.86911847  1
  O  O280  1  0.74994914  0.23382040  0.37610706  1
  O  O281  1  0.75526955  0.27815920  0.80731880  1
  O  O282  1  0.73178296  0.73634807  0.36705312  1
  O  O283  1  0.73270272  0.76255172  0.87611648  1
  O  O284  1  0.00316648  0.12083962  0.02179351  1
  O  O285  1  -0.00007427  0.12023327  0.51804608  1
  O  O286  1  -0.00379844  0.63544950  0.01519099  1
  O  O287  1  0.02211379  0.62035189  0.49757817  1
  O  O288  1  0.50123859  0.12395629  0.01351524  1
  O  O289  1  0.51734363  0.11725377  0.50059065  1
  O  O290  1  0.50415249  0.63619423  0.00981847  1
  O  O291  1  0.50787681  0.61589823  0.50715025  1
  O  O292  1  0.49173262  0.39021925  0.50327790  1
  O  O293  1  0.47709406  0.36686831  0.99053868  1
  O  O294  1  0.48823615  0.88698180  0.50204834  1
  O  O295  1  0.49214913  0.88132354  0.99532258  1
  O  O296  1  0.99989251  0.39173614  0.50153634  1
  O  O297  1  0.99644665  0.37625686  0.99247205  1
  O  O298  1  0.99556779  0.87763438  0.49311416  1
  O  O299  1  1.00432612  0.87128465  0.98443207  1
  O  O300  1  0.48916948  0.51050746  0.38633495  1
  O  O301  1  0.50220919  0.48006326  0.87079950  1
  O  O302  1  0.48466843  1.00845788  0.38598525  1
  O  O303  1  0.51023384  0.98689799  0.87748887  1
  O  O304  1  0.99669160  0.50652542  0.38981842  1
  O  O305  1  1.02912534  0.48856336  0.88549159  1
  O  O306  1  0.98696284  1.00814177  0.37920785  1
  O  O307  1  0.99002723  0.98420905  0.86237957  1
  O  O308  1  0.01939059  -0.01435216  0.12773307  1
  O  O309  1  0.01617844  -0.00796652  0.62280688  1
  O  O310  1  0.00240364  0.52099201  0.13074229  1
  O  O311  1  0.02293763  0.49626252  0.61728552  1
  O  O312  1  0.50639127  0.00610880  0.12831567  1
  O  O313  1  0.50040989  0.00175054  0.61188375  1
  O  O314  1  0.49424869  0.51575346  0.11749997  1
  O  O315  1  0.50558628  0.50844277  0.61249953  1
  O  O316  1  0.23956045  0.36878333  0.25115807  1
  O  O317  1  0.26328804  0.37217234  0.73991601  1
  O  O318  1  0.24061194  0.87344608  0.24392995  1
  O  O319  1  0.24067437  0.87073747  0.74274563  1
  O  O320  1  0.70435098  0.37883223  0.28552803  1
  O  O321  1  0.72087232  0.35623557  0.78029325  1
  O  O322  1  0.73061083  0.86923806  0.23608042  1
  O  O323  1  0.73931355  0.87686627  0.74013278  1
  O  O324  1  0.26189564  0.12334357  0.25838546  1
  O  O325  1  0.26474943  0.13006575  0.76074802  1
  O  O326  1  0.24814316  0.62241069  0.26295071  1
  O  O327  1  0.26535495  0.62869283  0.75451512  1
  O  O328  1  0.75847427  0.13403881  0.25685147  1
  O  O329  1  0.74741637  0.10624557  0.74875240  1
  O  O330  1  0.76360513  0.62723895  0.25822514  1
  O  O331  1  0.73591107  0.61074494  0.76643607  1
  O  O332  1  0.36691129  0.11824173  0.37154018  1
  O  O333  1  0.36070382  0.12364957  0.87616886  1
  O  O334  1  0.36444191  0.61487879  0.37982821  1
  O  O335  1  0.37013806  0.63153304  0.85999858  1
  O  O336  1  0.86420278  0.12433527  0.36207823  1
  O  O337  1  0.88697842  0.11325958  0.86706555  1
  O  O338  1  0.86637596  0.63026492  0.36579550  1
  O  O339  1  0.87069818  0.64368157  0.85188052  1
  O  O340  1  0.12495881  0.37220228  0.13952279  1
  O  O341  1  0.13924649  0.38596631  0.62479968  1
  O  O342  1  0.13120346  0.87458469  0.13836784  1
  O  O343  1  0.13473230  0.87738472  0.63123460  1
  O  O344  1  0.62275101  0.38708594  0.10289594  1
  O  O345  1  0.62682448  0.39148893  0.61838825  1
  O  O346  1  0.62642009  0.88463427  0.12868195  1
  O  O347  1  0.62152143  0.86997240  0.63968532  1
  O  O348  1  0.11777409  0.25559740  0.25970831  1
  O  O349  1  0.12611217  0.25153551  0.74981303  1
  O  O350  1  0.11717585  0.75646439  0.26139554  1
  O  O351  1  0.12148839  0.76170946  0.75441240  1
  O  O352  1  0.60372439  0.23283041  0.24190821  1
  O  O353  1  0.60568885  0.23711431  0.75552545  1
  O  O354  1  0.61789578  0.75577566  0.25610204  1
  O  O355  1  0.62490707  0.76436614  0.76235746  1
  O  O356  1  0.37407607  0.23919933  0.23600407  1
  O  O357  1  0.38496979  0.23245519  0.75504869  1
  O  O358  1  0.39394310  0.75568193  0.26129755  1
  O  O359  1  0.37954185  0.74971748  0.73786816  1
  O  O360  1  0.89041462  0.25249166  0.25900959  1
  O  O361  1  0.83665569  0.30759538  0.66871241  1
  O  O362  1  0.88760055  0.74906880  0.25092447  1
  O  O363  1  0.89698681  0.76763365  0.74741355  1
  O  O364  1  0.38628870  0.49755794  0.49496353  1
  O  O365  1  0.35392886  0.47654916  1.01159316  1
  O  O366  1  0.38588906  0.99545115  0.49343639  1
  O  O367  1  0.36197042  0.97955514  0.99612446  1
  O  O368  1  0.89393805  0.51760296  0.51527537  1
  O  O369  1  0.88353789  0.50636858  1.00813837  1
  O  O370  1  0.87325917  0.98974420  0.49939460  1
  O  O371  1  0.87388626  1.00065946  0.98152793  1
  O  O372  1  0.12124885  0.00300611  0.00534726  1
  O  O373  1  0.12507094  -0.00318596  0.51171905  1
  O  O374  1  0.15862649  0.49619704  0.03654331  1
  O  O375  1  0.11993572  0.50965539  0.49998591  1
  O  O376  1  0.62495722  0.00431372  0.01155757  1
  O  O377  1  0.61099777  -0.00367544  0.49496495  1
  O  O378  1  0.62878653  0.52012137  -0.00942045  1
  O  O379  1  0.61474792  0.50585237  0.49893187  1
  O  O380  1  0.37436955  0.35957593  0.12075149  1
  O  O381  1  0.36543161  0.38434126  0.61239968  1
  O  O382  1  0.36387583  0.88016983  0.11728678  1
  O  O383  1  0.37508589  0.86915407  0.61805414  1
  O  O384  1  0.89022288  0.37418799  0.10568185  1
  O  O385  1  0.86003343  0.37372742  0.63460252  1
  O  O386  1  0.87001079  0.86570011  0.12891509  1
  O  O387  1  0.86236415  0.87230845  0.62037693  1
  O  O388  1  0.13816545  0.12448420  0.37660645  1
  O  O389  1  0.13440235  0.13383836  0.86080559  1
  O  O390  1  0.13681232  0.63206630  0.37804413  1
  O  O391  1  0.13989849  0.64072140  0.86981895  1
  O  O392  1  0.63129093  0.12335459  0.37501400  1
  O  O393  1  0.61921821  0.12209587  0.89239959  1
  O  O394  1  0.63456972  0.62749744  0.37709318  1
  O  O395  1  0.61534006  0.64225735  0.88887941  1
