# generated using pymatgen
data_V35Zn35O128
_symmetry_space_group_name_H-M   'P 1'
_cell_length_a   16.87242172
_cell_length_b   16.84218676
_cell_length_c   16.88626176
_cell_angle_alpha   89.92667236
_cell_angle_beta   90.26240319
_cell_angle_gamma   89.85443841
_symmetry_Int_Tables_number   1
_chemical_formula_structural   V35Zn35O128
_chemical_formula_sum   'V70 Zn70 O256'
_cell_volume   4798.47349087
_cell_formula_units_Z   2
loop_
 _symmetry_equiv_pos_site_id
 _symmetry_equiv_pos_as_xyz
  1  'x, y, z'
loop_
 _atom_site_type_symbol
 _atom_site_label
 _atom_site_symmetry_multiplicity
 _atom_site_fract_x
 _atom_site_fract_y
 _atom_site_fract_z
 _atom_site_occupancy
  V  V0  1  0.86838020  0.62809501  0.24334214  1
  V  V1  1  0.13096915  0.75246128  0.38868540  1
  V  V2  1  -0.01554360  0.87229840  0.37462458  1
  V  V3  1  0.48680970  0.24754604  0.74457172  1
  V  V4  1  0.62674043  0.25707229  0.88636971  1
  V  V5  1  0.87882172  0.14191553  0.24844899  1
  V  V6  1  0.13448729  -0.00183433  0.61594023  1
  V  V7  1  0.01248889  0.36408598  0.38270325  1
  V  V8  1  0.62883712  -0.00138528  0.10781883  1
  V  V9  1  0.87387115  0.86948825  0.00845792  1
  V  V10  1  0.50355937  0.37352678  0.37776783  1
  V  V11  1  0.51071255  0.51987701  -0.00145860  1
  V  V12  1  0.24345870  0.49913910  0.76680784  1
  V  V13  1  0.61579375  0.88030552  0.24791894  1
  V  V14  1  -0.00426861  0.74695211  0.74183821  1
  V  V15  1  0.63478206  0.48237105  0.12738918  1
  V  V16  1  0.00370232  0.13436649  0.63277636  1
  V  V17  1  0.61935135  0.75496955  0.38496078  1
  V  V18  1  0.86702959  0.36579309  0.01278822  1
  V  V19  1  0.12837402  0.13785106  0.49223648  1
  V  V20  1  0.37572186  0.73916091  0.62280030  1
  V  V21  1  0.00137158  0.88345993  0.87078924  1
  V  V22  1  0.60449541  0.60951725  0.50456360  1
  V  V23  1  0.50420598  0.73617517  0.23701843  1
  V  V24  1  0.13022016  0.73599174  0.87138459  1
  V  V25  1  0.74281728  0.62511135  0.88753603  1
  V  V26  1  0.23990879  0.73927563  -0.00151832  1
  V  V27  1  0.74499593  0.12744462  0.90020550  1
  V  V28  1  0.26440113  0.37518903  0.61651121  1
  V  V29  1  0.24527651  0.25451995  -0.01149481  1
  V  V30  1  0.25243981  0.12090642  0.37276618  1
  V  V31  1  0.37365733  0.01474450  0.87432471  1
  V  V32  1  0.36758110  0.74979115  0.12326989  1
  V  V33  1  0.38036530  0.37902753  -0.01819208  1
  V  V34  1  0.13991908  0.50464781  0.61687293  1
  V  V35  1  0.00336279  0.51133386  0.49188591  1
  V  V36  1  0.36434752  0.62328626  0.76871716  1
  V  V37  1  0.35652602  0.61739763  0.24263175  1
  V  V38  1  0.26104759  0.01369533  0.75408685  1
  V  V39  1  0.00192060  0.01010498  0.01081461  1
  V  V40  1  -0.01171163  -0.00699280  0.49635704  1
  V  V41  1  0.87515873  0.00546585  0.86506483  1
  V  V42  1  0.36412140  0.25752717  0.12611561  1
  V  V43  1  0.85950953  0.14006051  0.74154733  1
  V  V44  1  0.00546416  0.25080105  0.23326218  1
  V  V45  1  0.74414303  0.62880180  0.37957071  1
  V  V46  1  0.13298965  0.38241069  0.23634089  1
  V  V47  1  0.76254058  -0.01047009  0.25601901  1
  V  V48  1  0.50059849  0.11858351  0.11154155  1
  V  V49  1  0.74202874  0.50137745  0.73441768  1
  V  V50  1  0.62428384  0.37326150  0.73374713  1
  V  V51  1  0.49092511  -0.00431639  0.47543593  1
  V  V52  1  0.11332261  0.24909762  0.85977007  1
  V  V53  1  0.74015049  0.12855474  0.37911688  1
  V  V54  1  0.87542222  0.50122576  0.87320655  1
  V  V55  1  0.00736121  0.51005521  0.01698305  1
  V  V56  1  0.37139102  0.49320730  0.38487889  1
  V  V57  1  0.62713522  0.88995667  0.74451724  1
  V  V58  1  0.24328036  0.62244432  0.39113005  1
  V  V59  1  0.26446989  0.87066364  0.61352239  1
  V  V60  1  0.50159693  0.74118152  0.75308496  1
  V  V61  1  0.13515779  0.87874444  0.75615927  1
  V  V62  1  0.86458971  0.48906354  0.37560287  1
  V  V63  1  0.00045588  0.74357065  0.24402773  1
  V  V64  1  0.50530175  0.25650608  0.24826691  1
  V  V65  1  0.50898393  0.12527164  0.61279732  1
  V  V66  1  0.35996960  0.88219004  0.00079715  1
  V  V67  1  0.49978675  0.88003961  0.88299502  1
  V  V68  1  0.37213562  0.11223742  0.25184791  1
  V  V69  1  0.12901821  0.12314893  0.00833588  1
  Zn  Zn70  1  0.77915822  0.79608998  0.55941849  1
  Zn  Zn71  1  0.00628103  0.64203008  0.60750329  1
  Zn  Zn72  1  -0.00243402  0.37231789  0.87577490  1
  Zn  Zn73  1  0.26534873  0.25669243  0.50102425  1
  Zn  Zn74  1  0.63619663  0.74878920  0.87735746  1
  Zn  Zn75  1  0.23247010  -0.02040618  0.23799074  1
  Zn  Zn76  1  0.18477745  0.18904136  0.18936415  1
  Zn  Zn77  1  0.19159895  0.18961001  0.67983747  1
  Zn  Zn78  1  0.18098144  0.80201665  0.19462648  1
  Zn  Zn79  1  0.18828259  0.68412839  0.68001740  1
  Zn  Zn80  1  0.67938365  0.17105601  0.20083901  1
  Zn  Zn81  1  0.67521383  0.19400123  0.67991349  1
  Zn  Zn82  1  0.68038514  0.66666956  0.18516536  1
  Zn  Zn83  1  0.67789749  0.67700315  0.68206600  1
  Zn  Zn84  1  0.30896495  0.30752788  0.31393162  1
  Zn  Zn85  1  0.30126968  0.31489013  0.80628371  1
  Zn  Zn86  1  0.31947690  0.81407835  0.32193176  1
  Zn  Zn87  1  0.31270644  0.81555247  0.81342997  1
  Zn  Zn88  1  0.82758433  0.30274934  0.43494054  1
  Zn  Zn89  1  0.80556587  0.31716301  0.81514059  1
  Zn  Zn90  1  0.80554490  0.81291734  0.30905876  1
  Zn  Zn91  1  0.78811212  0.78322838  0.76309354  1
  Zn  Zn92  1  0.18993432  0.43972906  0.43474094  1
  Zn  Zn93  1  0.17935530  0.42878667  0.94385332  1
  Zn  Zn94  1  0.19302874  0.93518945  0.42763768  1
  Zn  Zn95  1  0.18051020  0.93401337  1.06180212  1
  Zn  Zn96  1  0.67850472  0.43242271  0.43772034  1
  Zn  Zn97  1  0.68788795  0.43760097  0.94109181  1
  Zn  Zn98  1  0.71103208  0.97425817  0.47380238  1
  Zn  Zn99  1  0.70074499  0.92945493  0.91996238  1
  Zn  Zn100  1  0.30955331  0.06791392  0.06370215  1
  Zn  Zn101  1  0.32013010  0.05983566  0.55737106  1
  Zn  Zn102  1  0.32603066  0.56729447  0.04585833  1
  Zn  Zn103  1  0.43797284  0.55868714  0.57010065  1
  Zn  Zn104  1  0.81985840  0.05151687  0.07225533  1
  Zn  Zn105  1  0.81779876  0.15429753  0.54678657  1
  Zn  Zn106  1  0.81331990  0.55153894  0.06184690  1
  Zn  Zn107  1  0.81165318  0.57085168  0.55183601  1
  Zn  Zn108  1  0.43929869  0.44156658  0.18075500  1
  Zn  Zn109  1  0.43488294  0.43963497  0.71888898  1
  Zn  Zn110  1  0.43931324  0.93444278  0.18354332  1
  Zn  Zn111  1  0.44460955  0.93723860  0.68883947  1
  Zn  Zn112  1  0.93984436  0.44039500  0.19278333  1
  Zn  Zn113  1  0.92106711  0.47868311  0.67647567  1
  Zn  Zn114  1  1.04975044  0.93093460  0.18981722  1
  Zn  Zn115  1  0.94888761  0.95092683  0.69258925  1
  Zn  Zn116  1  0.06102043  0.06332680  0.31307808  1
  Zn  Zn117  1  0.07460776  0.06682971  0.81717712  1
  Zn  Zn118  1  0.06403415  0.56370451  0.30957351  1
  Zn  Zn119  1  0.05958470  0.56214043  0.80420750  1
  Zn  Zn120  1  0.55892100  0.06529507  0.31061890  1
  Zn  Zn121  1  0.55934682  0.07324518  0.81188806  1
  Zn  Zn122  1  0.55648373  0.55708039  0.31011990  1
  Zn  Zn123  1  0.56582161  0.55723665  0.82022325  1
  Zn  Zn124  1  0.44482911  0.18262326  0.43374046  1
  Zn  Zn125  1  0.44312245  0.20185594  0.93472349  1
  Zn  Zn126  1  0.42979933  0.69885927  0.42414600  1
  Zn  Zn127  1  0.43663045  0.69364968  0.93921655  1
  Zn  Zn128  1  0.94121219  0.17168238  0.42431817  1
  Zn  Zn129  1  0.93568804  0.18938175  0.93430014  1
  Zn  Zn130  1  0.93130797  0.69093957  0.43128823  1
  Zn  Zn131  1  0.93009641  0.68424083  0.93144130  1
  Zn  Zn132  1  0.05737524  0.32273571  0.05681434  1
  Zn  Zn133  1  0.06315432  0.32223969  0.56751045  1
  Zn  Zn134  1  0.03713968  0.79658759  0.04953414  1
  Zn  Zn135  1  0.07108296  0.81912164  0.56016277  1
  Zn  Zn136  1  0.55842208  0.31166839  0.06453155  1
  Zn  Zn137  1  0.50017876  0.36474460  0.58855652  1
  Zn  Zn138  1  0.55355965  0.81943354  0.06789190  1
  Zn  Zn139  1  0.56295708  0.81710958  0.56802184  1
  O  O140  1  0.12230536  0.13459758  0.10740256  1
  O  O141  1  0.12246600  0.11594065  0.61345046  1
  O  O142  1  0.17362265  0.55911434  0.12836870  1
  O  O143  1  0.12212770  0.61236583  0.62108139  1
  O  O144  1  0.61061766  0.11339765  0.12819681  1
  O  O145  1  0.60940904  0.12624722  0.61760373  1
  O  O146  1  0.60963705  0.59765760  0.13481201  1
  O  O147  1  0.61457389  0.62736150  0.60341064  1
  O  O148  1  0.37124494  0.38907688  0.36780170  1
  O  O149  1  0.36611913  0.37494324  0.88302747  1
  O  O150  1  0.39782157  0.80890522  0.39742902  1
  O  O151  1  0.38041715  0.88041169  0.88472102  1
  O  O152  1  0.87944308  0.38613961  0.37327955  1
  O  O153  1  0.87446448  0.38532010  0.87892287  1
  O  O154  1  0.88561881  0.86332613  0.37999516  1
  O  O155  1  0.89389552  0.89056276  0.86961387  1
  O  O156  1  0.24595656  0.01486321  0.36586357  1
  O  O157  1  0.26259076  0.00889315  0.85952485  1
  O  O158  1  0.25851675  0.51089347  0.37372276  1
  O  O159  1  0.23626380  0.49415236  0.86468985  1
  O  O160  1  0.74172989  0.00128506  0.35690995  1
  O  O161  1  0.76284281  0.01805023  0.87763014  1
  O  O162  1  0.75884440  0.50178344  0.38129113  1
  O  O163  1  0.75638926  0.50735786  0.87141593  1
  O  O164  1  0.22914537  0.51294832  0.11457888  1
  O  O165  1  0.24230740  0.49665707  0.62102282  1
  O  O166  1  0.24928433  0.99714115  0.12421187  1
  O  O167  1  0.25408796  0.98967674  0.63134984  1
  O  O168  1  0.73566452  0.49566747  0.12118179  1
  O  O169  1  0.76226694  0.50764237  0.63481298  1
  O  O170  1  0.73179020  1.00816018  0.13999887  1
  O  O171  1  0.79162995  0.95793465  0.63243085  1
  O  O172  1  0.00441233  0.36460220  0.25936661  1
  O  O173  1  0.01992710  0.37119732  0.74343294  1
  O  O174  1  -0.00654538  0.85983249  0.26610965  1
  O  O175  1  0.01631807  0.87638140  0.75097206  1
  O  O176  1  0.48824427  0.36057441  0.25066483  1
  O  O177  1  0.51185067  0.36106117  0.75548005  1
  O  O178  1  0.50872107  0.86088295  0.24368612  1
  O  O179  1  0.50560107  0.86697176  0.76361692  1
  O  O180  1  0.48557301  0.13430190  0.24260443  1
  O  O181  1  0.50218875  0.13984704  0.73577664  1
  O  O182  1  0.48916208  0.63472788  0.24746133  1
  O  O183  1  0.48997543  0.63556440  0.76318124  1
  O  O184  1  0.99224092  0.14140995  0.26108539  1
  O  O185  1  1.00717068  0.11907349  0.73380514  1
  O  O186  1  0.98280442  0.63559044  0.26722752  1
  O  O187  1  1.00044981  0.64299272  0.74294633  1
  O  O188  1  0.36165260  0.25147327  0.00350010  1
  O  O189  1  0.37654548  0.21376838  0.52616272  1
  O  O190  1  0.36053904  0.75893796  0.00196933  1
  O  O191  1  0.38235707  0.73564708  0.52586720  1
  O  O192  1  0.88492515  0.26579724  -0.00060441  1
  O  O193  1  0.88527595  0.23267832  0.50137083  1
  O  O194  1  0.91798780  0.77242713  -0.00013081  1
  O  O195  1  0.87391479  0.72410966  0.52837570  1
  O  O196  1  0.12678287  0.23761665  0.50493920  1
  O  O197  1  0.13375347  0.24703616  0.99673307  1
  O  O198  1  0.12255853  0.74508342  0.48911241  1
  O  O199  1  0.13028827  0.75158409  0.98413282  1
  O  O200  1  0.69737285  0.29161306  0.53717785  1
  O  O201  1  0.61774694  0.25025561  0.98535279  1
  O  O202  1  0.61010438  0.74366957  0.48672791  1
  O  O203  1  0.64313527  0.74854470  1.02776454  1
  O  O204  1  0.48842100  0.23926307  0.13114345  1
  O  O205  1  0.49991649  0.24898710  0.63674266  1
  O  O206  1  0.48543122  0.74985716  0.12947303  1
  O  O207  1  0.48752743  0.75968455  0.64597030  1
  O  O208  1  0.99992745  0.25382679  0.13482819  1
  O  O209  1  1.01436842  0.23229159  0.62116088  1
  O  O210  1  0.99934337  0.74321020  0.14563250  1
  O  O211  1  1.01519157  0.75811108  0.63815895  1
  O  O212  1  -0.00232031  0.26321213  0.37371714  1
  O  O213  1  0.00793664  0.25009897  0.86729448  1
  O  O214  1  0.00682945  0.76001516  0.37873200  1
  O  O215  1  0.01677266  0.76076462  0.86197521  1
  O  O216  1  0.48517142  0.25838809  0.35659808  1
  O  O217  1  0.52035337  0.23459896  0.85830918  1
  O  O218  1  0.51868851  0.73980108  0.35226964  1
  O  O219  1  0.49649713  0.76228895  0.86737860  1
  O  O220  1  0.23658173  0.12021608  0.49635835  1
  O  O221  1  0.23810064  0.13671842  0.99918563  1
  O  O222  1  0.25353833  0.62593907  0.48627332  1
  O  O223  1  0.25256101  0.64033218  0.99526337  1
  O  O224  1  0.74850240  0.09184030  0.48095149  1
  O  O225  1  0.75761747  0.12486903  0.99849665  1
  O  O226  1  0.73019016  0.62347262  0.48488945  1
  O  O227  1  0.75937074  0.62281570  0.98652678  1
  O  O228  1  0.25869958  0.36120383  0.00021707  1
  O  O229  1  0.25044265  0.37578340  0.51000304  1
  O  O230  1  0.25804885  0.86825507  -0.00513346  1
  O  O231  1  0.25222701  0.87786005  0.51509008  1
  O  O232  1  0.76661169  0.37711764  -0.00194553  1
  O  O233  1  0.74295590  0.35616861  0.50449550  1
  O  O234  1  0.77572730  0.86848721  -0.01937413  1
  O  O235  1  0.75016782  0.86990165  0.48511235  1
  O  O236  1  0.11647485  0.48243699  0.25300866  1
  O  O237  1  0.13848728  0.50954530  0.73651583  1
  O  O238  1  0.11931018  1.00095928  0.24369777  1
  O  O239  1  0.14105361  0.99854135  0.74038131  1
  O  O240  1  0.61422380  0.50205335  0.23069329  1
  O  O241  1  0.62926927  0.48520144  0.75332630  1
  O  O242  1  0.61894913  0.98553323  0.24550058  1
  O  O243  1  0.61263387  0.98887372  0.75561339  1
  O  O244  1  0.37461826  0.01206706  0.23903539  1
  O  O245  1  0.36924404  -0.00522789  0.76185103  1
  O  O246  1  0.37370195  0.51446957  0.24246062  1
  O  O247  1  0.36023727  0.51458524  0.75836109  1
  O  O248  1  0.85918082  -0.01397856  0.25017330  1
  O  O249  1  0.88427054  0.01931840  0.75969327  1
  O  O250  1  0.88340108  0.51399756  0.27027852  1
  O  O251  1  0.85275534  0.49082910  0.76047290  1
  O  O252  1  0.11428151  0.37502261  0.37102796  1
  O  O253  1  0.12008324  0.35495991  0.87694549  1
  O  O254  1  0.12310026  0.85793186  0.37724289  1
  O  O255  1  0.11899112  0.87704027  0.86136187  1
  O  O256  1  0.60348644  0.38076678  0.36812210  1
  O  O257  1  0.63279052  0.35945346  0.87178030  1
  O  O258  1  0.62360104  0.85564461  0.35601564  1
  O  O259  1  0.60815649  0.86742348  0.88353554  1
  O  O260  1  0.38381568  0.13102050  0.12942272  1
  O  O261  1  0.38198357  0.15769324  0.58975587  1
  O  O262  1  0.36445497  0.63700396  0.13043848  1
  O  O263  1  0.38067877  0.63507742  0.64443240  1
  O  O264  1  0.87281553  0.11514183  0.15019511  1
  O  O265  1  0.89181747  0.12333073  0.63466810  1
  O  O266  1  0.86407566  0.61840111  0.14498798  1
  O  O267  1  0.88428587  0.65852302  0.58435171  1
  O  O268  1  0.26116525  0.24281019  0.11442012  1
  O  O269  1  0.24290324  0.27208584  0.62372237  1
  O  O270  1  0.25314070  0.75469172  0.10721592  1
  O  O271  1  0.26232157  0.76137793  0.63330646  1
  O  O272  1  0.75008035  0.27641586  0.15580067  1
  O  O273  1  0.74144808  0.25164348  0.59228036  1
  O  O274  1  0.70258024  0.73858586  0.07589389  1
  O  O275  1  0.75815083  0.74976880  0.65699409  1
  O  O276  1  0.26487911  0.23021678  0.38703818  1
  O  O277  1  0.24232263  0.25042275  0.88459800  1
  O  O278  1  0.23692264  0.73780006  0.37183822  1
  O  O279  1  0.23793604  0.75647609  0.88290842  1
  O  O280  1  0.75405630  0.22878984  0.38407671  1
  O  O281  1  0.74001678  0.23526232  0.87293708  1
  O  O282  1  0.73266196  0.73739356  0.37004271  1
  O  O283  1  0.75445248  0.72816791  0.86204459  1
  O  O284  1  0.00637367  0.11620951  -0.00522634  1
  O  O285  1  0.01640857  0.11004488  0.50138208  1
  O  O286  1  -0.00705777  0.60810300  -0.01049932  1
  O  O287  1  0.00477788  0.61316690  0.48237202  1
  O  O288  1  0.49503491  0.13083413  0.01372961  1
  O  O289  1  0.50553699  0.11156323  0.50172855  1
  O  O290  1  0.49326405  0.62031695  0.00418890  1
  O  O291  1  0.50004949  0.62376174  0.48970847  1
  O  O292  1  0.49140396  0.35734898  0.47577694  1
  O  O293  1  0.47829621  0.35400233  0.99178204  1
  O  O294  1  0.51059139  0.89336862  0.50364267  1
  O  O295  1  0.48535664  0.86793142  0.98781459  1
  O  O296  1  1.00256474  0.38267099  0.48747256  1
  O  O297  1  0.98884677  0.39135512  0.99417263  1
  O  O298  1  1.00101771  0.88383415  0.49368756  1
  O  O299  1  1.00331523  0.89579141  0.98554690  1
  O  O300  1  0.48265353  0.48572740  0.36316853  1
  O  O301  1  0.50579254  0.49804429  0.89764395  1
  O  O302  1  0.49380648  1.00006900  0.37489818  1
  O  O303  1  0.48786149  0.98782288  0.87007012  1
  O  O304  1  0.99415255  0.48957633  0.38206874  1
  O  O305  1  0.98210696  0.49663191  0.85646517  1
  O  O306  1  1.00590560  0.98369879  0.38579576  1
  O  O307  1  0.99691855  1.00063296  0.87506763  1
  O  O308  1  -0.00410339  -0.00038317  0.10832359  1
  O  O309  1  0.01421277  0.00308043  0.61244309  1
  O  O310  1  -0.00212340  0.50746282  0.11738985  1
  O  O311  1  -0.00416005  0.51327421  0.60501195  1
  O  O312  1  0.50722249  0.01043954  0.12211070  1
  O  O313  1  0.47969948  0.02817964  0.63081365  1
  O  O314  1  0.50718653  0.48355898  0.10175771  1
  O  O315  1  0.48794915  0.47495566  0.62526631  1
  O  O316  1  0.23127912  0.36510946  0.25449024  1
  O  O317  1  0.25384815  0.39544425  0.73705945  1
  O  O318  1  0.25648010  0.86704057  0.24993318  1
  O  O319  1  0.24800603  0.88560779  0.74434235  1
  O  O320  1  0.75229403  0.33377425  0.20080225  1
  O  O321  1  0.73545977  0.38410756  0.74776980  1
  O  O322  1  0.73296520  0.88003921  0.24802525  1
  O  O323  1  0.72275193  0.87648779  0.78191200  1
  O  O324  1  0.26153902  0.12891995  0.25393000  1
  O  O325  1  0.25789084  0.11136261  0.73304669  1
  O  O326  1  0.25935535  0.62921674  0.25283971  1
  O  O327  1  0.25762769  0.61781204  0.75059467  1
  O  O328  1  0.76019090  0.11495395  0.25722326  1
  O  O329  1  0.76058761  0.12968774  0.72792593  1
  O  O330  1  0.75793731  0.62754177  0.26244297  1
  O  O331  1  0.73166583  0.60336749  0.75802720  1
  O  O332  1  0.37270241  0.12332879  0.35663054  1
  O  O333  1  0.38636477  0.11203981  0.88158840  1
  O  O334  1  0.36470975  0.61741996  0.36138450  1
  O  O335  1  0.36859627  0.63231849  0.86775984  1
  O  O336  1  0.86629028  0.11615044  0.35557029  1
  O  O337  1  0.86130738  0.12642023  0.86334648  1
  O  O338  1  0.85470094  0.62055910  0.37619670  1
  O  O339  1  0.86479729  0.60983329  0.86969119  1
  O  O340  1  0.12368133  0.37330014  0.13573806  1
  O  O341  1  0.12921808  0.39734091  0.62316809  1
  O  O342  1  0.11182086  0.86102949  0.11836923  1
  O  O343  1  0.14190097  0.88180661  0.63303063  1
  O  O344  1  0.62380501  0.37970632  0.12193566  1
  O  O345  1  0.61732486  0.37248046  0.63540134  1
  O  O346  1  0.61744993  0.88983026  0.13220617  1
  O  O347  1  0.62805556  0.87066572  0.64566666  1
  O  O348  1  0.11129152  0.25586636  0.24909842  1
  O  O349  1  0.13281690  0.24045425  0.76214456  1
  O  O350  1  0.10536595  0.74290131  0.26446116  1
  O  O351  1  0.12898430  0.75880163  0.75808694  1
  O  O352  1  0.60416745  0.24657270  0.24270605  1
  O  O353  1  0.62450955  0.26211031  0.75494029  1
  O  O354  1  0.61408098  0.75304945  0.23512729  1
  O  O355  1  0.60718244  0.74932219  0.75480295  1
  O  O356  1  0.37417974  0.24236246  0.23392579  1
  O  O357  1  0.38818408  0.25547335  0.75994713  1
  O  O358  1  0.38372619  0.74158151  0.23864747  1
  O  O359  1  0.37932834  0.74105743  0.75182784  1
  O  O360  1  0.88669635  0.24404963  0.24845323  1
  O  O361  1  0.87078032  0.23917151  0.75332995  1
  O  O362  1  0.87958097  0.73720037  0.25909313  1
  O  O363  1  0.89994410  0.76805292  0.75311802  1
  O  O364  1  0.37727560  0.50463689  0.48250312  1
  O  O365  1  0.38638257  0.48395409  1.00382561  1
  O  O366  1  0.38966274  0.99837436  0.49611183  1
  O  O367  1  0.36494044  0.99048643  0.98670850  1
  O  O368  1  0.88586493  0.50438342  0.48501662  1
  O  O369  1  0.88311961  0.49391166  0.98576446  1
  O  O370  1  0.89339380  1.00509192  0.50220302  1
  O  O371  1  0.88741194  0.99822832  0.98782404  1
  O  O372  1  0.11560757  0.01388100  -0.00189119  1
  O  O373  1  0.12897966  -0.00079190  0.50959588  1
  O  O374  1  0.10658624  0.49642552  -0.00561340  1
  O  O375  1  0.11333796  0.49935510  0.50536013  1
  O  O376  1  0.63718430  -0.00979122  0.01022936  1
  O  O377  1  0.60016119  -0.01142504  0.50610176  1
  O  O378  1  0.61824467  0.50053545  0.00891073  1
  O  O379  1  0.61653076  0.50985048  0.49442946  1
  O  O380  1  0.37493744  0.35879060  0.11700444  1
  O  O381  1  0.36363347  0.37725731  0.62783771  1
  O  O382  1  0.38002142  0.86827027  0.10639982  1
  O  O383  1  0.36835583  0.86569476  0.63271506  1
  O  O384  1  0.87928326  0.38511103  0.11278350  1
  O  O385  1  0.96332815  0.36346462  0.69257911  1
  O  O386  1  0.87536568  0.88677887  0.10385002  1
  O  O387  1  0.84573889  0.90557623  0.63767187  1
  O  O388  1  0.13032353  0.12512935  0.38768628  1
  O  O389  1  0.12215678  0.14098585  0.88994721  1
  O  O390  1  0.13614148  0.62935954  0.37328021  1
  O  O391  1  0.12376866  0.63793602  0.86612400  1
  O  O392  1  0.63968843  0.12673167  0.35911890  1
  O  O393  1  0.64166988  0.12578737  0.87637141  1
  O  O394  1  0.62864969  0.62778665  0.37564751  1
  O  O395  1  0.63554005  0.62833170  0.88241329  1
