# generated using pymatgen
data_V35Zn35O128
_symmetry_space_group_name_H-M   'P 1'
_cell_length_a   16.93437944
_cell_length_b   16.90135659
_cell_length_c   16.97374074
_cell_angle_alpha   90.01552334
_cell_angle_beta   89.81993441
_cell_angle_gamma   90.26729444
_symmetry_Int_Tables_number   1
_chemical_formula_structural   V35Zn35O128
_chemical_formula_sum   'V70 Zn70 O256'
_cell_volume   4858.04497124
_cell_formula_units_Z   2
loop_
 _symmetry_equiv_pos_site_id
 _symmetry_equiv_pos_as_xyz
  1  'x, y, z'
loop_
 _atom_site_type_symbol
 _atom_site_label
 _atom_site_symmetry_multiplicity
 _atom_site_fract_x
 _atom_site_fract_y
 _atom_site_fract_z
 _atom_site_occupancy
  V  V0  1  0.38571997  0.50380711  0.86868335  1
  V  V1  1  0.75832633  0.00199509  0.74841486  1
  V  V2  1  0.00027745  -0.00470161  0.49226238  1
  V  V3  1  0.48430372  0.00017750  0.48114190  1
  V  V4  1  0.87905779  0.24554836  0.11490047  1
  V  V5  1  0.87829972  -0.00526964  0.87604170  1
  V  V6  1  0.62649403  0.49662156  0.13695359  1
  V  V7  1  0.44720592  0.30309922  0.29931122  1
  V  V8  1  0.12610344  0.24884945  0.38395192  1
  V  V9  1  0.49773886  -0.00935812  0.00228340  1
  V  V10  1  0.63660280  0.75069177  0.87664676  1
  V  V11  1  0.87414340  0.88157489  0.02219582  1
  V  V12  1  0.50076681  0.12242199  0.12898586  1
  V  V13  1  -0.01279750  0.12255000  0.63728736  1
  V  V14  1  0.63882032  0.24215745  0.37310125  1
  V  V15  1  0.13585929  0.36383954  0.73796392  1
  V  V16  1  0.10249590  0.73991462  0.38177844  1
  V  V17  1  0.61366654  0.87592795  0.26191562  1
  V  V18  1  0.00165964  0.61193284  0.07664652  1
  V  V19  1  0.77726436  0.24969331  0.50144292  1
  V  V20  1  0.79487958  0.51863404  0.75969890  1
  V  V21  1  0.88112193  0.27359632  0.65336640  1
  V  V22  1  -0.01627629  0.76335199  0.76437767  1
  V  V23  1  0.24825245  -0.00090665  0.26645975  1
  V  V24  1  0.42446611  0.71335499  0.14130415  1
  V  V25  1  0.87737576  0.13129337  0.26219813  1
  V  V26  1  0.63384996  -0.00694503  0.12474551  1
  V  V27  1  0.12461848  0.01522630  0.12267564  1
  V  V28  1  0.64290244  0.36953754  0.25567093  1
  V  V29  1  0.87985207  0.73513632  0.61721294  1
  V  V30  1  0.37684441  -0.00693841  0.87910922  1
  V  V31  1  0.14785980  0.77354770  0.88030738  1
  V  V32  1  0.37755770  0.83936463  0.48654695  1
  V  V33  1  0.10907282  0.87300997  0.25842888  1
  V  V34  1  0.25750946  0.85628979  0.62133159  1
  V  V35  1  0.87077814  -0.01451191  0.38140271  1
  V  V36  1  0.76424507  0.87559372  0.61381815  1
  V  V37  1  0.37782702  0.36680760  -0.00611173  1
  V  V38  1  0.74775411  0.25534001  -0.00499485  1
  V  V39  1  0.51783129  0.22903610  0.74271458  1
  V  V40  1  0.62557475  0.87040132  0.74801068  1
  V  V41  1  0.25803473  0.49354036  0.75581452  1
  V  V42  1  0.25541521  0.87001653  0.11545994  1
  V  V43  1  0.38116277  0.12553590  0.74129708  1
  V  V44  1  0.23947983  0.50097191  0.22569561  1
  V  V45  1  0.62693712  0.12404610  -0.00507931  1
  V  V46  1  0.75204339  0.00012859  0.25273271  1
  V  V47  1  0.00125457  0.01610181  0.00475411  1
  V  V48  1  0.37240118  0.11766547  0.26059404  1
  V  V49  1  0.76562872  0.62180040  0.34024148  1
  V  V50  1  -0.00715719  0.37890188  0.39764550  1
  V  V51  1  0.90079557  0.63553408  0.21927270  1
  V  V52  1  0.74937971  0.76339329  0.02154116  1
  V  V53  1  0.37614715  0.63942017  0.74094558  1
  V  V54  1  0.64539893  0.68348832  0.47267576  1
  V  V55  1  0.53554694  0.64211938  0.64823783  1
  V  V56  1  0.50128012  0.86692787  0.87276084  1
  V  V57  1  0.51293118  0.50007449  -0.00479583  1
  V  V58  1  0.52001100  0.35317201  0.87759739  1
  V  V59  1  0.24779547  -0.00659190  0.74669941  1
  V  V60  1  0.00536066  0.26223430  0.24456811  1
  V  V61  1  0.61497809  0.00426736  0.62233643  1
  V  V62  1  0.24714639  0.24436055  0.00309750  1
  V  V63  1  0.75357697  0.12554086  0.87073727  1
  V  V64  1  0.12194642  0.24845342  0.86907525  1
  V  V65  1  0.24937891  0.12098385  0.87918041  1
  V  V66  1  0.60357215  0.39533706  0.70707463  1
  V  V67  1  0.38027090  0.24734152  0.11954460  1
  V  V68  1  0.63653773  0.62327688  -0.00381295  1
  V  V69  1  0.12694712  -0.00396051  0.62351539  1
  Zn  Zn70  1  0.62621785  0.12496229  0.49893984  1
  Zn  Zn71  1  0.27846421  0.35542152  0.62027955  1
  Zn  Zn72  1  0.13099866  0.12745864  0.49966762  1
  Zn  Zn73  1  0.09704606  0.63849998  0.53364563  1
  Zn  Zn74  1  0.75988424  0.37609849  0.12391178  1
  Zn  Zn75  1  0.39632594  0.43262875  0.45225756  1
  Zn  Zn76  1  0.19241728  0.18724272  0.19338734  1
  Zn  Zn77  1  0.18731881  0.17307273  0.68753157  1
  Zn  Zn78  1  0.15968451  0.69658123  0.17530643  1
  Zn  Zn79  1  0.12951263  0.65313012  0.73190699  1
  Zn  Zn80  1  0.69366715  0.18254374  0.18558282  1
  Zn  Zn81  1  0.69970426  0.18891913  0.68022984  1
  Zn  Zn82  1  0.64067482  0.69011013  0.18670197  1
  Zn  Zn83  1  0.72176414  0.69129253  0.70857321  1
  Zn  Zn84  1  0.27092151  0.34585479  0.34590111  1
  Zn  Zn85  1  0.32227116  0.30820765  0.81573561  1
  Zn  Zn86  1  0.30061912  0.79581502  0.30067083  1
  Zn  Zn87  1  0.30782433  0.81616710  0.81421513  1
  Zn  Zn88  1  0.82002330  0.31640350  0.31656400  1
  Zn  Zn89  1  0.76875660  0.32880147  0.80043805  1
  Zn  Zn90  1  0.77552345  0.78211485  0.26314405  1
  Zn  Zn91  1  0.81718490  0.81506930  0.81797717  1
  Zn  Zn92  1  0.13672564  0.47274110  0.40912383  1
  Zn  Zn93  1  0.07993604  0.43459156  0.93984418  1
  Zn  Zn94  1  0.18985590  0.92388127  0.44406481  1
  Zn  Zn95  1  0.18312803  0.93917741  0.93897113  1
  Zn  Zn96  1  0.71737378  0.43901918  0.43285236  1
  Zn  Zn97  1  0.70067802  0.44253160  0.92539101  1
  Zn  Zn98  1  0.68810475  0.93270980  0.44041437  1
  Zn  Zn99  1  0.68949819  0.93766493  0.93691790  1
  Zn  Zn100  1  0.31293253  0.05740643  0.06654292  1
  Zn  Zn101  1  0.31546456  0.06540555  0.56327623  1
  Zn  Zn102  1  0.34401039  0.56277913  0.06375484  1
  Zn  Zn103  1  0.21330668  0.53533426  0.58357298  1
  Zn  Zn104  1  0.81399360  0.06992329  0.06549526  1
  Zn  Zn105  1  0.80782878  0.06693653  0.55731002  1
  Zn  Zn106  1  0.80709515  0.56587514  0.09521770  1
  Zn  Zn107  1  0.71700735  0.55591075  0.58788758  1
  Zn  Zn108  1  0.43922086  0.44119650  0.17990191  1
  Zn  Zn109  1  0.41174091  0.47737694  0.64530869  1
  Zn  Zn110  1  0.43398391  0.93286278  0.19467515  1
  Zn  Zn111  1  0.43307492  0.92741640  0.68709259  1
  Zn  Zn112  1  0.93678676  0.44441362  0.17053126  1
  Zn  Zn113  1  0.95452965  0.45259547  0.68874159  1
  Zn  Zn114  1  0.93667972  0.94807551  0.18894005  1
  Zn  Zn115  1  0.94431342  0.93656236  0.68982158  1
  Zn  Zn116  1  0.05882959  0.06708834  0.30843304  1
  Zn  Zn117  1  0.06343686  0.05366487  0.81469757  1
  Zn  Zn118  1  -0.01647459  0.58691157  0.37387052  1
  Zn  Zn119  1  0.03014162  0.60248140  0.86082590  1
  Zn  Zn120  1  0.56249588  0.05921406  0.31079833  1
  Zn  Zn121  1  0.56793072  0.05468790  0.81253832  1
  Zn  Zn122  1  0.55279961  0.50826450  0.51807436  1
  Zn  Zn123  1  0.56345505  0.56590091  0.81440597  1
  Zn  Zn124  1  0.44927460  0.17717422  0.43987767  1
  Zn  Zn125  1  0.43852267  0.17586528  0.93561394  1
  Zn  Zn126  1  0.44295983  0.63607713  0.48027310  1
  Zn  Zn127  1  0.43904325  0.69018621  0.95106307  1
  Zn  Zn128  1  0.95492190  0.17824049  0.43535656  1
  Zn  Zn129  1  0.93438950  0.18456144  0.92991313  1
  Zn  Zn130  1  0.89280950  0.76886599  0.40551993  1
  Zn  Zn131  1  0.97405976  0.73864317  0.97267616  1
  Zn  Zn132  1  0.06229227  0.29977416  0.06175168  1
  Zn  Zn133  1  0.06605475  0.30896747  0.57120737  1
  Zn  Zn134  1  0.07188790  0.82487696  0.06957662  1
  Zn  Zn135  1  0.05614029  0.81180251  0.56917821  1
  Zn  Zn136  1  0.56645472  0.31122319  0.06733452  1
  Zn  Zn137  1  0.54644391  0.30180912  0.55554787  1
  Zn  Zn138  1  0.56119239  0.81076208  0.06757870  1
  Zn  Zn139  1  0.55933865  0.82232887  0.55808566  1
  O  O140  1  0.12949208  0.11424440  0.12665710  1
  O  O141  1  0.11498869  0.11180960  0.62149578  1
  O  O142  1  0.10303688  0.63794915  0.09825732  1
  O  O143  1  0.15031190  0.61802944  0.63175922  1
  O  O144  1  0.61794419  0.11630612  0.11864567  1
  O  O145  1  0.63330763  0.10599395  0.62522428  1
  O  O146  1  0.62370286  0.60136411  0.11584742  1
  O  O147  1  0.63456126  0.62471141  0.66270770  1
  O  O148  1  0.38357786  0.36551860  0.35407287  1
  O  O149  1  0.39711054  0.37393279  0.88065919  1
  O  O150  1  0.36432245  0.84736577  0.38821975  1
  O  O151  1  0.38713637  0.88590337  0.86782721  1
  O  O152  1  0.89358248  0.37814868  0.37378500  1
  O  O153  1  0.91090471  0.35715520  0.89913152  1
  O  O154  1  0.87705968  0.88819089  0.37605377  1
  O  O155  1  0.86214008  0.89285118  0.89395934  1
  O  O156  1  0.24117533  0.00069257  0.36424864  1
  O  O157  1  0.25789565  0.00213205  0.86890719  1
  O  O158  1  0.22464439  0.51457442  0.32667667  1
  O  O159  1  0.28390073  0.48128293  0.86470719  1
  O  O160  1  0.76498207  0.00023651  0.37245130  1
  O  O161  1  0.75544772  0.00661919  0.86817832  1
  O  O162  1  0.76577695  0.52552259  0.37556081  1
  O  O163  1  0.76542363  0.44155644  0.83255405  1
  O  O164  1  0.26074499  0.49765319  0.12130663  1
  O  O165  1  0.28693142  0.48597632  0.64932236  1
  O  O166  1  0.23613835  0.99825296  0.12913339  1
  O  O167  1  0.24407225  1.00313660  0.63139874  1
  O  O168  1  0.72782187  0.48606350  0.10705764  1
  O  O169  1  0.76578023  0.49314625  0.66669611  1
  O  O170  1  0.73982271  1.01058589  0.13277591  1
  O  O171  1  0.74427400  0.99396753  0.63184227  1
  O  O172  1  -0.00579990  0.36240904  0.23654720  1
  O  O173  1  0.03850509  0.38133568  0.72449426  1
  O  O174  1  0.01185557  0.89433619  0.25078648  1
  O  O175  1  0.00661833  0.86466313  0.74696877  1
  O  O176  1  0.50511403  0.36789637  0.24586552  1
  O  O177  1  0.51958795  0.34676535  0.76182834  1
  O  O178  1  0.51376777  0.87691166  0.24922012  1
  O  O179  1  0.51339087  0.87960673  0.76101848  1
  O  O180  1  0.48605798  0.11032772  0.23738491  1
  O  O181  1  0.48925076  0.12146946  0.76396530  1
  O  O182  1  0.50691454  0.62935556  0.30244576  1
  O  O183  1  0.49297862  0.63137803  0.74819605  1
  O  O184  1  0.98351094  0.13547956  0.24942215  1
  O  O185  1  1.00349695  0.11207564  0.73607979  1
  O  O186  1  0.99892075  0.62794422  0.21439045  1
  O  O187  1  1.00849046  0.65338475  0.75868106  1
  O  O188  1  0.37473199  0.24659156  0.00343896  1
  O  O189  1  0.38918344  0.26342586  0.49095235  1
  O  O190  1  0.39748781  0.73927316  0.04505386  1
  O  O191  1  0.39630618  0.74112517  0.49823353  1
  O  O192  1  0.86499305  0.23808916  0.00830343  1
  O  O193  1  0.87611163  0.24421286  0.49130232  1
  O  O194  1  0.85786723  0.77231919  0.00645642  1
  O  O195  1  0.88433695  0.75645987  0.51887477  1
  O  O196  1  0.12102072  0.24780917  0.48819035  1
  O  O197  1  0.14301581  0.24530638  0.98905112  1
  O  O198  1  0.10877953  0.74507553  0.49035371  1
  O  O199  1  0.10086836  0.76755437  0.97171299  1
  O  O200  1  0.61316196  0.25170293  0.47760793  1
  O  O201  1  0.63841596  0.23582998  1.00833786  1
  O  O202  1  0.62858198  0.78421681  0.47573850  1
  O  O203  1  0.63327504  0.74645999  0.99722562  1
  O  O204  1  0.49486235  0.23142799  0.11576716  1
  O  O205  1  0.51286144  0.23567928  0.64379986  1
  O  O206  1  0.52868689  0.73309561  0.14529723  1
  O  O207  1  0.52055107  0.74078087  0.62972086  1
  O  O208  1  0.98919269  0.24667428  0.12795177  1
  O  O209  1  0.98445209  0.23616213  0.62858096  1
  O  O210  1  1.00232954  0.73431294  0.08878204  1
  O  O211  1  0.98771482  0.75044660  0.63782122  1
  O  O212  1  0.00111676  0.25989179  0.35880494  1
  O  O213  1  0.02363272  0.23387279  0.88123554  1
  O  O214  1  0.00322563  0.76795291  0.37483476  1
  O  O215  1  -0.03718974  0.76319505  0.86414321  1
  O  O216  1  0.50776773  0.25122055  0.36111003  1
  O  O217  1  0.50390444  0.25030554  0.87432237  1
  O  O218  1  0.47951586  0.68039455  0.34708627  1
  O  O219  1  0.51039734  0.76301483  0.88920827  1
  O  O220  1  0.25480527  0.16266660  0.53354099  1
  O  O221  1  0.26088837  0.13141158  0.98990102  1
  O  O222  1  0.26176259  0.63110683  0.42092865  1
  O  O223  1  0.25635950  0.62923540  1.01358696  1
  O  O224  1  0.74094950  0.14409106  0.50386649  1
  O  O225  1  0.74371566  0.12874101  0.99148987  1
  O  O226  1  0.72359049  0.65601216  0.52885029  1
  O  O227  1  0.73936671  0.64063738  1.00959895  1
  O  O228  1  0.27191239  0.35059755  -0.00744974  1
  O  O229  1  0.23225196  0.40404914  0.43958645  1
  O  O230  1  0.24391887  0.88618364  0.01678057  1
  O  O231  1  0.26767642  0.86838947  0.50900458  1
  O  O232  1  0.74584494  0.35656284  -0.00433600  1
  O  O233  1  0.75322305  0.34755228  0.49472209  1
  O  O234  1  0.75030620  0.87129697  0.00825902  1
  O  O235  1  0.75396259  0.88195644  0.51534485  1
  O  O236  1  0.14016912  0.48826676  0.20257034  1
  O  O237  1  0.15710853  0.47838618  0.75156407  1
  O  O238  1  0.13327223  1.00412544  0.24268055  1
  O  O239  1  0.13955876  1.00444864  0.74038432  1
  O  O240  1  0.62149109  0.48455000  0.23720335  1
  O  O241  1  0.61263126  0.48526505  0.75007999  1
  O  O242  1  0.63259514  0.99829502  0.24227120  1
  O  O243  1  0.63486140  0.99146718  0.74214996  1
  O  O244  1  0.36206616  0.00857180  0.25179740  1
  O  O245  1  0.37097838  0.00434852  0.75901932  1
  O  O246  1  0.34666830  0.49722172  0.23738148  1
  O  O247  1  0.39284142  0.50439509  0.76282141  1
  O  O248  1  0.87325206  0.01186019  0.26332701  1
  O  O249  1  0.86706007  -0.00839363  0.76220748  1
  O  O250  1  0.86357898  0.52872210  0.19647654  1
  O  O251  1  0.89652999  0.51479759  0.76019390  1
  O  O252  1  0.10585074  0.35656001  0.37143343  1
  O  O253  1  0.13117818  0.35273645  0.86092747  1
  O  O254  1  0.12464321  0.87892247  0.36130504  1
  O  O255  1  0.13581394  0.87548216  0.86090046  1
  O  O256  1  0.63298715  0.36766174  0.35969722  1
  O  O257  1  0.61797987  0.36565603  0.88478111  1
  O  O258  1  0.62315107  0.89618390  0.35869168  1
  O  O259  1  0.61978121  0.87184745  0.86873987  1
  O  O260  1  0.38228948  0.12939962  0.13070675  1
  O  O261  1  0.38354841  0.11459574  0.64373146  1
  O  O262  1  0.41101015  0.61145614  0.13894640  1
  O  O263  1  0.37415965  0.63871798  0.64372468  1
  O  O264  1  0.87090532  0.13885411  0.13797065  1
  O  O265  1  0.88619290  0.11433429  0.63017525  1
  O  O266  1  0.89426229  0.63709857  0.10015045  1
  O  O267  1  0.85922499  0.64022128  0.62629549  1
  O  O268  1  0.26130062  0.23866166  0.11016228  1
  O  O269  1  0.25482019  0.21378686  0.59906916  1
  O  O270  1  0.23520456  0.77110834  0.13056390  1
  O  O271  1  0.24241319  0.76293725  0.63373216  1
  O  O272  1  0.75850058  0.24778205  0.11102744  1
  O  O273  1  0.78156524  0.24327756  0.61614305  1
  O  O274  1  0.73460729  0.75411041  0.11805083  1
  O  O275  1  0.76451972  0.77078614  0.63546063  1
  O  O276  1  0.22395040  0.24648903  0.35562287  1
  O  O277  1  0.25197454  0.23746970  0.88409467  1
  O  O278  1  0.21181088  0.75054697  0.35865687  1
  O  O279  1  0.24777939  0.76483418  0.89349130  1
  O  O280  1  0.74313752  0.24782398  0.38076225  1
  O  O281  1  0.75584307  0.24123504  0.88649047  1
  O  O282  1  0.79075899  0.72687438  0.36935418  1
  O  O283  1  0.73965140  0.76119196  0.89004894  1
  O  O284  1  -0.00640925  0.11468969  0.00501243  1
  O  O285  1  0.00343252  0.11283424  0.51589480  1
  O  O286  1  -0.00526745  0.62087511  -0.02765179  1
  O  O287  1  -0.01645807  0.60168354  0.49930799  1
  O  O288  1  0.50933037  0.11199866  0.00507728  1
  O  O289  1  0.51017040  0.10538247  0.49985247  1
  O  O290  1  0.51639756  0.60684711  -0.00482190  1
  O  O291  1  0.55691055  0.64186281  0.51625082  1
  O  O292  1  0.43613419  0.32633821  0.50752301  1
  O  O293  1  0.50073426  0.37070247  0.98953272  1
  O  O294  1  0.47805108  0.88729440  0.50446716  1
  O  O295  1  0.50964342  0.88520330  0.99346993  1
  O  O296  1  1.00008108  0.36873160  0.49713069  1
  O  O297  1  0.94625007  0.37859895  0.95953903  1
  O  O298  1  1.00222422  0.89715240  0.50716649  1
  O  O299  1  0.97856727  0.88631561  1.01105719  1
  O  O300  1  0.45761892  0.52346268  0.45735737  1
  O  O301  1  0.50230247  0.48179771  0.88068529  1
  O  O302  1  0.49714842  0.99848204  0.38269102  1
  O  O303  1  0.49666999  0.99033916  0.88377458  1
  O  O304  1  1.02227603  0.47922243  0.37886642  1
  O  O305  1  1.03420799  0.49228878  0.86391710  1
  O  O306  1  0.98983043  1.00841594  0.38636467  1
  O  O307  1  0.99239127  1.00526550  0.89220906  1
  O  O308  1  0.01173462  0.00254001  0.11653668  1
  O  O309  1  0.00781452  0.00488341  0.61723604  1
  O  O310  1  -0.00601422  0.51184270  0.09368137  1
  O  O311  1  0.00433579  0.52143964  0.60228872  1
  O  O312  1  0.50555197  0.00514494  0.11739132  1
  O  O313  1  0.51414142  -0.00715561  0.63041797  1
  O  O314  1  0.51969528  0.47965103  0.10519903  1
  O  O315  1  0.49504413  0.54782952  0.61472922  1
  O  O316  1  0.24458587  0.39532419  0.23689038  1
  O  O317  1  0.25880167  0.37154085  0.74740906  1
  O  O318  1  0.24194211  0.89265592  0.24524106  1
  O  O319  1  0.26202515  0.88708814  0.73397890  1
  O  O320  1  0.74523288  0.37423836  0.24808869  1
  O  O321  1  0.68719528  0.33947895  0.71627652  1
  O  O322  1  0.74958945  0.89696919  0.24928192  1
  O  O323  1  0.74289685  0.88761974  0.74828040  1
  O  O324  1  0.26397855  0.11476883  0.24597593  1
  O  O325  1  0.26545089  0.11470780  0.75796333  1
  O  O326  1  0.23421802  0.60532340  0.21702286  1
  O  O327  1  0.27167041  0.59876081  0.75924231  1
  O  O328  1  0.76333907  0.11508318  0.24915256  1
  O  O329  1  0.74686130  0.11342150  0.75987764  1
  O  O330  1  0.74165599  0.62813571  0.24189421  1
  O  O331  1  0.76231924  0.61286997  0.78078779  1
  O  O332  1  0.37997015  0.13388823  0.35751167  1
  O  O333  1  0.36889742  0.10972983  0.86968432  1
  O  O334  1  0.32885304  0.60598275  0.40520420  1
  O  O335  1  0.39226502  0.60620278  0.88112898  1
  O  O336  1  0.87564343  0.12670359  0.36411277  1
  O  O337  1  0.86210766  0.11140647  0.87976650  1
  O  O338  1  0.88442762  0.61491776  0.32782624  1
  O  O339  1  0.87991676  0.52679547  0.92530857  1
  O  O340  1  0.09865102  0.39869658  0.03851753  1
  O  O341  1  0.15932101  0.34927488  0.63294892  1
  O  O342  1  0.13193909  0.89116645  0.14001906  1
  O  O343  1  0.14190881  0.88896601  0.61144012  1
  O  O344  1  0.63031022  0.37321883  0.13886170  1
  O  O345  1  0.57048387  0.39922070  0.60963511  1
  O  O346  1  0.62040750  0.88994505  0.13397681  1
  O  O347  1  0.63559618  0.88355856  0.63381110  1
  O  O348  1  0.10696727  0.24474008  0.24272134  1
  O  O349  1  0.13972628  0.25070784  0.75954379  1
  O  O350  1  0.11090964  0.76919142  0.24974380  1
  O  O351  1  0.10808042  0.76292753  0.77311741  1
  O  O352  1  0.63521880  0.25833854  0.25748105  1
  O  O353  1  0.61480659  0.21138954  0.75786111  1
  O  O354  1  0.65091928  0.77766549  0.25669338  1
  O  O355  1  0.64116768  0.76367853  0.76328427  1
  O  O356  1  0.38371001  0.24044208  0.23884630  1
  O  O357  1  0.38748057  0.22975674  0.75769265  1
  O  O358  1  0.37422792  0.74960744  0.22351289  1
  O  O359  1  0.37044507  0.73544051  0.76727526  1
  O  O360  1  0.87944844  0.24307561  0.24345696  1
  O  O361  1  0.86042722  0.27265472  0.75155483  1
  O  O362  1  0.87097336  0.73510947  0.22129074  1
  O  O363  1  0.87718564  0.76181738  0.73706240  1
  O  O364  1  0.28666787  0.43174442  0.49490387  1
  O  O365  1  0.39225780  0.48679837  0.99115598  1
  O  O366  1  0.38333227  1.00989053  0.49299702  1
  O  O367  1  0.38701871  1.00511409  0.99082617  1
  O  O368  1  0.95666326  0.53740861  0.54253363  1
  O  O369  1  0.83760997  0.50092798  0.97967257  1
  O  O370  1  0.88308510  1.00809068  0.48729331  1
  O  O371  1  0.88132655  0.99905710  1.00057301  1
  O  O372  1  0.11104377  -0.00049647  0.01010682  1
  O  O373  1  0.11855688  0.00440763  0.50183754  1
  O  O374  1  0.20392042  0.59307816  -0.02424909  1
  O  O375  1  0.15463663  0.54483427  0.49138548  1
  O  O376  1  0.62065292  0.00543832  0.00746741  1
  O  O377  1  0.61525645  -0.00705925  0.51330536  1
  O  O378  1  0.62803242  0.50660428  -0.01342411  1
  O  O379  1  0.66072552  0.49503149  0.51109242  1
  O  O380  1  0.39032208  0.35653461  0.11035686  1
  O  O381  1  0.39050560  0.37136713  0.61433512  1
  O  O382  1  0.35587541  0.88688824  0.12886386  1
  O  O383  1  0.36504677  0.86894913  0.61619985  1
  O  O384  1  0.87358093  0.35304617  0.12542444  1
  O  O385  1  0.89262747  0.36928700  0.63118999  1
  O  O386  1  0.86408553  0.89322709  0.12032338  1
  O  O387  1  0.86379949  0.88817721  0.62443776  1
  O  O388  1  0.10701692  0.14215396  0.37898459  1
  O  O389  1  0.14343567  0.12831181  0.86468281  1
  O  O390  1  0.08759617  0.64000434  0.36779184  1
  O  O391  1  0.13401500  0.65989428  0.84998420  1
  O  O392  1  0.62245611  0.14011209  0.36681617  1
  O  O393  1  0.63620828  0.11282448  0.88833208  1
  O  O394  1  0.66142055  0.64313524  0.37841204  1
  O  O395  1  0.62209641  0.63956934  0.88354489  1
