# generated using pymatgen
data_V35Zn35O128
_symmetry_space_group_name_H-M   'P 1'
_cell_length_a   16.90364209
_cell_length_b   16.88535054
_cell_length_c   16.94265214
_cell_angle_alpha   89.89782583
_cell_angle_beta   89.67747831
_cell_angle_gamma   90.45312779
_symmetry_Int_Tables_number   1
_chemical_formula_structural   V35Zn35O128
_chemical_formula_sum   'V70 Zn70 O256'
_cell_volume   4835.60230143
_cell_formula_units_Z   2
loop_
 _symmetry_equiv_pos_site_id
 _symmetry_equiv_pos_as_xyz
  1  'x, y, z'
loop_
 _atom_site_type_symbol
 _atom_site_label
 _atom_site_symmetry_multiplicity
 _atom_site_fract_x
 _atom_site_fract_y
 _atom_site_fract_z
 _atom_site_occupancy
  V  V0  1  -0.00349290  0.86746515  0.37523355  1
  V  V1  1  0.86356213  0.61587733  0.75835462  1
  V  V2  1  0.63215409  0.49798775  0.63824869  1
  V  V3  1  -0.00702711  -0.00369603  0.01406809  1
  V  V4  1  0.60955036  0.87405781  0.75023049  1
  V  V5  1  0.50598477  -0.00816813  0.00518583  1
  V  V6  1  0.00637823  0.87948542  0.87282693  1
  V  V7  1  0.74863128  0.37600294  0.64096068  1
  V  V8  1  0.12708744  0.24581600  0.87686856  1
  V  V9  1  0.49813812  0.49899055  0.49538013  1
  V  V10  1  0.04347160  0.55420022  0.58668789  1
  V  V11  1  0.73873243  -0.00317993  0.24863692  1
  V  V12  1  0.85965547  0.74559354  0.63295247  1
  V  V13  1  -0.03079179  0.01431962  0.48530079  1
  V  V14  1  0.13472728  0.37074876  0.74371092  1
  V  V15  1  0.13392595  0.86886354  0.25952464  1
  V  V16  1  0.86769159  0.62189804  0.25805594  1
  V  V17  1  0.63937184  0.75465530  0.88734491  1
  V  V18  1  0.85098615  0.75547969  0.12457691  1
  V  V19  1  0.26075117  0.75065001  -0.00682324  1
  V  V20  1  0.37720008  0.48881205  0.88566065  1
  V  V21  1  0.75187079  0.25865604  0.48938471  1
  V  V22  1  0.75252006  0.88660540  0.63999174  1
  V  V23  1  0.37605412  0.63249513  0.75621116  1
  V  V24  1  0.46768470  0.62165310  0.11779960  1
  V  V25  1  0.19985391  -0.01784934  0.71361103  1
  V  V26  1  0.61656160  0.50122641  0.10744596  1
  V  V27  1  0.63202414  0.74396765  0.38624222  1
  V  V28  1  -0.01877073  0.38463499  0.38152288  1
  V  V29  1  0.62176507  0.12652740  0.48428884  1
  V  V30  1  0.25494314  0.37839189  0.12028377  1
  V  V31  1  0.61965976  0.86543401  0.24091425  1
  V  V32  1  0.37932606  0.25061781  0.12175001  1
  V  V33  1  0.86045951  0.85818858  0.49147831  1
  V  V34  1  0.14538232  0.29757743  0.40416250  1
  V  V35  1  0.36800479  0.77866827  0.14933224  1
  V  V36  1  0.37108336  0.00848991  0.87349088  1
  V  V37  1  0.14651871  -0.00286826  0.13591239  1
  V  V38  1  0.62784198  0.23504418  0.86336769  1
  V  V39  1  0.87052246  0.01261686  0.85658259  1
  V  V40  1  0.00216617  0.75252260  0.74012565  1
  V  V41  1  0.37455970  0.23026079  0.62610230  1
  V  V42  1  0.11566336  0.37908272  0.23024895  1
  V  V43  1  0.25861704  0.24508034  0.00000146  1
  V  V44  1  0.50194683  0.88944875  0.39496059  1
  V  V45  1  0.48449263  0.37784962  0.37499370  1
  V  V46  1  0.51498785  0.12278922  0.12036706  1
  V  V47  1  -0.00013368  0.12085439  0.62588459  1
  V  V48  1  0.25658562  0.73759454  0.49702369  1
  V  V49  1  0.01822307  0.64669039  0.12574140  1
  V  V50  1  0.48661297  0.86510861  0.87842353  1
  V  V51  1  0.88360435  0.23621183  0.11867657  1
  V  V52  1  0.51351995  0.37120644  0.88168976  1
  V  V53  1  -0.00385769  0.38889659  0.88163467  1
  V  V54  1  0.26233194  0.50556476  0.26335712  1
  V  V55  1  0.61442290  0.01248740  0.62479411  1
  V  V56  1  0.74225779  0.22810823  -0.00027007  1
  V  V57  1  0.63520363  0.38613185  0.25594992  1
  V  V58  1  0.37210305  0.11785730  0.25527114  1
  V  V59  1  0.50933822  0.25221123  0.25368103  1
  V  V60  1  0.12015653  0.12068385  0.48859769  1
  V  V61  1  0.74657353  0.60928574  0.88459780  1
  V  V62  1  0.87830580  0.11649852  0.25481114  1
  V  V63  1  0.50313400  0.63290028  0.63223370  1
  V  V64  1  0.75906956  0.37867334  0.11269157  1
  V  V65  1  0.24626464  0.10666853  0.36939945  1
  V  V66  1  0.12721787  0.11822600  0.00818020  1
  V  V67  1  0.88771537  0.26710447  0.62247403  1
  V  V68  1  0.25861668  0.49253446  0.73774022  1
  V  V69  1  0.11921182  0.73006028  0.87615461  1
  Zn  Zn70  1  0.24955442  0.11412761  0.86047060  1
  Zn  Zn71  1  0.00532710  0.24189638  0.24916329  1
  Zn  Zn72  1  0.84690888  0.86342587  -0.00317384  1
  Zn  Zn73  1  0.63801426  0.62146086  0.49711867  1
  Zn  Zn74  1  0.79420139  0.08561908  0.41304252  1
  Zn  Zn75  1  -0.01366036  0.24263702  0.76664592  1
  Zn  Zn76  1  0.18618768  0.18974713  0.18896718  1
  Zn  Zn77  1  0.17234852  0.16946192  0.69295385  1
  Zn  Zn78  1  0.20063059  0.69038574  0.18867441  1
  Zn  Zn79  1  0.18351976  0.67556187  0.69609384  1
  Zn  Zn80  1  0.69850817  0.18755378  0.19343601  1
  Zn  Zn81  1  0.69861449  0.18700055  0.68975133  1
  Zn  Zn82  1  0.68185017  0.68248199  0.20301400  1
  Zn  Zn83  1  0.68250674  0.68983132  0.69648676  1
  Zn  Zn84  1  0.31271916  0.31285758  0.30443415  1
  Zn  Zn85  1  0.31414925  0.31634854  0.82241224  1
  Zn  Zn86  1  0.32010701  0.83487548  0.32260522  1
  Zn  Zn87  1  0.29953683  0.81953914  0.80737186  1
  Zn  Zn88  1  0.81234262  0.30725523  0.30059263  1
  Zn  Zn89  1  0.81222387  0.30527477  0.81679338  1
  Zn  Zn90  1  0.80656890  0.80598847  0.30389970  1
  Zn  Zn91  1  0.81739114  0.82505195  0.81635592  1
  Zn  Zn92  1  0.15028093  0.48562006  0.42798062  1
  Zn  Zn93  1  0.18686710  0.44083395  0.92870861  1
  Zn  Zn94  1  0.14362535  0.91259252  0.48654787  1
  Zn  Zn95  1  0.18807001  0.92710245  0.94500199  1
  Zn  Zn96  1  0.68794339  0.44049428  0.44607610  1
  Zn  Zn97  1  0.69242343  0.42658751  0.93620526  1
  Zn  Zn98  1  0.68333386  0.93890609  0.43539071  1
  Zn  Zn99  1  0.68595787  0.94780268  0.92520354  1
  Zn  Zn100  1  0.32168193  0.06017219  0.06038179  1
  Zn  Zn101  1  0.28133981  0.05880080  0.56355062  1
  Zn  Zn102  1  0.27716777  0.55901318  0.04320000  1
  Zn  Zn103  1  0.32721614  0.55384571  0.57000864  1
  Zn  Zn104  1  0.78282055  0.02465045  0.04265185  1
  Zn  Zn105  1  0.80215728  0.08253518  0.59208071  1
  Zn  Zn106  1  0.77699881  0.59600071  0.09225989  1
  Zn  Zn107  1  0.83520733  0.54568043  0.56838259  1
  Zn  Zn108  1  0.43838687  0.44174705  0.18464463  1
  Zn  Zn109  1  0.46924711  0.45404671  0.71586437  1
  Zn  Zn110  1  0.44960248  0.94109421  0.19884348  1
  Zn  Zn111  1  0.44385504  1.04698379  0.69729285  1
  Zn  Zn112  1  0.92721461  0.44685421  0.17264409  1
  Zn  Zn113  1  0.93535887  0.42587704  0.70865338  1
  Zn  Zn114  1  0.93156215  0.92807338  0.19343045  1
  Zn  Zn115  1  0.94955805  0.93562319  0.68289564  1
  Zn  Zn116  1  0.05561402  0.05758023  0.31001503  1
  Zn  Zn117  1  0.06264261  0.06205071  0.81132157  1
  Zn  Zn118  1  0.06663693  0.55640873  0.28223769  1
  Zn  Zn119  1  0.05442089  0.55610859  0.77755453  1
  Zn  Zn120  1  0.56510155  0.06140555  0.31244689  1
  Zn  Zn121  1  0.56753703  0.05602655  0.81708200  1
  Zn  Zn122  1  0.55504678  0.56897742  0.30112991  1
  Zn  Zn123  1  0.56272119  0.56716609  0.82418117  1
  Zn  Zn124  1  0.44537442  0.18054150  0.42775008  1
  Zn  Zn125  1  0.44605886  0.18370417  0.93483150  1
  Zn  Zn126  1  0.45411311  0.69396404  0.44225217  1
  Zn  Zn127  1  0.43934038  0.67955214  0.94227911  1
  Zn  Zn128  1  0.94142983  0.21079154  0.43302135  1
  Zn  Zn129  1  0.93845732  0.18098845  0.94545806  1
  Zn  Zn130  1  0.97417582  0.58234081  0.42458310  1
  Zn  Zn131  1  0.92913472  0.69215794  0.93783701  1
  Zn  Zn132  1  0.06405144  0.31417138  0.05484795  1
  Zn  Zn133  1  0.07214384  0.33971222  0.55065709  1
  Zn  Zn134  1  0.08410943  0.81835774  0.05627365  1
  Zn  Zn135  1  0.03943568  0.74935049  0.52679184  1
  Zn  Zn136  1  0.56716120  0.31401590  0.05902745  1
  Zn  Zn137  1  0.57600144  0.31818608  0.55394225  1
  Zn  Zn138  1  0.54993901  0.79970217  0.06372547  1
  Zn  Zn139  1  0.57451178  0.81004193  0.56037963  1
  O  O140  1  0.13125999  0.11127169  0.11980115  1
  O  O141  1  0.10978395  0.13858405  0.59993261  1
  O  O142  1  0.11766544  0.63732326  0.12605342  1
  O  O143  1  0.10595528  0.61911627  0.63819606  1
  O  O144  1  0.61178044  0.12907175  0.13823661  1
  O  O145  1  0.62473279  0.11337289  0.63111792  1
  O  O146  1  0.65487134  0.59750823  0.12679130  1
  O  O147  1  0.62354191  0.61545322  0.62606536  1
  O  O148  1  0.38626178  0.37397206  0.37434337  1
  O  O149  1  0.38720964  0.38071799  0.87912556  1
  O  O150  1  0.39982386  0.87694211  0.38358775  1
  O  O151  1  0.38566564  0.87533073  0.87051090  1
  O  O152  1  0.88303771  0.37176751  0.36148676  1
  O  O153  1  0.89777046  0.36703745  0.86203113  1
  O  O154  1  0.87477279  0.86054670  0.38688551  1
  O  O155  1  0.88649352  0.88631274  0.88403500  1
  O  O156  1  0.25591991  0.01217960  0.37421879  1
  O  O157  1  0.26755396  -0.00730280  0.89481272  1
  O  O158  1  0.24479759  0.48753832  0.36191865  1
  O  O159  1  0.27165645  0.48821591  0.86019372  1
  O  O160  1  0.74982762  -0.00259387  0.36160283  1
  O  O161  1  0.77029105  0.00526744  0.86885160  1
  O  O162  1  0.76567147  0.52989470  0.41892786  1
  O  O163  1  0.73777695  0.51049650  0.87247745  1
  O  O164  1  0.26632623  0.47771142  0.12808027  1
  O  O165  1  0.26148718  0.49013649  0.63742689  1
  O  O166  1  0.24528582  0.99841551  0.12559804  1
  O  O167  1  0.21767026  0.98161760  0.61134587  1
  O  O168  1  0.75424397  0.48048937  0.11249464  1
  O  O169  1  0.74391843  0.48926996  0.61862091  1
  O  O170  1  0.75661123  1.00598741  0.15057156  1
  O  O171  1  0.73719586  0.98670318  0.62372541  1
  O  O172  1  0.01410319  0.38537403  0.21779220  1
  O  O173  1  0.02097346  0.36090083  0.76353202  1
  O  O174  1  -0.00043942  0.87396752  0.27081897  1
  O  O175  1  -0.00884542  0.86252032  0.76202051  1
  O  O176  1  0.50887038  0.37346297  0.26131743  1
  O  O177  1  0.49641147  0.36354513  0.77218172  1
  O  O178  1  0.51765296  0.88428544  0.26881538  1
  O  O179  1  0.50781118  0.87437971  0.76540312  1
  O  O180  1  0.49307853  0.13375981  0.24849752  1
  O  O181  1  0.49850228  0.12230018  0.75696716  1
  O  O182  1  0.50559672  0.62266169  0.21489908  1
  O  O183  1  0.49472810  0.61943890  0.74074065  1
  O  O184  1  0.98617237  0.12538551  0.24978793  1
  O  O185  1  1.01932672  0.13549085  0.72790829  1
  O  O186  1  0.99616575  0.62520262  0.22599884  1
  O  O187  1  0.97359849  0.64636800  0.75619915  1
  O  O188  1  0.36947312  0.23339240  0.01096220  1
  O  O189  1  0.37400925  0.22604101  0.52174804  1
  O  O190  1  0.36056357  0.75860545  -0.02116449  1
  O  O191  1  0.35917094  0.75237363  0.51138181  1
  O  O192  1  0.86414506  0.23878051  0.01105353  1
  O  O193  1  0.86243780  0.25232882  0.51181622  1
  O  O194  1  0.87258763  0.75242659  0.01458103  1
  O  O195  1  0.87355496  0.76012975  0.52074958  1
  O  O196  1  0.10622378  0.23213930  0.48055202  1
  O  O197  1  0.13541820  0.23733332  0.99571419  1
  O  O198  1  0.15395646  0.71924443  0.48125449  1
  O  O199  1  0.09692507  0.72913495  0.97323796  1
  O  O200  1  0.64072818  0.23635314  0.51123938  1
  O  O201  1  0.63926661  0.24429817  1.00094864  1
  O  O202  1  0.63528378  0.73877792  0.49381385  1
  O  O203  1  0.62452221  0.76113387  0.98563749  1
  O  O204  1  0.49704748  0.24087040  0.13035051  1
  O  O205  1  0.47858532  0.23713686  0.62523985  1
  O  O206  1  0.46375524  0.74052398  0.11692554  1
  O  O207  1  0.51231472  0.73144635  0.62181329  1
  O  O208  1  0.98623505  0.25251123  0.11663197  1
  O  O209  1  0.99034070  0.26597011  0.61253948  1
  O  O210  1  1.00532802  0.74674071  0.11196112  1
  O  O211  1  0.97888732  0.75908152  0.63719054  1
  O  O212  1  0.01182597  0.27398061  0.36515412  1
  O  O213  1  0.01676387  0.24657293  0.88068389  1
  O  O214  1  0.00825157  0.77546662  0.40991526  1
  O  O215  1  -0.00103804  0.75883073  0.86376578  1
  O  O216  1  0.49816652  0.26554853  0.36636529  1
  O  O217  1  0.51887767  0.25294680  0.88073329  1
  O  O218  1  0.51666709  0.76629441  0.38656507  1
  O  O219  1  0.50783984  0.76358337  0.88306769  1
  O  O220  1  0.23037715  0.12240954  0.48445318  1
  O  O221  1  0.24246724  0.12923234  1.00226780  1
  O  O222  1  0.26832175  0.63355908  0.50621730  1
  O  O223  1  0.23843765  0.65335270  0.99388204  1
  O  O224  1  0.74603076  0.13954472  0.50411930  1
  O  O225  1  0.74851757  0.12895870  1.00711860  1
  O  O226  1  0.76298539  0.58548430  0.47536521  1
  O  O227  1  0.75469851  0.62106493  0.98261847  1
  O  O228  1  0.25181224  0.35414210  0.01031055  1
  O  O229  1  0.17329852  0.36518993  0.47382862  1
  O  O230  1  0.20056424  0.83879326  0.01444424  1
  O  O231  1  0.24290190  0.84168455  0.49330230  1
  O  O232  1  0.75077433  0.35987777  0.01027825  1
  O  O233  1  0.74216248  0.36301627  0.51077558  1
  O  O234  1  0.75119187  0.91899470  0.01013371  1
  O  O235  1  0.76091519  0.88175890  0.50932114  1
  O  O236  1  0.14301573  0.48299180  0.23401174  1
  O  O237  1  0.14782756  0.48089942  0.75600252  1
  O  O238  1  0.12421803  1.00186939  0.23820616  1
  O  O239  1  0.09987113  0.98316679  0.73272942  1
  O  O240  1  0.62108971  0.48721261  0.23780042  1
  O  O241  1  0.62308541  0.50551198  0.73671076  1
  O  O242  1  0.63307827  0.99345925  0.24846679  1
  O  O243  1  0.62210411  0.98524864  0.74083101  1
  O  O244  1  0.38245357  0.01993705  0.25288457  1
  O  O245  1  0.37584213  -0.00257295  0.77195576  1
  O  O246  1  0.36362293  0.49060471  0.25316602  1
  O  O247  1  0.37111381  0.50213395  0.75343766  1
  O  O248  1  0.87259787  0.01214780  0.25192916  1
  O  O249  1  0.88776456  -0.00531982  0.75883409  1
  O  O250  1  0.87515831  0.52101902  0.23577180  1
  O  O251  1  0.86919391  0.51784404  0.74837861  1
  O  O252  1  0.10561245  0.38330169  0.34519632  1
  O  O253  1  0.12582796  0.36160176  0.87138716  1
  O  O254  1  0.10486443  0.89268637  0.37262789  1
  O  O255  1  0.10809060  0.86735926  0.87373104  1
  O  O256  1  0.63512979  0.38609834  0.35781695  1
  O  O257  1  0.61925766  0.36394362  0.87563237  1
  O  O258  1  0.62080593  0.86458083  0.37432300  1
  O  O259  1  0.61896658  0.87283310  0.86545742  1
  O  O260  1  0.38320281  0.13181676  0.13951660  1
  O  O261  1  0.37585728  0.12392905  0.62702200  1
  O  O262  1  0.36907888  0.60636113  0.11306399  1
  O  O263  1  0.39423486  0.61926114  0.63900940  1
  O  O264  1  0.87374218  0.13500718  0.13714291  1
  O  O265  1  0.89914038  0.14851945  0.61839356  1
  O  O266  1  0.87723842  0.64235924  0.12961600  1
  O  O267  1  0.85464192  0.64097136  0.63928296  1
  O  O268  1  0.26237071  0.24939051  0.11942100  1
  O  O269  1  0.26942713  0.22458885  0.62835929  1
  O  O270  1  0.27275128  0.74624391  0.11260922  1
  O  O271  1  0.23847309  0.74020864  0.60075545  1
  O  O272  1  0.75648474  0.25294001  0.11481633  1
  O  O273  1  0.75955712  0.26690467  0.62155854  1
  O  O274  1  0.75067252  0.74371778  0.12500786  1
  O  O275  1  0.75510612  0.76559411  0.63173591  1
  O  O276  1  0.23290796  0.25733296  0.36952459  1
  O  O277  1  0.24837975  0.24170677  0.88427078  1
  O  O278  1  0.26798984  0.73848507  0.39298781  1
  O  O279  1  0.22561943  0.76020529  0.87898170  1
  O  O280  1  0.75414608  0.25921576  0.39024978  1
  O  O281  1  0.74248821  0.25111065  0.89051351  1
  O  O282  1  0.73260371  0.75253133  0.37286110  1
  O  O283  1  0.74101883  0.76125950  0.87866836  1
  O  O284  1  0.01789687  0.10705125  -0.00378356  1
  O  O285  1  -0.00126536  0.12407760  0.49643724  1
  O  O286  1  -0.00390155  0.61450219  0.00630414  1
  O  O287  1  0.01208941  0.64169114  0.51994479  1
  O  O288  1  0.50321119  0.12258000  0.01769419  1
  O  O289  1  0.52072910  0.13430181  0.49570843  1
  O  O290  1  0.50571510  0.63156567  0.02085706  1
  O  O291  1  0.50268996  0.61207318  0.51464488  1
  O  O292  1  0.51273104  0.38128506  0.48211685  1
  O  O293  1  0.50018142  0.36708962  0.98502419  1
  O  O294  1  0.51774803  0.88096150  0.49644802  1
  O  O295  1  0.50157829  0.88337692  0.99139057  1
  O  O296  1  0.99253956  0.38239052  0.48147201  1
  O  O297  1  1.00938888  0.37912763  0.98210443  1
  O  O298  1  0.96522810  0.90258335  0.49609824  1
  O  O299  1  1.00574994  0.88797143  0.98989597  1
  O  O300  1  0.50431081  0.49238088  0.38474236  1
  O  O301  1  0.49520949  0.48556414  0.87024023  1
  O  O302  1  0.51135306  0.99203600  0.38309895  1
  O  O303  1  0.49044664  0.98863341  0.88400077  1
  O  O304  1  0.99161760  0.48580209  0.35301846  1
  O  O305  1  1.00898889  0.48713939  0.86187970  1
  O  O306  1  0.98339826  0.99892906  0.38405202  1
  O  O307  1  1.00069754  0.98839665  0.87795612  1
  O  O308  1  -0.00460192  -0.00809384  0.11407979  1
  O  O309  1  -0.01186002  0.01833454  0.60927064  1
  O  O310  1  -0.00786051  0.52211097  0.09735204  1
  O  O311  1  0.01062281  0.50464235  0.67338261  1
  O  O312  1  0.49913249  0.01131209  0.11624582  1
  O  O313  1  0.51447828  -0.00277733  0.62574274  1
  O  O314  1  0.51024705  0.50446711  0.11783406  1
  O  O315  1  0.51662303  0.49975172  0.61959099  1
  O  O316  1  0.24400618  0.37316825  0.23311113  1
  O  O317  1  0.24724861  0.37633489  0.75213872  1
  O  O318  1  0.23133778  0.88574923  0.27688804  1
  O  O319  1  0.24118709  0.89807853  0.75210323  1
  O  O320  1  0.73749375  0.36607786  0.23281479  1
  O  O321  1  0.75292617  0.37450050  0.73952921  1
  O  O322  1  0.73422408  0.88491608  0.25303391  1
  O  O323  1  0.74540888  0.88056735  0.74178231  1
  O  O324  1  0.26190685  0.13076624  0.25799700  1
  O  O325  1  0.22872154  0.08335950  0.74594719  1
  O  O326  1  0.24554612  0.60423851  0.24674636  1
  O  O327  1  0.26586302  0.60852450  0.74248605  1
  O  O328  1  0.76219958  0.11797661  0.25667313  1
  O  O329  1  0.77797153  0.11120182  0.70097514  1
  O  O330  1  0.76496618  0.62841498  0.25976870  1
  O  O331  1  0.75721663  0.63365039  0.76386326  1
  O  O332  1  0.36053930  0.13736873  0.36522157  1
  O  O333  1  0.37129267  0.11436972  0.87738455  1
  O  O334  1  0.37050905  0.63603136  0.39894857  1
  O  O335  1  0.39303049  0.60854792  0.86038717  1
  O  O336  1  0.87882341  0.14245004  0.36014753  1
  O  O337  1  0.89496003  0.11234977  0.86649307  1
  O  O338  1  0.89835614  0.63156554  0.35440447  1
  O  O339  1  0.85921310  0.62994423  0.86706168  1
  O  O340  1  0.14406219  0.36705780  0.12164061  1
  O  O341  1  0.12852666  0.35751874  0.64629647  1
  O  O342  1  0.11962072  0.89001294  0.14691553  1
  O  O343  1  0.09834538  0.83920666  0.55905758  1
  O  O344  1  0.63152638  0.38561171  0.12882983  1
  O  O345  1  0.63520825  0.38532860  0.62738946  1
  O  O346  1  0.60771511  0.86202432  0.14172001  1
  O  O347  1  0.63349122  0.87599001  0.63726243  1
  O  O348  1  0.12073875  0.26682590  0.24138710  1
  O  O349  1  0.13915322  0.25270042  0.76543597  1
  O  O350  1  0.13462058  0.76897547  0.24894183  1
  O  O351  1  0.10603848  0.75026530  0.74742208  1
  O  O352  1  0.61397989  0.26375153  0.24138617  1
  O  O353  1  0.64013235  0.24671701  0.76421620  1
  O  O354  1  0.62400318  0.76095588  0.26171983  1
  O  O355  1  0.62751642  0.76828306  0.76165665  1
  O  O356  1  0.38869879  0.24510266  0.24193599  1
  O  O357  1  0.37317252  0.23591846  0.72999487  1
  O  O358  1  0.35901981  0.75980886  0.24696214  1
  O  O359  1  0.36214679  0.73142980  0.76111033  1
  O  O360  1  0.87887191  0.24206936  0.23430045  1
  O  O361  1  0.87763647  0.25689497  0.72954888  1
  O  O362  1  0.87227908  0.74458775  0.23315819  1
  O  O363  1  0.87341606  0.75425506  0.74103646  1
  O  O364  1  0.39950821  0.49145036  0.51059198  1
  O  O365  1  0.36674824  0.50628177  0.98204669  1
  O  O366  1  0.37091603  1.00231882  0.50595793  1
  O  O367  1  0.39458401  1.00618528  0.99121214  1
  O  O368  1  0.93970495  0.52998900  0.53071302  1
  O  O369  1  0.97474180  0.53490825  1.01852615  1
  O  O370  1  0.86837523  1.02598046  0.50067934  1
  O  O371  1  0.89315991  1.00731018  0.99041518  1
  O  O372  1  0.12136852  0.00037403  0.01717636  1
  O  O373  1  0.09826354  0.01680253  0.49359820  1
  O  O374  1  0.17405671  0.51060432  0.01168040  1
  O  O375  1  0.10585935  0.49387261  0.53574393  1
  O  O376  1  0.60334399  0.00631622  -0.01436613  1
  O  O377  1  0.63447272  0.01754376  0.51297056  1
  O  O378  1  0.62793432  0.49206295  0.00948696  1
  O  O379  1  0.61771908  0.50508533  0.51187942  1
  O  O380  1  0.37047317  0.35864889  0.12970749  1
  O  O381  1  0.36832311  0.33446968  0.61935477  1
  O  O382  1  0.37733230  0.87825858  0.13687264  1
  O  O383  1  0.38558262  0.94557374  0.55134144  1
  O  O384  1  0.86200445  0.36171934  0.12753150  1
  O  O385  1  0.86562741  0.37628753  0.62639672  1
  O  O386  1  0.87204301  0.86041532  0.12509919  1
  O  O387  1  0.86199749  0.87515478  0.62181739  1
  O  O388  1  0.13409712  0.11930195  0.37452159  1
  O  O389  1  0.13125981  0.12731131  0.88369874  1
  O  O390  1  0.09460960  0.58071683  0.38928736  1
  O  O391  1  0.11593794  0.63414427  0.84735125  1
  O  O392  1  0.63148807  0.12581065  0.38472954  1
  O  O393  1  0.62604962  0.13488306  0.87499012  1
  O  O394  1  0.61212612  0.63855949  0.37308577  1
  O  O395  1  0.63695293  0.64412233  0.86842344  1
