# generated using pymatgen
data_V35Zn35O128
_symmetry_space_group_name_H-M   'P 1'
_cell_length_a   16.91796462
_cell_length_b   16.91520525
_cell_length_c   16.89068346
_cell_angle_alpha   90.08797574
_cell_angle_beta   89.88593249
_cell_angle_gamma   90.00188544
_symmetry_Int_Tables_number   1
_chemical_formula_structural   V35Zn35O128
_chemical_formula_sum   'V70 Zn70 O256'
_cell_volume   4833.60586198
_cell_formula_units_Z   2
loop_
 _symmetry_equiv_pos_site_id
 _symmetry_equiv_pos_as_xyz
  1  'x, y, z'
loop_
 _atom_site_type_symbol
 _atom_site_label
 _atom_site_symmetry_multiplicity
 _atom_site_fract_x
 _atom_site_fract_y
 _atom_site_fract_z
 _atom_site_occupancy
  V  V0  1  0.24399986  0.50742858  0.27656479  1
  V  V1  1  0.61676374  0.49931714  0.62830542  1
  V  V2  1  0.12516483  0.51498923  0.62009129  1
  V  V3  1  0.49802475  0.47697874  0.48846947  1
  V  V4  1  -0.02306824  0.37373324  0.39055602  1
  V  V5  1  0.37015079  0.00463664  0.34907561  1
  V  V6  1  0.11251586  0.11867133  0.51443346  1
  V  V7  1  0.88234591  0.36380314  0.00776681  1
  V  V8  1  0.88897501  0.63023711  0.74755933  1
  V  V9  1  0.62156972  0.01334529  0.63017807  1
  V  V10  1  0.38579075  0.38906632  0.02250072  1
  V  V11  1  0.73251857  0.24826538  -0.00102400  1
  V  V12  1  -0.00754324  0.52044214  0.49708609  1
  V  V13  1  0.26188032  0.25036955  0.50207259  1
  V  V14  1  0.74232706  0.37532694  0.12817276  1
  V  V15  1  0.62412210  0.00362609  0.11603399  1
  V  V16  1  0.00474620  0.50253845  0.00719763  1
  V  V17  1  0.75044575  0.50171376  0.75072251  1
  V  V18  1  0.49557253  0.00264905  0.49652399  1
  V  V19  1  0.00600986  0.62608048  0.12857172  1
  V  V20  1  0.75093923  0.75117736  0.50210709  1
  V  V21  1  0.23491929  0.38624895  0.14178498  1
  V  V22  1  0.88733284  0.74707060  0.62261384  1
  V  V23  1  0.73275377  0.50245641  0.24457826  1
  V  V24  1  0.12573878  0.25049741  0.37622903  1
  V  V25  1  0.63894507  0.13340188  0.48620483  1
  V  V26  1  0.87071694  0.75035211  0.12944699  1
  V  V27  1  0.36841278  0.24032905  0.14686580  1
  V  V28  1  0.62901947  0.75213840  0.88623135  1
  V  V29  1  0.61007261  0.61283285  0.00505333  1
  V  V30  1  0.88952738  -0.01112536  0.37985218  1
  V  V31  1  0.51321308  0.37257245  0.90144667  1
  V  V32  1  0.25156837  0.25125342  0.00209919  1
  V  V33  1  0.87406964  0.86799022  -0.01430608  1
  V  V34  1  0.48635878  0.87501898  0.88658206  1
  V  V35  1  0.12639603  0.24862634  0.86998971  1
  V  V36  1  0.12610420  0.75776148  0.36725098  1
  V  V37  1  0.88595014  0.14272167  0.74619950  1
  V  V38  1  0.51887691  0.34984635  0.34992486  1
  V  V39  1  0.01081243  0.37555468  0.86319545  1
  V  V40  1  -0.00375292  0.26035442  0.24347460  1
  V  V41  1  0.38313289  0.18009058  0.74906788  1
  V  V42  1  0.75025591  0.00613488  0.25835173  1
  V  V43  1  0.62164742  0.75637663  0.37086193  1
  V  V44  1  0.75108771  0.63011486  0.88525671  1
  V  V45  1  0.75885151  0.00071743  0.75795160  1
  V  V46  1  0.37636115  0.48941908  0.86167143  1
  V  V47  1  0.11509057  0.75632571  0.85898517  1
  V  V48  1  0.61559111  0.87521466  0.25172001  1
  V  V49  1  0.75509650  0.61828247  0.37487606  1
  V  V50  1  0.42061146  0.74254806  0.15729697  1
  V  V51  1  0.13860977  0.62447621  -0.00814305  1
  V  V52  1  0.62236900  0.62001501  0.50432035  1
  V  V53  1  0.24984959  0.37957145  0.62690486  1
  V  V54  1  0.62532002  0.36705892  0.76131569  1
  V  V55  1  0.74589223  0.87131161  0.62492863  1
  V  V56  1  0.48672495  0.73376358  0.75595395  1
  V  V57  1  0.87931950  0.50091933  0.87614361  1
  V  V58  1  0.62171278  0.87257378  0.75412810  1
  V  V59  1  0.49928964  0.12927159  0.14096554  1
  V  V60  1  0.74960811  0.87324750  0.12149252  1
  V  V61  1  0.24777681  0.77960505  -0.00157793  1
  V  V62  1  0.76272858  0.37082771  0.61368305  1
  V  V63  1  0.25944348  0.88327932  0.60865816  1
  V  V64  1  0.87419276  0.61887867  0.24906489  1
  V  V65  1  0.88302613  0.13018629  0.24322839  1
  V  V66  1  0.74454895  0.12950999  0.87866033  1
  V  V67  1  -0.01632026  0.00760338  0.00448447  1
  V  V68  1  0.11591629  0.12759673  0.01386817  1
  V  V69  1  0.48114927  0.01161432  -0.00193959  1
  Zn  Zn70  1  0.56456220  0.20121247  0.81659992  1
  Zn  Zn71  1  0.27962187  0.00712028  0.74330606  1
  Zn  Zn72  1  0.35694150  0.74472285  0.57022323  1
  Zn  Zn73  1  0.13060618  0.88972142  0.74020475  1
  Zn  Zn74  1  0.44957341  0.84194254  0.42929559  1
  Zn  Zn75  1  0.22867924  -0.01685342  0.22769979  1
  Zn  Zn76  1  0.17734169  0.18748842  0.19316238  1
  Zn  Zn77  1  0.19288318  0.18685470  0.68323229  1
  Zn  Zn78  1  0.19432505  0.69367342  0.17956301  1
  Zn  Zn79  1  0.18537284  0.69633526  0.67234012  1
  Zn  Zn80  1  0.69689477  0.18119557  0.17305649  1
  Zn  Zn81  1  0.70280374  0.18869980  0.68161187  1
  Zn  Zn82  1  0.68077605  0.69028692  0.18232984  1
  Zn  Zn83  1  0.68410764  0.68551752  0.69334559  1
  Zn  Zn84  1  0.31532689  0.31676090  0.33123994  1
  Zn  Zn85  1  0.29159176  0.34759538  0.82434905  1
  Zn  Zn86  1  0.31691819  0.82200956  0.30241277  1
  Zn  Zn87  1  0.29984205  0.81181347  0.81336106  1
  Zn  Zn88  1  0.81059057  0.31477886  0.30821543  1
  Zn  Zn89  1  0.81584396  0.31304881  0.81542372  1
  Zn  Zn90  1  0.80727308  0.81414638  0.30944761  1
  Zn  Zn91  1  0.81065860  0.80806271  0.80767735  1
  Zn  Zn92  1  0.17776244  0.43547894  0.43690336  1
  Zn  Zn93  1  0.19425484  0.43873707  0.95189552  1
  Zn  Zn94  1  0.20249472  0.95336161  0.43035096  1
  Zn  Zn95  1  0.15379223  0.94501299  0.93375472  1
  Zn  Zn96  1  0.68700783  0.42882103  0.43457840  1
  Zn  Zn97  1  0.69535243  0.44005234  0.94337047  1
  Zn  Zn98  1  0.68661978  0.94011128  0.44389774  1
  Zn  Zn99  1  0.68863583  0.93930190  0.93764794  1
  Zn  Zn100  1  0.28842018  0.06622914  0.08660402  1
  Zn  Zn101  1  0.31381098  0.07724108  0.56911167  1
  Zn  Zn102  1  0.32545216  0.57354424  0.14717418  1
  Zn  Zn103  1  0.30569506  0.54817173  0.53422186  1
  Zn  Zn104  1  0.81105778  0.06366889  0.06195427  1
  Zn  Zn105  1  0.81893057  0.06324329  0.56247535  1
  Zn  Zn106  1  0.81292894  0.55926099  0.06558609  1
  Zn  Zn107  1  0.81163776  0.55920050  0.56432755  1
  Zn  Zn108  1  0.41313215  0.41870270  0.24109149  1
  Zn  Zn109  1  0.42822652  0.37133277  0.69670551  1
  Zn  Zn110  1  0.40180482  0.93917857  0.15471628  1
  Zn  Zn111  1  0.43699775  0.92299423  0.67703122  1
  Zn  Zn112  1  0.93502948  0.43891271  0.19190979  1
  Zn  Zn113  1  0.94781552  0.44297554  0.67741069  1
  Zn  Zn114  1  0.93415072  0.94829457  0.17662604  1
  Zn  Zn115  1  0.93578350  0.92324421  0.68573148  1
  Zn  Zn116  1  0.06553115  0.06623337  0.31184674  1
  Zn  Zn117  1  0.03024443  0.02690540  0.80954554  1
  Zn  Zn118  1  0.05907097  0.55221476  0.31548350  1
  Zn  Zn119  1  0.07289066  0.56110974  0.80999842  1
  Zn  Zn120  1  0.56110300  0.05818473  0.31834677  1
  Zn  Zn121  1  0.45591701  0.05455781  0.81441048  1
  Zn  Zn122  1  0.55381362  0.56892858  0.31837235  1
  Zn  Zn123  1  0.55757051  0.55660386  0.82713797  1
  Zn  Zn124  1  0.44655510  0.17883300  0.43518224  1
  Zn  Zn125  1  0.43039472  0.19289067  0.94314331  1
  Zn  Zn126  1  0.42434626  0.65415455  0.43612374  1
  Zn  Zn127  1  0.39744618  0.65239844  0.98120206  1
  Zn  Zn128  1  0.95060848  0.16188405  0.41762669  1
  Zn  Zn129  1  0.93939365  0.18359976  0.92057464  1
  Zn  Zn130  1  0.93525556  0.69740375  0.43098479  1
  Zn  Zn131  1  0.93663722  0.68904673  0.93981586  1
  Zn  Zn132  1  0.06396624  0.31383562  0.06506513  1
  Zn  Zn133  1  0.08512807  0.33435148  0.54106490  1
  Zn  Zn134  1  0.04896114  0.80048855  0.04486917  1
  Zn  Zn135  1  0.08313589  0.79585614  0.56973509  1
  Zn  Zn136  1  0.53688799  0.34118297  0.12857381  1
  Zn  Zn137  1  0.55623218  0.29863801  0.56706327  1
  Zn  Zn138  1  0.55457029  0.81127151  0.06804896  1
  Zn  Zn139  1  0.54428830  0.79795843  0.56035848  1
  O  O140  1  0.10375279  0.15766941  0.10792377  1
  O  O141  1  0.12399780  0.12716039  0.61588748  1
  O  O142  1  0.10808392  0.63347491  0.11518023  1
  O  O143  1  0.13971443  0.61628678  0.60726258  1
  O  O144  1  0.61123039  0.11821740  0.12808922  1
  O  O145  1  0.62889329  0.11384844  0.63405773  1
  O  O146  1  0.63959480  0.62774532  0.10155129  1
  O  O147  1  0.63274833  0.61002651  0.61967620  1
  O  O148  1  0.40868067  0.37553030  0.35202566  1
  O  O149  1  0.39275892  0.37926866  0.91061037  1
  O  O150  1  0.36990671  0.89260401  0.37444256  1
  O  O151  1  0.38994479  0.87310458  0.87620614  1
  O  O152  1  0.87579185  0.36637083  0.38347223  1
  O  O153  1  0.88674348  0.38376250  0.88534677  1
  O  O154  1  0.87292660  0.88783126  0.36451970  1
  O  O155  1  0.86960934  0.86611090  0.88650129  1
  O  O156  1  0.26320339  -0.00049267  0.34612790  1
  O  O157  1  0.20506925  0.02205195  0.84992903  1
  O  O158  1  0.25292804  0.50293073  0.37821558  1
  O  O159  1  0.27406028  0.45807211  0.87358317  1
  O  O160  1  0.75058936  -0.00633722  0.35888485  1
  O  O161  1  0.74478729  0.00759779  0.86267805  1
  O  O162  1  0.74413164  0.50989905  0.36178128  1
  O  O163  1  0.76382407  0.50730978  0.87147942  1
  O  O164  1  0.24475296  0.48481708  0.12540144  1
  O  O165  1  0.23522581  0.49168540  0.59779216  1
  O  O166  1  0.29057778  0.96230395  0.13124142  1
  O  O167  1  0.26095167  0.98929958  0.62537196  1
  O  O168  1  0.75085906  0.49113709  0.13437220  1
  O  O169  1  0.74589659  0.49598938  0.63807498  1
  O  O170  1  0.74177482  0.99483058  0.13057536  1
  O  O171  1  0.74469770  0.98763295  0.63303804  1
  O  O172  1  -0.01640180  0.36607351  0.26591097  1
  O  O173  1  -0.00134025  0.38616039  0.76559049  1
  O  O174  1  0.03945789  0.87835435  0.20242341  1
  O  O175  1  0.02990150  0.94247817  0.73304283  1
  O  O176  1  0.51765283  0.36771044  0.24157186  1
  O  O177  1  0.52336156  0.37420954  0.77195977  1
  O  O178  1  0.51935297  0.88195382  0.24919163  1
  O  O179  1  0.51431206  0.87885224  0.76590785  1
  O  O180  1  0.50252236  0.12004725  0.23899090  1
  O  O181  1  0.48860177  0.14849341  0.75041763  1
  O  O182  1  0.50427981  0.56878880  0.17616174  1
  O  O183  1  0.50459941  0.63500272  0.76535752  1
  O  O184  1  0.98851875  0.14085328  0.25081061  1
  O  O185  1  0.98244717  0.12202871  0.77263601  1
  O  O186  1  0.99174200  0.61361330  0.23554672  1
  O  O187  1  0.98594735  0.62048131  0.75439295  1
  O  O188  1  0.36063352  0.25579009  0.01323434  1
  O  O189  1  0.36069645  0.24391386  0.48587495  1
  O  O190  1  0.34485420  0.75505884  -0.02168547  1
  O  O191  1  0.44591540  0.75274461  0.50101695  1
  O  O192  1  0.88570860  0.26475651  -0.00331816  1
  O  O193  1  0.87648127  0.23666140  0.51775669  1
  O  O194  1  0.87446180  0.76169144  0.00952201  1
  O  O195  1  0.86461240  0.73956313  0.51443705  1
  O  O196  1  0.12542084  0.23998892  0.49126177  1
  O  O197  1  0.13651019  0.25777424  0.99747865  1
  O  O198  1  0.12584233  0.75100145  0.47241793  1
  O  O199  1  0.12791068  0.73909927  0.99006596  1
  O  O200  1  0.62116358  0.23198306  0.50634874  1
  O  O201  1  0.63732143  0.25379014  1.00309697  1
  O  O202  1  0.63238179  0.74003726  0.49386829  1
  O  O203  1  0.62069668  0.74691866  0.98910867  1
  O  O204  1  0.48644112  0.23633555  0.12996176  1
  O  O205  1  0.48599437  0.28467778  0.64931213  1
  O  O206  1  0.52358526  0.73685665  0.15075054  1
  O  O207  1  0.50445412  0.75492294  0.65732004  1
  O  O208  1  0.99536142  0.26823527  0.14452894  1
  O  O209  1  0.92043931  0.25205335  0.57325635  1
  O  O210  1  0.98562394  0.73313469  0.11955345  1
  O  O211  1  0.98586737  0.75517429  0.61539721  1
  O  O212  1  -0.00301059  0.25913155  0.37005274  1
  O  O213  1  0.01194769  0.26790860  0.87891420  1
  O  O214  1  0.01931823  0.76336846  0.37068520  1
  O  O215  1  0.01437941  0.74374697  0.88168146  1
  O  O216  1  0.50736687  0.25167555  0.36904775  1
  O  O217  1  0.50830454  0.26665014  0.89442081  1
  O  O218  1  0.52411697  0.75723106  0.37093949  1
  O  O219  1  0.51283981  0.76778370  0.86825101  1
  O  O220  1  0.23923753  0.14463100  0.50734772  1
  O  O221  1  0.24091898  0.14730533  1.01257145  1
  O  O222  1  0.33220297  0.65011385  0.50387166  1
  O  O223  1  0.23427612  0.61937209  1.00486956  1
  O  O224  1  0.73801327  0.12455740  0.51102176  1
  O  O225  1  0.75538300  0.14056260  0.99653260  1
  O  O226  1  0.74395654  0.62811210  0.49380375  1
  O  O227  1  0.75505354  0.62041608  0.98672097  1
  O  O228  1  0.26146356  0.36896735  0.02372877  1
  O  O229  1  0.24006263  0.35787091  0.49798158  1
  O  O230  1  0.23051571  0.87916174  -0.01213678  1
  O  O231  1  0.24902111  0.88317659  0.50781916  1
  O  O232  1  0.76365274  0.36783728  0.00605855  1
  O  O233  1  0.75354364  0.38448838  0.51441772  1
  O  O234  1  0.76413748  0.88650317  0.01109269  1
  O  O235  1  0.74331499  0.86124012  0.51160160  1
  O  O236  1  0.14164732  0.49672050  0.26398286  1
  O  O237  1  0.12289264  0.51232555  0.72341935  1
  O  O238  1  0.12356683  1.02297516  0.22847137  1
  O  O239  1  0.15521155  1.02863641  0.78733731  1
  O  O240  1  0.63432211  0.51267222  0.24943732  1
  O  O241  1  0.63149214  0.49910014  0.74557122  1
  O  O242  1  0.63532930  0.99535394  0.24289189  1
  O  O243  1  0.63933034  0.98838336  0.73807170  1
  O  O244  1  0.39614674  -0.00003601  0.25262694  1
  O  O245  1  0.39031118  -0.00809106  0.75106060  1
  O  O246  1  0.35343099  0.51013976  0.23950265  1
  O  O247  1  0.39093652  0.46939751  0.76424756  1
  O  O248  1  0.86553270  0.00310760  0.25160062  1
  O  O249  1  0.85807673  -0.01141669  0.74874753  1
  O  O250  1  0.86315212  0.51444405  0.24599745  1
  O  O251  1  0.87163422  0.51145804  0.75906159  1
  O  O252  1  0.10345141  0.35665607  0.38473257  1
  O  O253  1  0.11374197  0.37558029  0.88296119  1
  O  O254  1  0.13157857  0.86198984  0.37349966  1
  O  O255  1  0.11888631  0.86069498  0.85549847  1
  O  O256  1  0.61961283  0.36742905  0.37012564  1
  O  O257  1  0.62833269  0.38212420  0.87058367  1
  O  O258  1  0.63968178  0.86342437  0.36912519  1
  O  O259  1  0.63138065  0.86773313  0.86951654  1
  O  O260  1  0.38530276  0.13457174  0.12351116  1
  O  O261  1  0.36985581  0.14807951  0.64666087  1
  O  O262  1  0.38232052  0.65790231  0.10225395  1
  O  O263  1  0.33185174  0.60300555  0.69892940  1
  O  O264  1  0.87222927  0.11761889  0.14252898  1
  O  O265  1  0.87574939  0.11363358  0.64816180  1
  O  O266  1  0.87709035  0.63191765  0.12983829  1
  O  O267  1  0.86979516  0.63408393  0.63942234  1
  O  O268  1  0.25672541  0.25860084  0.12667235  1
  O  O269  1  0.24371498  0.26558361  0.61047956  1
  O  O270  1  0.23536187  0.75933699  0.10020872  1
  O  O271  1  0.26160273  0.76235943  0.62680412  1
  O  O272  1  0.75334356  0.26370664  0.11409691  1
  O  O273  1  0.75198641  0.27140319  0.62703532  1
  O  O274  1  0.75566612  0.76401577  0.12629703  1
  O  O275  1  0.75132651  0.75175467  0.61927471  1
  O  O276  1  0.23203287  0.25584626  0.37979335  1
  O  O277  1  0.24025093  0.26844980  0.89581890  1
  O  O278  1  0.23032268  0.75037725  0.36730182  1
  O  O279  1  0.22651129  0.75219281  0.88440592  1
  O  O280  1  0.70979429  0.24888601  0.32903222  1
  O  O281  1  0.75530504  0.25010051  0.89307817  1
  O  O282  1  0.75021239  0.74220007  0.38778582  1
  O  O283  1  0.74193529  0.73950783  0.86958518  1
  O  O284  1  0.00157777  0.11618839  -0.00734203  1
  O  O285  1  0.00945203  0.12474394  0.50523851  1
  O  O286  1  -0.00134130  0.61660464  0.01044136  1
  O  O287  1  -0.00106786  0.61992602  0.48395289  1
  O  O288  1  0.49661533  0.11468682  0.00148672  1
  O  O289  1  0.52068361  0.10939307  0.50093591  1
  O  O290  1  0.51144493  0.62630644  -0.00289336  1
  O  O291  1  0.52241547  0.60142321  0.49317607  1
  O  O292  1  0.51110693  0.37526579  0.49256068  1
  O  O293  1  0.49294450  0.37284260  1.02045812  1
  O  O294  1  0.52126708  0.89694955  0.50401124  1
  O  O295  1  0.50568402  0.88481456  0.99142125  1
  O  O296  1  0.98761650  0.37116101  0.49313839  1
  O  O297  1  0.99299146  0.38451235  0.99971825  1
  O  O298  1  1.01686023  0.88489616  0.50505566  1
  O  O299  1  0.97749992  0.88192512  1.00836410  1
  O  O300  1  0.52038724  0.48086264  0.38617600  1
  O  O301  1  0.49354664  0.48027830  0.88542581  1
  O  O302  1  0.49353580  0.99556644  0.38934223  1
  O  O303  1  0.50639808  0.98889834  0.89129323  1
  O  O304  1  0.99722392  0.48371458  0.38482443  1
  O  O305  1  0.99608523  0.49373296  0.88370358  1
  O  O306  1  0.98975776  0.99865504  0.36584706  1
  O  O307  1  1.03933526  0.98488176  0.91626818  1
  O  O308  1  0.00299834  0.00212157  0.10343955  1
  O  O309  1  -0.00495085  -0.05968946  0.54924319  1
  O  O310  1  -0.00887927  0.51113472  0.11642196  1
  O  O311  1  0.00982438  0.50784077  0.60910284  1
  O  O312  1  0.50248516  0.00959428  0.11343542  1
  O  O313  1  0.52091920  -0.00652425  0.62483882  1
  O  O314  1  0.51348575  0.51099913  0.13236333  1
  O  O315  1  0.51871285  0.48814565  0.61536542  1
  O  O316  1  0.25612380  0.38761263  0.24831010  1
  O  O317  1  0.23918329  0.37742334  0.72669699  1
  O  O318  1  0.23428760  0.86897447  0.24336802  1
  O  O319  1  0.24882950  0.88872085  0.74463134  1
  O  O320  1  0.75531741  0.38910406  0.23742054  1
  O  O321  1  0.74560106  0.39058686  0.75995842  1
  O  O322  1  0.74547105  0.88740059  0.23743243  1
  O  O323  1  0.74306188  0.88081578  0.74695614  1
  O  O324  1  0.24079813  0.09606438  0.19564067  1
  O  O325  1  0.27950764  0.13102054  0.73798857  1
  O  O326  1  0.24475901  0.61024021  0.23599475  1
  O  O327  1  0.27308623  0.61638389  0.74039748  1
  O  O328  1  0.75540951  0.10990386  0.24390589  1
  O  O329  1  0.75912533  0.11241447  0.75340311  1
  O  O330  1  0.75265494  0.61650967  0.25283291  1
  O  O331  1  0.75483792  0.61560162  0.76164476  1
  O  O332  1  0.38226726  0.10173347  0.37926749  1
  O  O333  1  0.37898909  0.14189644  0.85290208  1
  O  O334  1  0.45872555  0.62526511  0.33373892  1
  O  O335  1  0.37551446  0.58716972  0.88716987  1
  O  O336  1  0.87296688  0.10678256  0.35469346  1
  O  O337  1  0.85727604  0.13014415  0.86113409  1
  O  O338  1  0.86402500  0.63659102  0.36242686  1
  O  O339  1  0.87149980  0.62160708  0.86679958  1
  O  O340  1  0.13689971  0.37064731  0.13345877  1
  O  O341  1  0.13010008  0.39383009  0.62103307  1
  O  O342  1  0.08975822  0.86469965  0.14852303  1
  O  O343  1  0.14758434  0.86109490  0.62952171  1
  O  O344  1  0.64423163  0.37794199  0.11834004  1
  O  O345  1  0.64036131  0.38768944  0.64416087  1
  O  O346  1  0.63162123  0.88270059  0.13074501  1
  O  O347  1  0.63606595  0.87058881  0.63709455  1
  O  O348  1  0.10652955  0.24715134  0.26286647  1
  O  O349  1  0.14135457  0.24288593  0.77212475  1
  O  O350  1  0.12500084  0.76033835  0.26252896  1
  O  O351  1  0.12330993  0.73166289  0.75959498  1
  O  O352  1  0.65993586  0.24552781  0.27166506  1
  O  O353  1  0.64040189  0.26538942  0.75249907  1
  O  O354  1  0.64269015  0.75911757  0.26496571  1
  O  O355  1  0.62324214  0.75699687  0.76306236  1
  O  O356  1  0.36072905  0.24238702  0.24454454  1
  O  O357  1  0.36888220  0.27990784  0.76509799  1
  O  O358  1  0.38219563  0.74531496  0.25204079  1
  O  O359  1  0.38788959  0.74851583  0.76830396  1
  O  O360  1  0.87830303  0.23817580  0.25498564  1
  O  O361  1  0.87567450  0.24376084  0.74759548  1
  O  O362  1  0.86624222  0.73784639  0.23826652  1
  O  O363  1  0.87445967  0.73823169  0.74062980  1
  O  O364  1  0.40095897  0.49435093  0.49555606  1
  O  O365  1  0.37769884  0.48582538  1.03115092  1
  O  O366  1  0.39716734  1.01011754  0.51606309  1
  O  O367  1  0.38384868  1.00586799  1.00364703  1
  O  O368  1  0.89083273  0.50700734  0.50507347  1
  O  O369  1  0.88295891  0.49529540  0.99045358  1
  O  O370  1  0.86858647  1.00348232  0.47929935  1
  O  O371  1  0.87879990  0.99367793  0.99533187  1
  O  O372  1  0.14344199  0.03113374  0.02011963  1
  O  O373  1  0.13498017  0.02283639  0.48654007  1
  O  O374  1  0.11416366  0.51056277  -0.00250252  1
  O  O375  1  0.10442965  0.49733132  0.50029661  1
  O  O376  1  0.62501766  -0.00206677  0.01422922  1
  O  O377  1  0.62964264  0.00960195  0.51676134  1
  O  O378  1  0.62598413  0.51306002  -0.00713225  1
  O  O379  1  0.63163249  0.50063380  0.51534287  1
  O  O380  1  0.37615305  0.35682420  0.13144876  1
  O  O381  1  0.35029979  0.39035005  0.61554522  1
  O  O382  1  0.40484694  0.83333117  0.11458779  1
  O  O383  1  0.36685884  0.86180263  0.61413452  1
  O  O384  1  0.86871152  0.38263758  0.11037304  1
  O  O385  1  0.86051225  0.38630913  0.63653897  1
  O  O386  1  0.86687157  0.86689253  0.12628528  1
  O  O387  1  0.86172386  0.85522097  0.63432626  1
  O  O388  1  0.11101396  0.14451951  0.38333585  1
  O  O389  1  0.11956262  0.15095870  0.89772135  1
  O  O390  1  0.11551332  0.65248972  0.36220752  1
  O  O391  1  0.12450773  0.62488165  0.88816025  1
  O  O392  1  0.63264607  0.11587151  0.38601496  1
  O  O393  1  0.64468807  0.13534754  0.86516157  1
  O  O394  1  0.63855132  0.63700009  0.38011495  1
  O  O395  1  0.63352414  0.63129787  0.88590215  1
