# generated using pymatgen
data_V35Zn35O128
_symmetry_space_group_name_H-M   'P 1'
_cell_length_a   16.85369165
_cell_length_b   16.88738457
_cell_length_c   16.93906405
_cell_angle_alpha   90.22644995
_cell_angle_beta   90.32740477
_cell_angle_gamma   89.88509233
_symmetry_Int_Tables_number   1
_chemical_formula_structural   V35Zn35O128
_chemical_formula_sum   'V70 Zn70 O256'
_cell_volume   4820.98201443
_cell_formula_units_Z   2
loop_
 _symmetry_equiv_pos_site_id
 _symmetry_equiv_pos_as_xyz
  1  'x, y, z'
loop_
 _atom_site_type_symbol
 _atom_site_label
 _atom_site_symmetry_multiplicity
 _atom_site_fract_x
 _atom_site_fract_y
 _atom_site_fract_z
 _atom_site_occupancy
  V  V0  1  0.51129005  0.62762425  0.12096588  1
  V  V1  1  0.50744479  -0.00064742  0.50967541  1
  V  V2  1  0.74726435  0.76631342  0.49426206  1
  V  V3  1  -0.00835415  0.36049586  0.36542324  1
  V  V4  1  0.25677238  0.49299885  0.24662493  1
  V  V5  1  0.62867179  0.88825092  0.24279701  1
  V  V6  1  0.25033397  0.62081554  0.37898481  1
  V  V7  1  0.24259324  0.49392419  0.73852758  1
  V  V8  1  0.62668380  0.74714640  0.36618837  1
  V  V9  1  -0.00317678  0.87908055  0.39522271  1
  V  V10  1  0.86143201  0.63239977  0.25724217  1
  V  V11  1  0.49748987  0.61953000  0.62686385  1
  V  V12  1  0.11824136  0.13596910  0.00179870  1
  V  V13  1  0.11503635  0.87411922  0.24773646  1
  V  V14  1  0.12182250  0.62184240  0.50769229  1
  V  V15  1  0.88697709  0.22835940  0.11123587  1
  V  V16  1  0.86536027  0.37170916  0.50594422  1
  V  V17  1  0.12685959  0.37162842  0.24512646  1
  V  V18  1  0.25409579  0.26567826  0.01518610  1
  V  V19  1  0.37910290  0.12912113  0.75088460  1
  V  V20  1  0.39723415  0.38220088  0.00705984  1
  V  V21  1  0.49296163  0.87474212  0.36153073  1
  V  V22  1  0.87170393  0.75747091  0.62204538  1
  V  V23  1  0.11855309  0.87886301  0.75777535  1
  V  V24  1  0.86708929  -0.00264737  0.86457461  1
  V  V25  1  0.76916717  0.39360287  0.12271190  1
  V  V26  1  0.74987689  0.13715353  0.88478333  1
  V  V27  1  0.37303394  0.86765143  0.50208669  1
  V  V28  1  0.39213277  0.13449933  0.24211166  1
  V  V29  1  0.51900361  0.35041401  0.37828395  1
  V  V30  1  0.24659122  -0.00009639  0.75644634  1
  V  V31  1  0.61623321  0.34135084  0.23979575  1
  V  V32  1  0.87576412  0.14179591  0.74420617  1
  V  V33  1  0.63728715  0.38018031  0.73104636  1
  V  V34  1  0.11870482  0.74956510  0.36985654  1
  V  V35  1  0.00738932  0.37041264  0.87502198  1
  V  V36  1  0.13632628  0.24280504  0.38413357  1
  V  V37  1  0.25886797  0.87167698  0.12054052  1
  V  V38  1  0.86885276  0.86389601  -0.00364042  1
  V  V39  1  0.26823802  0.74601233  0.00298497  1
  V  V40  1  0.37200625  0.51032837  0.87468523  1
  V  V41  1  0.24989787  0.74871157  0.50733828  1
  V  V42  1  0.24757800  0.13892872  0.88018918  1
  V  V43  1  0.39089622  0.48959763  0.38657442  1
  V  V44  1  0.25556000  0.00740284  0.24862785  1
  V  V45  1  0.73873168  0.87860987  0.64275334  1
  V  V46  1  0.87455640  0.50979450  0.85673158  1
  V  V47  1  0.61242542  0.75105053  0.88402656  1
  V  V48  1  -0.01028167  0.61821887  0.62673920  1
  V  V49  1  0.37715224  0.64266403  0.25101714  1
  V  V50  1  0.86518214  -0.00884043  0.40632707  1
  V  V51  1  0.61711998  0.00140374  0.65056782  1
  V  V52  1  0.24457923  0.87728658  0.62733543  1
  V  V53  1  0.64625418  0.60877400  -0.00576739  1
  V  V54  1  0.51677866  -0.02032963  0.00631304  1
  V  V55  1  0.01579899  0.25295695  0.74831053  1
  V  V56  1  0.00093790  0.64705978  0.13286518  1
  V  V57  1  0.37333836  -0.01308492  0.89387364  1
  V  V58  1  -0.00583617  0.74667255  0.75581371  1
  V  V59  1  0.06742789  0.06965496  0.56530343  1
  V  V60  1  -0.00376886  -0.00544945  -0.00931840  1
  V  V61  1  0.11686292  0.00384653  0.12393544  1
  V  V62  1  -0.01044911  0.50315816  0.48024087  1
  V  V63  1  -0.00499365  0.49733392  0.00545542  1
  V  V64  1  0.32163902  0.04825667  0.42373623  1
  V  V65  1  0.62971868  0.60850688  0.50313124  1
  V  V66  1  0.13181007  0.74106958  0.87773839  1
  V  V67  1  0.62152750  0.25390022  0.88417032  1
  V  V68  1  0.75349741  0.87429967  0.12755449  1
  V  V69  1  0.37006506  0.27434382  0.59296626  1
  Zn  Zn70  1  0.13188517  0.62235102  0.00354159  1
  Zn  Zn71  1  0.37894945  0.63096611  0.74766234  1
  Zn  Zn72  1  0.13261629  0.49989715  0.11853512  1
  Zn  Zn73  1  0.74669039  0.13297574  0.37344050  1
  Zn  Zn74  1  0.50032156  0.37958183  0.86177854  1
  Zn  Zn75  1  0.49956698  0.24781097  0.73956843  1
  Zn  Zn76  1  0.18716133  0.19047629  0.18882752  1
  Zn  Zn77  1  0.18942147  0.21188687  0.68913123  1
  Zn  Zn78  1  0.18941527  0.68586659  0.18721773  1
  Zn  Zn79  1  0.18785925  0.67949645  0.69177913  1
  Zn  Zn80  1  0.74462709  0.20938563  0.22356078  1
  Zn  Zn81  1  0.67384566  0.17090818  0.71778998  1
  Zn  Zn82  1  0.69030609  0.69318447  0.17396839  1
  Zn  Zn83  1  0.65686073  0.70276599  0.66711182  1
  Zn  Zn84  1  0.31937495  0.31099328  0.32449424  1
  Zn  Zn85  1  0.31015453  0.32323110  0.81447398  1
  Zn  Zn86  1  0.30180014  0.81797337  0.31477805  1
  Zn  Zn87  1  0.30824685  0.81283317  0.81953860  1
  Zn  Zn88  1  0.80790915  0.33231468  0.30468985  1
  Zn  Zn89  1  0.81752430  0.32481213  0.81723421  1
  Zn  Zn90  1  0.81574393  0.81222272  0.30720644  1
  Zn  Zn91  1  0.80680320  0.80620058  0.81742528  1
  Zn  Zn92  1  0.17348262  0.44271896  0.42865323  1
  Zn  Zn93  1  0.18807073  0.44528743  0.92885653  1
  Zn  Zn94  1  0.17805176  0.93677656  0.44084485  1
  Zn  Zn95  1  0.18637814  0.93523536  0.93876504  1
  Zn  Zn96  1  0.65556383  0.40212927  0.51430777  1
  Zn  Zn97  1  0.70111841  0.43805508  0.93070773  1
  Zn  Zn98  1  0.65498210  0.97916302  0.40453183  1
  Zn  Zn99  1  0.69020174  0.93553272  0.93075437  1
  Zn  Zn100  1  0.31149588  0.06978884  0.06786896  1
  Zn  Zn101  1  0.25665124  0.10128045  0.59491052  1
  Zn  Zn102  1  0.32431144  0.56281132  0.06681112  1
  Zn  Zn103  1  0.32311598  0.56410506  0.56828013  1
  Zn  Zn104  1  0.79967808  0.05727512  0.06544821  1
  Zn  Zn105  1  0.80597427  0.05876720  0.57596573  1
  Zn  Zn106  1  0.82205731  0.56999171  0.06749097  1
  Zn  Zn107  1  0.80455979  0.56826262  0.43886636  1
  Zn  Zn108  1  0.47888697  0.43896506  0.17907212  1
  Zn  Zn109  1  0.43761001  0.44614737  0.69300153  1
  Zn  Zn110  1  0.44145375  0.94530789  0.18172598  1
  Zn  Zn111  1  0.42458899  0.94229060  0.68908790  1
  Zn  Zn112  1  0.93673838  0.45174190  0.19176520  1
  Zn  Zn113  1  0.94408393  0.43109446  0.68586626  1
  Zn  Zn114  1  0.94016636  0.93178077  0.17732448  1
  Zn  Zn115  1  0.94116422  0.94129701  0.67773949  1
  Zn  Zn116  1  0.05978019  0.05660067  0.32181898  1
  Zn  Zn117  1  0.06047181  0.06903762  0.81465473  1
  Zn  Zn118  1  0.06600370  0.56573938  0.30303688  1
  Zn  Zn119  1  0.06271454  0.55765000  0.81352586  1
  Zn  Zn120  1  0.60215876  0.10983906  0.26789710  1
  Zn  Zn121  1  0.55747963  0.06031593  0.83065611  1
  Zn  Zn122  1  0.55525679  0.57124933  0.30291842  1
  Zn  Zn123  1  0.56165371  0.56007087  0.81282447  1
  Zn  Zn124  1  0.44389764  0.18138267  0.43980199  1
  Zn  Zn125  1  0.43213696  0.19643951  0.93485279  1
  Zn  Zn126  1  0.44524025  0.68671903  0.43845825  1
  Zn  Zn127  1  0.44988724  0.68265736  0.93976623  1
  Zn  Zn128  1  0.92117986  0.17623994  0.43382351  1
  Zn  Zn129  1  0.93463742  0.19052678  0.93611148  1
  Zn  Zn130  1  0.93302101  0.69535199  0.43483129  1
  Zn  Zn131  1  0.94240187  0.67822076  0.93972485  1
  Zn  Zn132  1  0.05135982  0.31417876  0.06759428  1
  Zn  Zn133  1  0.01463758  0.25270634  0.53866061  1
  Zn  Zn134  1  0.06634058  0.81927069  0.05700374  1
  Zn  Zn135  1  0.06620442  0.80779140  0.56924178  1
  Zn  Zn136  1  0.60465311  0.35626821  0.04066521  1
  Zn  Zn137  1  0.51329964  0.34710797  0.58826824  1
  Zn  Zn138  1  0.56478107  0.79916921  0.06460367  1
  Zn  Zn139  1  0.55990179  0.80888620  0.56398817  1
  O  O140  1  0.13420746  0.11511141  0.11060162  1
  O  O141  1  0.14154740  0.12591133  0.61847535  1
  O  O142  1  0.11648942  0.62186485  0.12579835  1
  O  O143  1  0.10956146  0.63947365  0.61224489  1
  O  O144  1  0.58804330  0.12680844  0.09782535  1
  O  O145  1  0.62858229  0.10152991  0.63944895  1
  O  O146  1  0.62247149  0.62841936  0.10387843  1
  O  O147  1  0.62908033  0.60478215  0.60707103  1
  O  O148  1  0.39660422  0.38314609  0.37755477  1
  O  O149  1  0.37782745  0.38224842  0.88736271  1
  O  O150  1  0.38657326  0.86621219  0.37965757  1
  O  O151  1  0.36836810  0.88803214  0.88137910  1
  O  O152  1  0.88827142  0.37824736  0.37167084  1
  O  O153  1  0.89390086  0.39139899  0.87294576  1
  O  O154  1  0.89182960  0.87718586  0.37262226  1
  O  O155  1  0.86563349  0.88829924  0.88152014  1
  O  O156  1  0.25163251  -0.00834589  0.36379137  1
  O  O157  1  0.25465635  0.00428380  0.87327173  1
  O  O158  1  0.25320301  0.50688614  0.37447271  1
  O  O159  1  0.26245149  0.50009536  0.86270272  1
  O  O160  1  0.76909473  -0.02941004  0.38371659  1
  O  O161  1  0.76271588  0.01068145  0.87342132  1
  O  O162  1  0.74143294  0.49116717  0.35238552  1
  O  O163  1  0.77430081  0.49100328  0.86702704  1
  O  O164  1  0.25446108  0.50486128  0.14450366  1
  O  O165  1  0.25803600  0.50642839  0.63698708  1
  O  O166  1  0.23999300  0.99151127  0.13259110  1
  O  O167  1  0.24682136  0.99206779  0.64844717  1
  O  O168  1  0.75901782  0.49374584  0.12611486  1
  O  O169  1  0.76479722  0.51616945  0.65876860  1
  O  O170  1  0.73823433  0.97602057  0.10935577  1
  O  O171  1  0.73432022  0.98621706  0.63037212  1
  O  O172  1  0.01361245  0.38914993  0.26211340  1
  O  O173  1  0.00116347  0.36380995  0.76114874  1
  O  O174  1  0.01207593  0.87920597  0.25095213  1
  O  O175  1  0.01359142  0.86320669  0.74238215  1
  O  O176  1  0.50709386  0.36899545  0.26834867  1
  O  O177  1  0.50968809  0.36864018  0.74327661  1
  O  O178  1  0.50197122  0.87842227  0.25741312  1
  O  O179  1  0.45193500  0.82620092  0.73776291  1
  O  O180  1  0.49110429  0.11902930  0.25084041  1
  O  O181  1  0.48193497  0.12090451  0.76087673  1
  O  O182  1  0.47168099  0.65529380  0.28165596  1
  O  O183  1  0.49600733  0.62097214  0.73626672  1
  O  O184  1  0.96074752  0.08249670  0.24728512  1
  O  O185  1  0.98894655  0.14172045  0.76496607  1
  O  O186  1  1.00627357  0.63333773  0.23657579  1
  O  O187  1  1.01142990  0.63876804  0.73529841  1
  O  O188  1  0.36488419  0.27058748  0.00010130  1
  O  O189  1  0.37244119  0.25345742  0.49432926  1
  O  O190  1  0.36635571  0.74945945  -0.00350865  1
  O  O191  1  0.36219801  0.75794107  0.49168259  1
  O  O192  1  0.87909089  0.25252361  0.01129569  1
  O  O193  1  0.89982428  0.27086749  0.49675638  1
  O  O194  1  0.88509051  0.76689843  -0.01607644  1
  O  O195  1  0.85914227  0.74672482  0.51007085  1
  O  O196  1  0.11346954  0.25564653  0.48245621  1
  O  O197  1  0.12987840  0.23903269  1.00793311  1
  O  O198  1  0.13039151  0.74305085  0.49130859  1
  O  O199  1  0.12493571  0.75282429  0.98325875  1
  O  O200  1  0.65929720  0.22689636  0.49371476  1
  O  O201  1  0.61954630  0.25268188  0.98297880  1
  O  O202  1  0.63699323  0.75166616  0.49099160  1
  O  O203  1  0.62435357  0.73364380  0.98954352  1
  O  O204  1  0.52916472  0.16082876  0.06859045  1
  O  O205  1  0.46688634  0.24179951  0.62455206  1
  O  O206  1  0.50774765  0.72747723  0.13642893  1
  O  O207  1  0.54573900  0.72655118  0.63853491  1
  O  O208  1  0.98821706  0.24673710  0.12963442  1
  O  O209  1  1.01012057  0.25943748  0.64901402  1
  O  O210  1  1.00817530  0.74612622  0.12018221  1
  O  O211  1  0.99136107  0.74793014  0.63256228  1
  O  O212  1  -0.00054342  0.25998765  0.36550912  1
  O  O213  1  -0.00298911  0.26463095  0.87371473  1
  O  O214  1  0.01154764  0.76093968  0.38036794  1
  O  O215  1  0.01070844  0.74497076  0.85954817  1
  O  O216  1  0.50898913  0.25126028  0.38024691  1
  O  O217  1  0.51235409  0.24855806  0.86855283  1
  O  O218  1  0.51669143  0.76950567  0.38794755  1
  O  O219  1  0.51117314  0.74925223  0.87156943  1
  O  O220  1  0.26764550  0.10659989  0.48275083  1
  O  O221  1  0.24425208  0.13631889  0.99457468  1
  O  O222  1  0.24146542  0.63044853  0.49728473  1
  O  O223  1  0.25146417  0.64313240  1.01614064  1
  O  O224  1  0.76243420  0.13821355  0.50033969  1
  O  O225  1  0.74950872  0.12237070  0.98260759  1
  O  O226  1  0.73507693  0.64049206  0.49342399  1
  O  O227  1  0.74600229  0.61941092  0.99681022  1
  O  O228  1  0.24055520  0.36435659  0.00022776  1
  O  O229  1  0.22301143  0.38210579  0.52992358  1
  O  O230  1  0.24532619  0.86688553  0.01358613  1
  O  O231  1  0.24970583  0.86892290  0.50543550  1
  O  O232  1  0.72201895  0.37455444  0.02869270  1
  O  O233  1  0.76523346  0.37514963  0.49188193  1
  O  O234  1  0.76509180  0.87396483  0.00009610  1
  O  O235  1  0.74837061  0.86357032  0.51767994  1
  O  O236  1  0.14097226  0.49089520  0.25476888  1
  O  O237  1  0.14220703  0.51352614  0.74892385  1
  O  O238  1  0.12911561  0.99550912  0.24329087  1
  O  O239  1  0.12876448  0.98603900  0.76555707  1
  O  O240  1  0.69349736  0.51650430  0.30180369  1
  O  O241  1  0.62355154  0.47764543  0.75793995  1
  O  O242  1  0.61694749  0.98475219  0.24398616  1
  O  O243  1  0.60704230  0.99131348  0.74925256  1
  O  O244  1  0.35922384  0.00474193  0.24563373  1
  O  O245  1  0.36532164  0.00512354  0.76955821  1
  O  O246  1  0.36175542  0.50896425  0.27037987  1
  O  O247  1  0.36521617  0.50322607  0.76040312  1
  O  O248  1  0.90712828  0.02767035  0.24497094  1
  O  O249  1  0.88829773  0.00520476  0.76423152  1
  O  O250  1  0.88497420  0.52870962  0.25324349  1
  O  O251  1  0.89567788  0.50402842  0.75740538  1
  O  O252  1  0.11350017  0.36658673  0.36734354  1
  O  O253  1  0.10825405  0.38156462  0.87463346  1
  O  O254  1  0.11376278  0.87093313  0.36907886  1
  O  O255  1  0.12830952  0.86344792  0.86363152  1
  O  O256  1  0.62258453  0.36194535  0.34910973  1
  O  O257  1  0.62891702  0.36141403  0.86898500  1
  O  O258  1  0.61673942  0.87161659  0.35819229  1
  O  O259  1  0.63923775  0.84903746  0.87865006  1
  O  O260  1  0.37218465  0.12658013  0.14252034  1
  O  O261  1  0.35953298  0.11200680  0.65308737  1
  O  O262  1  0.39125951  0.61430189  0.14834334  1
  O  O263  1  0.39591469  0.64239645  0.61422708  1
  O  O264  1  0.87363477  0.12716066  0.11323354  1
  O  O265  1  0.87259274  0.12126368  0.64640870  1
  O  O266  1  0.89434703  0.63062953  0.13268821  1
  O  O267  1  0.88966182  0.64123986  0.62677999  1
  O  O268  1  0.24918515  0.25139338  0.11347787  1
  O  O269  1  0.27579876  0.24398127  0.62693305  1
  O  O270  1  0.24275298  0.76324973  0.11512366  1
  O  O271  1  0.24182531  0.75765262  0.61246634  1
  O  O272  1  0.77342787  0.26346801  0.12598716  1
  O  O273  1  0.71123795  0.19805862  0.53893353  1
  O  O274  1  0.74562453  0.77209646  0.11468779  1
  O  O275  1  0.75137464  0.75801751  0.62108205  1
  O  O276  1  0.23631655  0.25741625  0.38183872  1
  O  O277  1  0.24948115  0.24087966  0.88578477  1
  O  O278  1  0.23855094  0.74446621  0.38708210  1
  O  O279  1  0.24273644  0.75312805  0.89077613  1
  O  O280  1  0.75146793  0.24246783  0.34116963  1
  O  O281  1  0.74431886  0.24363787  0.87518512  1
  O  O282  1  0.73902017  0.76699335  0.38545893  1
  O  O283  1  0.72988016  0.71858466  0.83559132  1
  O  O284  1  0.01514117  0.11795906  -0.00749715  1
  O  O285  1  0.00176528  0.13277718  0.51304286  1
  O  O286  1  0.00729565  0.61785823  0.01326143  1
  O  O287  1  -0.00004420  0.62171020  0.50611773  1
  O  O288  1  0.49377683  0.11949047  0.00128889  1
  O  O289  1  0.48844945  0.09703858  0.50195201  1
  O  O290  1  0.49006021  0.61052138  0.02289287  1
  O  O291  1  0.52010334  0.63318331  0.50681749  1
  O  O292  1  0.54159063  0.37457495  0.47971669  1
  O  O293  1  0.49768386  0.37485686  0.99051938  1
  O  O294  1  0.48337624  0.87537857  0.50891706  1
  O  O295  1  0.50737414  0.87923313  1.00533672  1
  O  O296  1  0.99786535  0.39393529  0.47886768  1
  O  O297  1  1.00625843  0.38918478  0.99244033  1
  O  O298  1  1.00413187  0.87100162  0.49385674  1
  O  O299  1  0.99067861  0.88852725  0.99917234  1
  O  O300  1  0.49037202  0.50635455  0.37421651  1
  O  O301  1  0.47947754  0.49601645  0.86752858  1
  O  O302  1  0.50631935  0.97212937  0.39723047  1
  O  O303  1  0.48059150  1.00573426  0.89607139  1
  O  O304  1  1.00092067  0.51025328  0.38087711  1
  O  O305  1  0.99786736  0.49667345  0.88530004  1
  O  O306  1  0.99141452  0.98499523  0.38197169  1
  O  O307  1  0.99120098  1.00395759  0.88569761  1
  O  O308  1  0.00961415  -0.00075829  0.10933762  1
  O  O309  1  0.01500810  0.01022671  0.62826656  1
  O  O310  1  0.00648534  0.50173805  0.11234447  1
  O  O311  1  -0.00613364  0.51578588  0.61348971  1
  O  O312  1  0.49768081  0.00128257  0.10524612  1
  O  O313  1  0.50704970  -0.01391999  0.62251464  1
  O  O314  1  0.52822538  0.54317663  0.19213378  1
  O  O315  1  0.49606049  0.51676055  0.61982509  1
  O  O316  1  0.24436324  0.38660981  0.26142483  1
  O  O317  1  0.25001912  0.39008145  0.74676998  1
  O  O318  1  0.23785145  0.88568279  0.24170424  1
  O  O319  1  0.24099966  0.87902149  0.74751629  1
  O  O320  1  0.72353790  0.37377042  0.22563731  1
  O  O321  1  0.73733780  0.36501619  0.74366664  1
  O  O322  1  0.74340779  0.87769122  0.23876979  1
  O  O323  1  0.74996002  0.87095599  0.74120244  1
  O  O324  1  0.24630847  0.10863266  0.24806402  1
  O  O325  1  0.24844686  0.11887144  0.76910550  1
  O  O326  1  0.25070405  0.61411518  0.26250588  1
  O  O327  1  0.26601324  0.62285638  0.74578599  1
  O  O328  1  0.71708832  0.10509314  0.25399829  1
  O  O329  1  0.76945018  0.12907465  0.76394716  1
  O  O330  1  0.76118235  0.63122158  0.23765228  1
  O  O331  1  0.75259961  0.56883063  0.70673640  1
  O  O332  1  0.37918405  0.10902293  0.36572688  1
  O  O333  1  0.35825833  0.11780724  0.87663369  1
  O  O334  1  0.36076160  0.62438157  0.37556138  1
  O  O335  1  0.37907091  0.61452513  0.87774962  1
  O  O336  1  0.86330114  0.09599344  0.38241505  1
  O  O337  1  0.86753620  0.11756030  0.87188426  1
  O  O338  1  0.86637602  0.63249130  0.36865934  1
  O  O339  1  0.88332566  0.61151673  0.87237815  1
  O  O340  1  0.12014316  0.37782077  0.14298208  1
  O  O341  1  0.17512189  0.37073465  0.58425339  1
  O  O342  1  0.12994805  0.88515486  0.13084538  1
  O  O343  1  0.13499152  0.87006732  0.64084205  1
  O  O344  1  0.58594368  0.38442257  0.14732534  1
  O  O345  1  0.62282193  0.37453217  0.62472580  1
  O  O346  1  0.62715493  0.86419181  0.14033013  1
  O  O347  1  0.63371493  0.87707003  0.63109983  1
  O  O348  1  0.13419239  0.26767230  0.25692219  1
  O  O349  1  0.11555693  0.24161660  0.76543132  1
  O  O350  1  0.13729168  0.76109031  0.26268478  1
  O  O351  1  0.12348362  0.75797350  0.76028559  1
  O  O352  1  0.61814125  0.24276576  0.22676473  1
  O  O353  1  0.61879061  0.26098761  0.75269470  1
  O  O354  1  0.63236047  0.75424370  0.26396473  1
  O  O355  1  0.66358445  0.72510719  0.78191730  1
  O  O356  1  0.37141267  0.23124650  0.26330387  1
  O  O357  1  0.37066020  0.23281188  0.76518434  1
  O  O358  1  0.34424061  0.73745135  0.24627582  1
  O  O359  1  0.39146758  0.77756365  0.74274770  1
  O  O360  1  0.85723328  0.25508594  0.22149345  1
  O  O361  1  0.88236659  0.24492996  0.75412368  1
  O  O362  1  0.88019340  0.73671508  0.25417008  1
  O  O363  1  0.89083911  0.75463493  0.74826858  1
  O  O364  1  0.37214053  0.50533264  0.48333572  1
  O  O365  1  0.36355631  0.48880140  0.98784004  1
  O  O366  1  0.37560044  0.98438995  0.48881143  1
  O  O367  1  0.36398665  0.99963342  0.99461307  1
  O  O368  1  0.88252945  0.49449742  0.48780940  1
  O  O369  1  0.89300515  0.50729002  0.99421862  1
  O  O370  1  0.87027241  0.99249085  0.50586656  1
  O  O371  1  0.88541570  0.99637360  0.98978934  1
  O  O372  1  0.11526401  0.00273338  0.00414554  1
  O  O373  1  0.11927927  0.01094758  0.50059504  1
  O  O374  1  0.11984239  0.50535361  0.00024122  1
  O  O375  1  0.10928846  0.51496352  0.49434700  1
  O  O376  1  0.61447460  -0.00134515  -0.01356969  1
  O  O377  1  0.60989836  -0.00986774  0.51515933  1
  O  O378  1  0.62884095  0.50790605  -0.00826326  1
  O  O379  1  0.64081037  0.51242708  0.47815666  1
  O  O380  1  0.39776930  0.39813870  0.10734503  1
  O  O381  1  0.39011844  0.37607834  0.60633945  1
  O  O382  1  0.35670911  0.87804182  0.13343619  1
  O  O383  1  0.35546016  0.88116776  0.61372779  1
  O  O384  1  0.87104825  0.38413852  0.12466875  1
  O  O385  1  0.88082491  0.38443381  0.60378984  1
  O  O386  1  0.86630196  0.87798109  0.11086713  1
  O  O387  1  0.86420017  0.86515269  0.63309053  1
  O  O388  1  0.11582991  0.14487496  0.35974714  1
  O  O389  1  0.13843056  0.11746494  0.89187531  1
  O  O390  1  0.13194671  0.63215943  0.38157763  1
  O  O391  1  0.12573023  0.63952251  0.87519927  1
  O  O392  1  0.63904384  0.09025045  0.37702080  1
  O  O393  1  0.64034194  0.13784034  0.85849728  1
  O  O394  1  0.61646827  0.64346579  0.37666878  1
  O  O395  1  0.61369572  0.62654414  0.89182599  1
