# generated using pymatgen
data_V35Zn35O128
_symmetry_space_group_name_H-M   'P 1'
_cell_length_a   16.87832222
_cell_length_b   16.86735432
_cell_length_c   16.92541458
_cell_angle_alpha   90.11962415
_cell_angle_beta   89.93564005
_cell_angle_gamma   89.99364822
_symmetry_Int_Tables_number   1
_chemical_formula_structural   V35Zn35O128
_chemical_formula_sum   'V70 Zn70 O256'
_cell_volume   4818.52740856
_cell_formula_units_Z   2
loop_
 _symmetry_equiv_pos_site_id
 _symmetry_equiv_pos_as_xyz
  1  'x, y, z'
loop_
 _atom_site_type_symbol
 _atom_site_label
 _atom_site_symmetry_multiplicity
 _atom_site_fract_x
 _atom_site_fract_y
 _atom_site_fract_z
 _atom_site_occupancy
  V  V0  1  0.00140374  0.50757110  0.00913801  1
  V  V1  1  0.74779897  0.36774331  0.61563049  1
  V  V2  1  0.87451056  0.37047722  -0.00746726  1
  V  V3  1  0.51670424  0.50590047  0.01010829  1
  V  V4  1  0.50109927  0.25023074  0.76554934  1
  V  V5  1  0.00299793  0.35597054  0.36813506  1
  V  V6  1  0.38091495  0.48263324  0.87513311  1
  V  V7  1  0.38805718  0.74258296  0.62852632  1
  V  V8  1  0.38793583  0.62870218  0.75173134  1
  V  V9  1  0.12089544  0.75101010  0.36583647  1
  V  V10  1  0.86462429  0.87529092  0.49638615  1
  V  V11  1  0.60988551  0.75170403  0.37130945  1
  V  V12  1  0.64177044  0.28167314  0.88108398  1
  V  V13  1  0.61118394  0.38351984  0.25197518  1
  V  V14  1  0.25325225  0.24864638  0.01120511  1
  V  V15  1  0.75408799  0.10618291  0.36073107  1
  V  V16  1  0.11024101  0.75181718  0.86697396  1
  V  V17  1  0.51252293  0.86592856  0.86356530  1
  V  V18  1  0.39192464  0.50072926  0.37681167  1
  V  V19  1  0.87812653  0.50479518  0.37296193  1
  V  V20  1  0.88433635  0.49998604  0.87344687  1
  V  V21  1  0.87825662  0.76100350  0.11576957  1
  V  V22  1  0.87826549  0.63079551  0.74566820  1
  V  V23  1  0.62958328  0.00709966  0.60598269  1
  V  V24  1  0.24292059  0.25673572  0.48505384  1
  V  V25  1  0.72456466  0.86308169  0.13843699  1
  V  V26  1  0.60209509  0.62747426  0.50743473  1
  V  V27  1  0.49456845  0.88486457  0.37000686  1
  V  V28  1  0.64048449  0.25496477  0.38432225  1
  V  V29  1  0.73924901  0.62355933  0.87886407  1
  V  V30  1  0.25082773  0.61623309  0.36522811  1
  V  V31  1  0.24118606  0.48263811  0.74581758  1
  V  V32  1  0.24786544  0.88153641  0.63376942  1
  V  V33  1  0.14136881  0.50426254  0.13584590  1
  V  V34  1  0.87002287  0.37304765  0.49118218  1
  V  V35  1  0.62480056  0.02139282  0.15332385  1
  V  V36  1  0.74937640  0.63644909  0.38644502  1
  V  V37  1  0.38974769  0.38154020  0.50105472  1
  V  V38  1  0.50488659  0.63655698  0.13450447  1
  V  V39  1  0.50356758  0.23191918  0.25654731  1
  V  V40  1  0.89305473  0.12120471  0.23735981  1
  V  V41  1  0.11176671  0.00965054  0.62450909  1
  V  V42  1  0.25066754  0.63030090  0.87100621  1
  V  V43  1  0.50206084  0.12437133  0.60483141  1
  V  V44  1  0.25679121  0.76488509  0.00408884  1
  V  V45  1  0.12858229  0.12083526  0.03468851  1
  V  V46  1  0.25644713  0.10975076  0.37695066  1
  V  V47  1  -0.00188520  0.00201423  0.48938236  1
  V  V48  1  0.01083444  -0.01722739  -0.01413467  1
  V  V49  1  0.86166231  0.75003105  0.61607510  1
  V  V50  1  0.73266202  0.74872951  -0.00248543  1
  V  V51  1  0.01284670  0.62910594  0.62269123  1
  V  V52  1  0.74379047  0.36955144  0.12459809  1
  V  V53  1  0.38420618  0.22581151  0.13742096  1
  V  V54  1  0.37993294  0.88200048  0.50264761  1
  V  V55  1  0.25522696  -0.00659631  0.22902281  1
  V  V56  1  0.74859406  0.50406148  0.24359846  1
  V  V57  1  0.23784233  0.73882042  0.50908654  1
  V  V58  1  0.10454817  0.87416522  0.75074470  1
  V  V59  1  0.89975637  0.25721212  0.12729225  1
  V  V60  1  0.37458541  0.38582734  0.03039288  1
  V  V61  1  0.37218506  0.25137528  0.62460076  1
  V  V62  1  0.86833637  0.10574979  0.78537801  1
  V  V63  1  0.13498586  0.36585030  0.24700817  1
  V  V64  1  0.87800108  0.63814912  0.24587972  1
  V  V65  1  0.74910382  0.49215679  0.74454460  1
  V  V66  1  0.89809184  0.24777434  0.62150582  1
  V  V67  1  0.61341127  0.49970496  0.62184672  1
  V  V68  1  0.01167276  0.50174183  0.50308489  1
  V  V69  1  0.37347462  -0.00591403  0.89059153  1
  Zn  Zn70  1  0.00481548  0.63593792  0.13302721  1
  Zn  Zn71  1  0.33049506  0.10335803  0.76166393  1
  Zn  Zn72  1  0.63856217  0.89510371  0.74083499  1
  Zn  Zn73  1  0.12462456  0.63178468  0.00549703  1
  Zn  Zn74  1  0.11959164  0.88362055  0.23897733  1
  Zn  Zn75  1  -0.00433816  0.87166880  0.37005663  1
  Zn  Zn76  1  0.19720141  0.18206007  0.20186086  1
  Zn  Zn77  1  0.18475748  0.19659810  0.67017443  1
  Zn  Zn78  1  0.19341145  0.68764058  0.18896717  1
  Zn  Zn79  1  0.19304257  0.68591371  0.69414688  1
  Zn  Zn80  1  0.69232973  0.19308463  0.19093813  1
  Zn  Zn81  1  0.66947506  0.12605631  0.73033877  1
  Zn  Zn82  1  0.68198044  0.68500432  0.18850844  1
  Zn  Zn83  1  0.68363874  0.68338176  0.68466067  1
  Zn  Zn84  1  0.32096330  0.32071778  0.31364941  1
  Zn  Zn85  1  0.27622019  0.27614463  0.79731747  1
  Zn  Zn86  1  0.29332156  0.83072106  0.32903209  1
  Zn  Zn87  1  0.31776404  0.81831370  0.81903616  1
  Zn  Zn88  1  0.81822853  0.31104942  0.30159830  1
  Zn  Zn89  1  0.79563337  0.27346906  0.78239959  1
  Zn  Zn90  1  0.80871941  0.81646632  0.31561752  1
  Zn  Zn91  1  0.77082864  0.79613523  0.79205336  1
  Zn  Zn92  1  0.18855716  0.42753021  0.43544637  1
  Zn  Zn93  1  0.19853592  0.42949486  0.92864097  1
  Zn  Zn94  1  0.18749331  0.93466459  0.44605546  1
  Zn  Zn95  1  0.18959240  0.94484332  0.93260785  1
  Zn  Zn96  1  0.68235921  0.44477429  0.43458793  1
  Zn  Zn97  1  0.69535791  0.43958624  0.93678586  1
  Zn  Zn98  1  0.68250981  0.93729563  0.43608535  1
  Zn  Zn99  1  0.65324427  0.91854884  0.96052875  1
  Zn  Zn100  1  0.31620864  0.05713595  0.06006843  1
  Zn  Zn101  1  0.30989115  0.06978828  0.55712428  1
  Zn  Zn102  1  0.31608478  0.58288766  0.05502708  1
  Zn  Zn103  1  0.31025671  0.55619792  0.56697942  1
  Zn  Zn104  1  0.82324258  0.02542004  0.09035721  1
  Zn  Zn105  1  0.80967448  0.07021903  0.55532686  1
  Zn  Zn106  1  0.81005073  0.56398592  0.06214000  1
  Zn  Zn107  1  0.81594837  0.55914636  0.56318054  1
  Zn  Zn108  1  0.40812182  0.50138268  0.17846867  1
  Zn  Zn109  1  0.43481809  0.42591482  0.69447601  1
  Zn  Zn110  1  0.45478802  0.96473104  0.19828604  1
  Zn  Zn111  1  0.44157698  0.93455662  0.68534378  1
  Zn  Zn112  1  0.93763550  0.43867172  0.18910435  1
  Zn  Zn113  1  0.93576963  0.43461716  0.68222246  1
  Zn  Zn114  1  0.94365966  0.93502569  0.18982270  1
  Zn  Zn115  1  0.91819578  0.93833867  0.68627578  1
  Zn  Zn116  1  0.07785629  0.07075426  0.31245046  1
  Zn  Zn117  1  0.03711965  0.05570667  0.78997201  1
  Zn  Zn118  1  0.06724958  0.56915077  0.31535726  1
  Zn  Zn119  1  0.06251799  0.56086277  0.80903100  1
  Zn  Zn120  1  0.56442620  0.06730443  0.33865440  1
  Zn  Zn121  1  0.51168997  0.04452720  0.77825724  1
  Zn  Zn122  1  0.56263422  0.56894161  0.30828884  1
  Zn  Zn123  1  0.56197382  0.54758796  0.81303933  1
  Zn  Zn124  1  0.43341639  0.19355568  0.43164485  1
  Zn  Zn125  1  0.39740714  0.20051431  0.92694942  1
  Zn  Zn126  1  0.42789490  0.68981944  0.43945017  1
  Zn  Zn127  1  0.44185903  0.69002182  0.94157125  1
  Zn  Zn128  1  0.90629039  0.17303999  0.43721503  1
  Zn  Zn129  1  0.91888896  0.14128367  0.98787725  1
  Zn  Zn130  1  0.94046962  0.68658528  0.44156366  1
  Zn  Zn131  1  0.92971749  0.68726799  0.93723467  1
  Zn  Zn132  1  0.07709675  0.33246774  0.04212052  1
  Zn  Zn133  1  0.06485198  0.18400947  0.53473614  1
  Zn  Zn134  1  0.06205536  0.81212132  0.04971832  1
  Zn  Zn135  1  0.05403233  0.81531203  0.56220295  1
  Zn  Zn136  1  0.55532085  0.31145491  0.06158782  1
  Zn  Zn137  1  0.56183529  0.31212390  0.56475610  1
  Zn  Zn138  1  0.54608586  0.80931296  0.05344426  1
  Zn  Zn139  1  0.57058402  0.81723680  0.56207397  1
  O  O140  1  0.12465898  0.11802813  0.13293873  1
  O  O141  1  0.12086802  0.11323828  0.62169053  1
  O  O142  1  0.12004508  0.61701478  0.12717673  1
  O  O143  1  0.11156862  0.62812602  0.63421939  1
  O  O144  1  0.63522750  0.11846949  0.12634354  1
  O  O145  1  0.60805127  0.12668547  0.62028067  1
  O  O146  1  0.60924167  0.62852362  0.12503551  1
  O  O147  1  0.62441052  0.61613875  0.61440843  1
  O  O148  1  0.37818628  0.38811145  0.38912113  1
  O  O149  1  0.37451709  0.38571870  0.87711317  1
  O  O150  1  0.38248954  0.86419075  0.39297947  1
  O  O151  1  0.39587509  0.88231650  0.86936617  1
  O  O152  1  0.88101357  0.38607392  0.37113213  1
  O  O153  1  0.86874881  0.38759568  0.89006416  1
  O  O154  1  0.87735502  0.86474015  0.39071280  1
  O  O155  1  0.86918960  0.87173109  0.86767549  1
  O  O156  1  0.25451877  0.00715246  0.39053225  1
  O  O157  1  0.27273393  -0.01621102  0.86683367  1
  O  O158  1  0.24197007  0.51605438  0.38244378  1
  O  O159  1  0.26232520  0.50702642  0.87198787  1
  O  O160  1  0.73970183  0.00720763  0.36385586  1
  O  O161  1  0.83981144  -0.07091153  0.90202594  1
  O  O162  1  0.75971003  0.51126581  0.36631104  1
  O  O163  1  0.76131332  0.50809427  0.86629359  1
  O  O164  1  0.23851001  0.51133164  0.11962377  1
  O  O165  1  0.25688253  0.49640151  0.64707994  1
  O  O166  1  0.24882839  0.99821470  0.12957473  1
  O  O167  1  0.23478472  0.98654329  0.61684925  1
  O  O168  1  0.75638589  0.49608974  0.13794307  1
  O  O169  1  0.74675928  0.49752808  0.63099366  1
  O  O170  1  0.71918928  0.97337279  0.11249536  1
  O  O171  1  0.73009918  1.02245069  0.61877892  1
  O  O172  1  0.00135322  0.38041803  0.26445413  1
  O  O173  1  0.02352215  0.37728080  0.73932166  1
  O  O174  1  0.00668900  0.87743157  0.25900700  1
  O  O175  1  0.00639129  0.87392027  0.74353412  1
  O  O176  1  0.51441794  0.38429771  0.24816075  1
  O  O177  1  0.51003837  0.34842687  0.73554470  1
  O  O178  1  0.49124877  0.87677443  0.27119984  1
  O  O179  1  0.51186797  0.87556057  0.75618565  1
  O  O180  1  0.50611395  0.13319295  0.25535680  1
  O  O181  1  0.49145420  0.14779186  0.72980587  1
  O  O182  1  0.49990858  0.62772014  0.23752369  1
  O  O183  1  0.48634496  0.61894505  0.75646752  1
  O  O184  1  0.99230400  0.11592259  0.24628485  1
  O  O185  1  0.96397407  0.13172052  0.75255427  1
  O  O186  1  0.98072398  0.62599819  0.25242421  1
  O  O187  1  0.98825089  0.61198846  0.73352490  1
  O  O188  1  0.38311081  0.26428431  0.02889812  1
  O  O189  1  0.37302405  0.26554013  0.50221071  1
  O  O190  1  0.35587960  0.74489289  -0.00454081  1
  O  O191  1  0.36421897  0.75112213  0.51793169  1
  O  O192  1  0.88129226  0.26859309  0.00548658  1
  O  O193  1  0.87685551  0.26850868  0.50121942  1
  O  O194  1  0.86167053  0.74249078  0.01318404  1
  O  O195  1  0.87915872  0.75880528  0.50771123  1
  O  O196  1  0.14241088  0.25782628  0.50128455  1
  O  O197  1  0.15067342  0.24161196  1.02706193  1
  O  O198  1  0.13625440  0.75284041  0.50301979  1
  O  O199  1  0.13062439  0.75020927  0.97923751  1
  O  O200  1  0.62767493  0.26366645  0.48180164  1
  O  O201  1  0.60830305  0.25965715  0.97562430  1
  O  O202  1  0.62065977  0.73329048  0.49643487  1
  O  O203  1  0.63579799  0.73637436  0.99993822  1
  O  O204  1  0.49442043  0.25377100  0.14253130  1
  O  O205  1  0.48878579  0.24251068  0.61714848  1
  O  O206  1  0.48933461  0.73539533  0.11066244  1
  O  O207  1  0.48566642  0.75365171  0.62397557  1
  O  O208  1  0.99665685  0.27019737  0.11548949  1
  O  O209  1  0.99717727  0.24911994  0.60440776  1
  O  O210  1  0.98326817  0.75204436  0.11466358  1
  O  O211  1  0.99195480  0.73263413  0.61810990  1
  O  O212  1  -0.01168621  0.25927854  0.37886541  1
  O  O213  1  0.05623399  0.25381794  0.85944471  1
  O  O214  1  0.01852582  0.74520525  0.38282371  1
  O  O215  1  0.01137521  0.74303686  0.87451104  1
  O  O216  1  0.51602604  0.24805545  0.36190198  1
  O  O217  1  0.47426380  0.25406642  0.86239503  1
  O  O218  1  0.50566997  0.74993267  0.37872886  1
  O  O219  1  0.50046762  0.76570368  0.88044618  1
  O  O220  1  0.25318958  0.14100618  0.48995075  1
  O  O221  1  0.24197548  0.13408636  1.01326314  1
  O  O222  1  0.24939521  0.63672377  0.50759297  1
  O  O223  1  0.24247694  0.63025646  0.98242564  1
  O  O224  1  0.78932628  0.12883091  0.45788159  1
  O  O225  1  0.75573232  0.06506782  0.97957609  1
  O  O226  1  0.75438083  0.62130658  0.48552509  1
  O  O227  1  0.75086598  0.62476653  0.98492360  1
  O  O228  1  0.26772793  0.36310939  0.00937715  1
  O  O229  1  0.26074945  0.36360189  0.49467952  1
  O  O230  1  0.24381100  0.86399317  -0.00667917  1
  O  O231  1  0.25928065  0.86134298  0.51240105  1
  O  O232  1  0.76402976  0.39138628  0.01761328  1
  O  O233  1  0.75917292  0.38923236  0.50461390  1
  O  O234  1  0.73818728  0.85511469  0.01076515  1
  O  O235  1  0.76526198  0.88430973  0.49759096  1
  O  O236  1  0.12142155  0.50094403  0.23922036  1
  O  O237  1  0.14174352  0.49713985  0.76119918  1
  O  O238  1  0.14651989  0.99711689  0.25956991  1
  O  O239  1  0.11726152  0.98906162  0.73607925  1
  O  O240  1  0.63652001  0.49141744  0.25982755  1
  O  O241  1  0.63691942  0.50677665  0.73309223  1
  O  O242  1  0.62308365  1.01248236  0.25204039  1
  O  O243  1  0.61852867  1.02122483  0.73538847  1
  O  O244  1  0.35849073  -0.01588548  0.24602505  1
  O  O245  1  0.39121570  0.00923872  0.75547931  1
  O  O246  1  0.36728351  0.49223498  0.28016343  1
  O  O247  1  0.37351588  0.50494700  0.76191569  1
  O  O248  1  0.87143442  0.02318054  0.19753136  1
  O  O249  1  0.86623223  0.00624035  0.75867993  1
  O  O250  1  0.86823370  0.51324948  0.25662227  1
  O  O251  1  0.87021175  0.50240353  0.75514254  1
  O  O252  1  0.11003514  0.37611111  0.36202054  1
  O  O253  1  0.11377254  0.36192220  0.93516784  1
  O  O254  1  0.13141724  0.85549972  0.38314459  1
  O  O255  1  0.12669986  0.86726711  0.85714315  1
  O  O256  1  0.63282673  0.36926578  0.35972028  1
  O  O257  1  0.62786734  0.38126610  0.86549608  1
  O  O258  1  0.60867206  0.85949782  0.39010194  1
  O  O259  1  0.62230720  0.88389555  0.85661375  1
  O  O260  1  0.38872955  0.12797497  0.12435241  1
  O  O261  1  0.38069943  0.13865270  0.61888040  1
  O  O262  1  0.39163987  0.60543248  0.13091648  1
  O  O263  1  0.37274241  0.63303831  0.63822785  1
  O  O264  1  0.87747607  0.15343880  0.11146911  1
  O  O265  1  0.86879365  0.15178482  0.61147467  1
  O  O266  1  0.86967043  0.63457448  0.13762429  1
  O  O267  1  0.88077252  0.63145358  0.62754430  1
  O  O268  1  0.27688951  0.24258536  0.12925654  1
  O  O269  1  0.26700948  0.24754162  0.60612209  1
  O  O270  1  0.23334697  0.74603358  0.10198216  1
  O  O271  1  0.25163504  0.75733213  0.62075884  1
  O  O272  1  0.75633881  0.26844045  0.12611922  1
  O  O273  1  0.74851675  0.27073905  0.61922830  1
  O  O274  1  0.75323722  0.74935110  0.11637372  1
  O  O275  1  0.76395607  0.73741569  0.61198710  1
  O  O276  1  0.25752912  0.24995721  0.38211612  1
  O  O277  1  0.28076255  0.24524804  0.91122402  1
  O  O278  1  0.24633230  0.74094352  0.39272994  1
  O  O279  1  0.24424639  0.74479538  0.87583884  1
  O  O280  1  0.74313140  0.25595289  0.36753617  1
  O  O281  1  0.74263826  0.26978963  0.88152715  1
  O  O282  1  0.74011887  0.73947168  0.37725935  1
  O  O283  1  0.75742609  0.73395582  0.88767756  1
  O  O284  1  0.03437382  0.14266326  0.00142060  1
  O  O285  1  -0.01023115  0.10953066  0.49247589  1
  O  O286  1  -0.00034801  0.61756899  0.00277856  1
  O  O287  1  -0.00165112  0.61296436  0.51043831  1
  O  O288  1  0.50333860  0.11973587  0.00414935  1
  O  O289  1  0.49613867  0.12995514  0.50439910  1
  O  O290  1  0.49477460  0.60957401  0.00372522  1
  O  O291  1  0.50392267  0.62378633  0.50349568  1
  O  O292  1  0.48984617  0.37825621  0.50092373  1
  O  O293  1  0.48256091  0.39126800  1.01064359  1
  O  O294  1  0.48319320  0.86677856  0.50007685  1
  O  O295  1  0.54239025  0.88986037  0.97867318  1
  O  O296  1  0.98808021  0.39241763  0.47652482  1
  O  O297  1  0.97915765  0.39672010  1.00858500  1
  O  O298  1  0.99186458  0.88391661  0.49457887  1
  O  O299  1  1.00287249  0.88285570  0.97901694  1
  O  O300  1  0.49116245  0.51224554  0.37886524  1
  O  O301  1  0.48542351  0.50270151  0.88711743  1
  O  O302  1  0.50315617  0.98410254  0.38381571  1
  O  O303  1  0.49221657  0.98750490  0.87491421  1
  O  O304  1  0.98746904  0.51544939  0.38320632  1
  O  O305  1  0.99136700  0.50782442  0.88651460  1
  O  O306  1  1.01154607  0.99754705  0.38881246  1
  O  O307  1  1.01046346  1.01014088  0.88840365  1
  O  O308  1  0.03342979  -0.04081758  0.10955513  1
  O  O309  1  0.00841655  -0.00406498  0.62079166  1
  O  O310  1  -0.00765472  0.51094733  0.11597630  1
  O  O311  1  -0.00547816  0.50573131  0.60854196  1
  O  O312  1  0.53144522  -0.01131468  0.12243081  1
  O  O313  1  0.49987648  0.01891149  0.62199053  1
  O  O314  1  0.50912893  0.50682359  0.11414832  1
  O  O315  1  0.51587846  0.49203726  0.63441678  1
  O  O316  1  0.23355164  0.37721645  0.26113000  1
  O  O317  1  0.25337655  0.38304878  0.76513967  1
  O  O318  1  0.23881179  0.88262544  0.24778360  1
  O  O319  1  0.25038582  0.87150426  0.73430546  1
  O  O320  1  0.75130709  0.38530435  0.23764457  1
  O  O321  1  0.75647792  0.38407186  0.72949201  1
  O  O322  1  0.74580403  0.86603367  0.23649944  1
  O  O323  1  0.75624846  0.89390139  0.74324026  1
  O  O324  1  0.25686827  0.10470128  0.26029028  1
  O  O325  1  0.24153476  0.17076342  0.76304759  1
  O  O326  1  0.25641916  0.63012496  0.26636744  1
  O  O327  1  0.25979222  0.61451964  0.75847109  1
  O  O328  1  0.76515097  0.13280194  0.25465952  1
  O  O329  1  0.77750964  0.15526941  0.75481949  1
  O  O330  1  0.75577513  0.62121521  0.25972941  1
  O  O331  1  0.76008170  0.61395280  0.75602158  1
  O  O332  1  0.36018470  0.13029374  0.37491118  1
  O  O333  1  0.37911368  0.10328734  0.87464365  1
  O  O334  1  0.36035250  0.61210970  0.39032127  1
  O  O335  1  0.36795423  0.62619173  0.86333727  1
  O  O336  1  0.87471074  0.11278204  0.34166739  1
  O  O337  1  0.87309508  0.12250157  0.88566312  1
  O  O338  1  0.86458529  0.62799459  0.36657613  1
  O  O339  1  0.87041658  0.61791855  0.86319497  1
  O  O340  1  0.11993539  0.39515161  0.13626160  1
  O  O341  1  0.07968410  0.34916772  0.69011819  1
  O  O342  1  0.09447064  0.90169076  0.11748460  1
  O  O343  1  0.13130712  0.87520034  0.63567023  1
  O  O344  1  0.63679551  0.37247087  0.13604933  1
  O  O345  1  0.63847768  0.39040605  0.60940555  1
  O  O346  1  0.62662027  0.84661407  0.13599682  1
  O  O347  1  0.61557866  0.90106339  0.62332103  1
  O  O348  1  0.12643513  0.26714453  0.23394140  1
  O  O349  1  0.12065117  0.29053921  0.72187654  1
  O  O350  1  0.13089032  0.75403394  0.26324713  1
  O  O351  1  0.12578608  0.76195908  0.75631705  1
  O  O352  1  0.61592633  0.26356378  0.25239958  1
  O  O353  1  0.61132652  0.22658913  0.79017194  1
  O  O354  1  0.62573838  0.74254634  0.27393240  1
  O  O355  1  0.66606688  0.77413191  0.74534535  1
  O  O356  1  0.39232708  0.25375173  0.24618941  1
  O  O357  1  0.37939778  0.25896733  0.72925699  1
  O  O358  1  0.36318342  0.75867307  0.23268074  1
  O  O359  1  0.37070190  0.73816838  0.74093883  1
  O  O360  1  0.88366054  0.24224825  0.23294037  1
  O  O361  1  0.88975982  0.27537718  0.72073334  1
  O  O362  1  0.86644697  0.74239794  0.24029205  1
  O  O363  1  0.86556813  0.73727939  0.73595046  1
  O  O364  1  0.36976464  0.48865708  0.49682820  1
  O  O365  1  0.36926903  0.49078968  0.99120415  1
  O  O366  1  0.36880728  0.97976816  0.51312739  1
  O  O367  1  0.37791858  0.99336411  0.99195506  1
  O  O368  1  0.87850637  0.49524357  0.48701583  1
  O  O369  1  0.88112884  0.50308414  0.99159072  1
  O  O370  1  0.88848110  0.98580381  0.51177817  1
  O  O371  1  0.91882859  1.02136255  1.02346743  1
  O  O372  1  0.12334836  0.01635854  -0.00439228  1
  O  O373  1  0.10984546  -0.00974516  0.51534924  1
  O  O374  1  0.10953383  0.50369329  0.01466273  1
  O  O375  1  0.10937550  0.49226558  0.49399958  1
  O  O376  1  0.69772790  0.03284133  -0.05626931  1
  O  O377  1  0.62188329  0.00594311  0.50485121  1
  O  O378  1  0.61464536  0.49640137  -0.00508515  1
  O  O379  1  0.62689941  0.51495854  0.50958615  1
  O  O380  1  0.37125116  0.39736772  0.12808492  1
  O  O381  1  0.37806961  0.36592719  0.61247822  1
  O  O382  1  0.37493185  0.80058351  0.17423447  1
  O  O383  1  0.36552815  0.86333818  0.62284331  1
  O  O384  1  0.86784367  0.36998268  0.12203872  1
  O  O385  1  0.86710344  0.37493853  0.60784482  1
  O  O386  1  0.86139098  0.86211243  0.12678517  1
  O  O387  1  0.87873887  0.85726091  0.61564174  1
  O  O388  1  0.15116689  0.13393565  0.37105056  1
  O  O389  1  0.09777181  0.19463504  0.85350110  1
  O  O390  1  0.13872999  0.63852997  0.37549013  1
  O  O391  1  0.13228413  0.63975989  0.86469280  1
  O  O392  1  0.64609386  0.14163783  0.37039953  1
  O  O393  1  0.54931170  0.08065325  0.96357315  1
  O  O394  1  0.63185965  0.62945943  0.38857719  1
  O  O395  1  0.64158485  0.61652572  0.86452596  1
