# generated using pymatgen
data_V35Zn35O128
_symmetry_space_group_name_H-M   'P 1'
_cell_length_a   16.94970304
_cell_length_b   16.86980636
_cell_length_c   16.95234134
_cell_angle_alpha   90.45132664
_cell_angle_beta   90.06072689
_cell_angle_gamma   89.82982747
_symmetry_Int_Tables_number   1
_chemical_formula_structural   V35Zn35O128
_chemical_formula_sum   'V70 Zn70 O256'
_cell_volume   4847.14773757
_cell_formula_units_Z   2
loop_
 _symmetry_equiv_pos_site_id
 _symmetry_equiv_pos_as_xyz
  1  'x, y, z'
loop_
 _atom_site_type_symbol
 _atom_site_label
 _atom_site_symmetry_multiplicity
 _atom_site_fract_x
 _atom_site_fract_y
 _atom_site_fract_z
 _atom_site_occupancy
  V  V0  1  0.37490713  0.75295780  0.63196550  1
  V  V1  1  0.38531151  0.87671913  0.50208184  1
  V  V2  1  0.25502317  0.73608373  0.49849642  1
  V  V3  1  0.12832772  0.76085404  0.37911110  1
  V  V4  1  0.64351896  0.87866084  0.24358195  1
  V  V5  1  0.13646709  0.12004649  0.49794861  1
  V  V6  1  0.24034181  0.12096715  0.85451443  1
  V  V7  1  0.62096472  0.12415625  0.49318427  1
  V  V8  1  0.62792579  0.36621859  0.74541573  1
  V  V9  1  0.10281595  0.62061487  0.49244831  1
  V  V10  1  0.25396988  0.51889128  0.25834756  1
  V  V11  1  -0.01132776  0.87368239  0.41253481  1
  V  V12  1  0.76392998  0.75386116  0.50300874  1
  V  V13  1  -0.00359847  -0.00180448  0.01484258  1
  V  V14  1  0.12153324  0.35274986  0.73482623  1
  V  V15  1  0.35693671  -0.00853410  0.86994184  1
  V  V16  1  0.38695008  0.36820434  0.50377017  1
  V  V17  1  0.61083811  0.37972239  0.22214864  1
  V  V18  1  0.62408212  0.23710224  0.87854844  1
  V  V19  1  0.50479473  0.88035878  0.86912405  1
  V  V20  1  0.75897781  0.61607889  0.36621667  1
  V  V21  1  0.61420706  -0.00747351  0.61114835  1
  V  V22  1  0.52048620  0.49494785  0.00068895  1
  V  V23  1  0.75160595  0.49315496  0.22447965  1
  V  V24  1  0.39450450  0.49879237  0.37043695  1
  V  V25  1  0.25419708  0.25641624  0.47142881  1
  V  V26  1  0.62202510  0.26599032  0.37322877  1
  V  V27  1  0.49786439  0.13003270  0.12186515  1
  V  V28  1  0.86113590  0.86287184  0.00367604  1
  V  V29  1  0.13567546  0.75721093  0.87314298  1
  V  V30  1  0.64562731  0.00029134  0.12081745  1
  V  V31  1  0.49435483  0.38061327  0.85859953  1
  V  V32  1  0.25678041  0.24292915  -0.00106559  1
  V  V33  1  0.12338284  0.50588977  0.12856988  1
  V  V34  1  -0.00620050  0.63129729  0.12391313  1
  V  V35  1  0.04091376  0.78003143  0.21050101  1
  V  V36  1  0.62491557  0.50458791  0.62913856  1
  V  V37  1  0.86299183  0.12681403  0.76531620  1
  V  V38  1  0.50302346  0.87994159  0.36644466  1
  V  V39  1  0.49739588  0.62894370  0.62823695  1
  V  V40  1  0.48320304  -0.00753415  0.01096033  1
  V  V41  1  0.88045710  0.38040251  0.48791011  1
  V  V42  1  0.85779962  0.74603730  0.13760414  1
  V  V43  1  0.62517821  0.62840657  0.50215924  1
  V  V44  1  0.74057847  0.72520676  -0.02059902  1
  V  V45  1  0.13674063  0.52679517  0.64979958  1
  V  V46  1  0.87096224  0.00477392  0.37220937  1
  V  V47  1  0.25358627  0.77152373  0.01791551  1
  V  V48  1  0.35885025  0.39666218  -0.02036735  1
  V  V49  1  0.73252763  -0.00101213  0.75317484  1
  V  V50  1  0.74920873  0.37057641  0.61637569  1
  V  V51  1  0.25928869  0.38646467  0.12830117  1
  V  V52  1  -0.00463655  0.87088478  0.86585902  1
  V  V53  1  0.76455419  0.51483275  0.74750301  1
  V  V54  1  0.86321438  -0.00219575  0.87776306  1
  V  V55  1  0.76142995  0.86861988  0.63186020  1
  V  V56  1  0.39779797  0.63441717  0.24548202  1
  V  V57  1  0.13702055  0.63050918  0.00347433  1
  V  V58  1  0.39471049  0.75875055  0.12326836  1
  V  V59  1  0.24541049  0.88604798  0.62899309  1
  V  V60  1  0.10382466  0.24453295  0.88919854  1
  V  V61  1  0.62090470  0.74994869  0.37001411  1
  V  V62  1  0.37844757  0.13013759  0.24759294  1
  V  V63  1  0.24331169  -0.01563380  0.23464123  1
  V  V64  1  0.51527486  0.76168302  0.74866730  1
  V  V65  1  0.93129468  0.49241350  0.91132385  1
  V  V66  1  -0.02104421  0.25547744  0.74995180  1
  V  V67  1  0.85856234  0.23635754  0.61188577  1
  V  V68  1  0.36777231  0.00188361  0.37463405  1
  V  V69  1  -0.00203738  0.72273467  0.74952144  1
  Zn  Zn70  1  0.43697681  0.18162169  0.68482692  1
  Zn  Zn71  1  0.50857400  0.49437030  0.49670620  1
  Zn  Zn72  1  0.90168269  0.23523270  0.15160409  1
  Zn  Zn73  1  0.28098252  0.56484091  0.82096826  1
  Zn  Zn74  1  0.76235633  0.13116759  0.39222362  1
  Zn  Zn75  1  0.17222441  0.04547112  0.67002704  1
  Zn  Zn76  1  0.19708894  0.16491319  0.31229970  1
  Zn  Zn77  1  0.21686083  0.21609170  0.67137820  1
  Zn  Zn78  1  0.19686161  0.69452602  0.19060045  1
  Zn  Zn79  1  0.18089603  0.69979817  0.68112058  1
  Zn  Zn80  1  0.66737861  0.19041938  0.18958685  1
  Zn  Zn81  1  0.67719866  0.17871299  0.68262001  1
  Zn  Zn82  1  0.67971175  0.68293621  0.18348692  1
  Zn  Zn83  1  0.82735904  0.68072265  0.67797610  1
  Zn  Zn84  1  0.32342207  0.31840562  0.30705170  1
  Zn  Zn85  1  0.31136432  0.31588545  0.79960782  1
  Zn  Zn86  1  0.31401620  0.81087589  0.30981362  1
  Zn  Zn87  1  0.31133855  0.82121965  0.80958237  1
  Zn  Zn88  1  0.79551487  0.30409590  0.30079202  1
  Zn  Zn89  1  0.80998366  0.32309549  0.84732135  1
  Zn  Zn90  1  0.81270339  0.81577133  0.32507734  1
  Zn  Zn91  1  0.81162060  0.80495185  0.81011656  1
  Zn  Zn92  1  0.23912448  0.47854768  0.47961938  1
  Zn  Zn93  1  0.15200886  0.43527464  0.93017360  1
  Zn  Zn94  1  0.19323156  0.93310503  0.44701594  1
  Zn  Zn95  1  0.17725163  0.94497037  0.94987726  1
  Zn  Zn96  1  0.69221909  0.43634112  0.43908924  1
  Zn  Zn97  1  0.69956941  0.43987865  0.92769773  1
  Zn  Zn98  1  0.69200435  0.93474508  0.43869103  1
  Zn  Zn99  1  0.68153636  0.93349924  0.94030854  1
  Zn  Zn100  1  0.31150280  0.06021511  0.07002997  1
  Zn  Zn101  1  0.30944654  0.07013144  0.54579271  1
  Zn  Zn102  1  0.31709153  0.57424443  0.06309863  1
  Zn  Zn103  1  0.30628205  0.55916906  0.65508053  1
  Zn  Zn104  1  0.84674736  0.06617725  0.09025927  1
  Zn  Zn105  1  0.80363827  0.05323664  0.56248308  1
  Zn  Zn106  1  0.81868496  0.55277084  0.05036138  1
  Zn  Zn107  1  0.81531347  0.55605127  0.55445772  1
  Zn  Zn108  1  0.43612741  0.44278778  0.17886574  1
  Zn  Zn109  1  0.43400345  0.43842805  0.68004871  1
  Zn  Zn110  1  0.43980807  0.93336545  0.19518671  1
  Zn  Zn111  1  0.43309935  0.96319101  0.69227271  1
  Zn  Zn112  1  0.91710102  0.41058936  0.28543229  1
  Zn  Zn113  1  0.94791124  0.44100934  0.67146103  1
  Zn  Zn114  1  0.92639649  0.93021892  0.19064353  1
  Zn  Zn115  1  0.93624984  0.94262509  0.68670538  1
  Zn  Zn116  1  0.07852184  0.02907077  0.33770282  1
  Zn  Zn117  1  0.04660725  0.06772596  0.82223281  1
  Zn  Zn118  1  0.06146464  0.58110719  0.30070379  1
  Zn  Zn119  1  0.09353238  0.55259737  0.82468742  1
  Zn  Zn120  1  0.56372340  0.06069565  0.30966519  1
  Zn  Zn121  1  0.54016958  0.06432762  0.80065025  1
  Zn  Zn122  1  0.57387299  0.56245876  0.30428240  1
  Zn  Zn123  1  0.44837196  0.56800327  0.81081161  1
  Zn  Zn124  1  0.45122235  0.18443613  0.43295071  1
  Zn  Zn125  1  0.41433597  0.20347230  0.87543981  1
  Zn  Zn126  1  0.43746114  0.68580089  0.43578090  1
  Zn  Zn127  1  0.41435849  0.70540160  0.92154857  1
  Zn  Zn128  1  0.94004795  0.12185624  0.47598098  1
  Zn  Zn129  1  0.92863431  0.17454044  0.96047467  1
  Zn  Zn130  1  0.93835116  0.68551297  0.42963929  1
  Zn  Zn131  1  0.93970803  0.68006252  0.93561026  1
  Zn  Zn132  1  0.10864981  0.28670532  0.10092857  1
  Zn  Zn133  1  0.04988855  0.27625771  0.55003584  1
  Zn  Zn134  1  0.07065668  0.83760343  0.04379971  1
  Zn  Zn135  1  0.06608432  0.80771432  0.57153928  1
  Zn  Zn136  1  0.54875323  0.31100921  0.04587057  1
  Zn  Zn137  1  0.55957368  0.30359224  0.55819080  1
  Zn  Zn138  1  0.57148858  0.81569317  0.05544685  1
  Zn  Zn139  1  0.56893855  0.81601577  0.56302958  1
  O  O140  1  0.06420393  0.17545206  0.20575624  1
  O  O141  1  0.15998345  0.13945804  0.60596761  1
  O  O142  1  0.12720389  0.63062534  0.11885579  1
  O  O143  1  0.12398449  0.62600113  0.60271741  1
  O  O144  1  0.61182639  0.10630689  0.13551013  1
  O  O145  1  0.62576543  0.10220308  0.61585069  1
  O  O146  1  0.60289630  0.62070463  0.13457104  1
  O  O147  1  0.61527688  0.62021856  0.61407705  1
  O  O148  1  0.38846699  0.39774048  0.35402109  1
  O  O149  1  0.37817137  0.38107538  0.87081612  1
  O  O150  1  0.38767182  0.87781861  0.37833054  1
  O  O151  1  0.37050482  0.88666310  0.88393026  1
  O  O152  1  0.86303491  0.36622750  0.38676411  1
  O  O153  1  0.88477237  0.41083424  0.86641086  1
  O  O154  1  0.88501610  0.87791877  0.38914299  1
  O  O155  1  0.87859734  0.87635417  0.88040988  1
  O  O156  1  0.26557193  -0.00703561  0.37185456  1
  O  O157  1  0.24341768  0.01238113  0.88872814  1
  O  O158  1  0.26402229  0.50169567  0.35799386  1
  O  O159  1  0.19668627  0.51989888  0.87254337  1
  O  O160  1  0.76846259  -0.00254003  0.38535493  1
  O  O161  1  0.75056560  -0.01561692  0.86111739  1
  O  O162  1  0.74991279  0.51637413  0.38334270  1
  O  O163  1  0.74495070  0.50507976  0.84567177  1
  O  O164  1  0.24766302  0.50190016  0.13117111  1
  O  O165  1  0.22103702  0.48892312  0.60084389  1
  O  O166  1  0.25311203  0.99136122  0.13459595  1
  O  O167  1  0.26239769  0.99228414  0.62041070  1
  O  O168  1  0.74821316  0.50644693  0.12583470  1
  O  O169  1  0.74221177  0.48900263  0.62371279  1
  O  O170  1  0.74362805  1.01348722  0.11554280  1
  O  O171  1  0.74407311  0.98802360  0.63870430  1
  O  O172  1  0.00110802  0.48292719  0.32747745  1
  O  O173  1  -0.00274139  0.35958952  0.74980468  1
  O  O174  1  -0.00808387  0.85752753  0.25284209  1
  O  O175  1  -0.01065090  0.86851102  0.76570252  1
  O  O176  1  0.51127925  0.38649487  0.24099328  1
  O  O177  1  0.50887206  0.38660000  0.75285565  1
  O  O178  1  0.51156804  0.87008198  0.26373565  1
  O  O179  1  0.48798367  0.87455740  0.75836883  1
  O  O180  1  0.49034317  0.10922901  0.23499313  1
  O  O181  1  0.46367591  0.07576625  0.72135504  1
  O  O182  1  0.49673828  0.62554311  0.24549958  1
  O  O183  1  0.50304680  0.64591784  0.73699085  1
  O  O184  1  0.98568552  0.21845872  0.33614257  1
  O  O185  1  0.97045047  0.13638651  0.76670660  1
  O  O186  1  1.01669202  0.66088436  0.22764844  1
  O  O187  1  1.02397821  0.62545554  0.75863858  1
  O  O188  1  0.35570777  0.26768844  -0.01834671  1
  O  O189  1  0.37796692  0.26648852  0.46643256  1
  O  O190  1  0.36251587  0.74871397  0.01298277  1
  O  O191  1  0.37273214  0.75703250  0.50623538  1
  O  O192  1  0.87466715  0.17302446  0.05827323  1
  O  O193  1  0.86865633  0.22427045  0.51485433  1
  O  O194  1  0.86470626  0.75277862  -0.00204450  1
  O  O195  1  0.86139935  0.74530368  0.49460674  1
  O  O196  1  0.15830399  0.26488940  0.49949915  1
  O  O197  1  0.13627556  0.25689165  0.99014544  1
  O  O198  1  0.13310359  0.73987333  0.49580460  1
  O  O199  1  0.13988479  0.75294925  0.99900529  1
  O  O200  1  0.62497977  0.23742075  0.48493162  1
  O  O201  1  0.61749575  0.24989153  0.97879563  1
  O  O202  1  0.63241597  0.74312964  0.49302352  1
  O  O203  1  0.64417173  0.75091863  0.99938917  1
  O  O204  1  0.50523970  0.22848457  0.11529626  1
  O  O205  1  0.51983934  0.23565442  0.63465368  1
  O  O206  1  0.49321543  0.75333238  0.11105379  1
  O  O207  1  0.49565777  0.75264956  0.63249322  1
  O  O208  1  1.02614238  0.21523079  0.14193713  1
  O  O209  1  0.96730023  0.24392317  0.64695582  1
  O  O210  1  0.97700022  0.75036889  0.12446634  1
  O  O211  1  1.01738360  0.74975584  0.65473751  1
  O  O212  1  0.02693977  0.27690603  0.34835903  1
  O  O213  1  0.00154025  0.24066529  0.89770838  1
  O  O214  1  0.00847122  0.76710304  0.38496497  1
  O  O215  1  0.00314223  0.75721803  0.86907808  1
  O  O216  1  0.52672296  0.23367594  0.36238018  1
  O  O217  1  0.50545522  0.27416177  0.87339365  1
  O  O218  1  0.51441729  0.75859880  0.37909797  1
  O  O219  1  0.48885989  0.77087363  0.85867655  1
  O  O220  1  0.24705896  0.14189740  0.47550086  1
  O  O221  1  0.25460752  0.14512909  1.01850494  1
  O  O222  1  0.25725402  0.63754855  0.49703968  1
  O  O223  1  0.24055838  0.64350979  1.00570495  1
  O  O224  1  0.73193729  0.12163666  0.50565385  1
  O  O225  1  0.75451742  0.26026990  1.03904947  1
  O  O226  1  0.74157659  0.63455884  0.49330897  1
  O  O227  1  0.75334587  0.62544365  0.99112659  1
  O  O228  1  0.25406208  0.38387868  -0.01107594  1
  O  O229  1  0.27469276  0.36627608  0.48186158  1
  O  O230  1  0.24632494  0.87002350  0.00516100  1
  O  O231  1  0.26776768  0.86700740  0.50687902  1
  O  O232  1  0.78147848  0.36665680  -0.04808595  1
  O  O233  1  0.75969950  0.37286744  0.51005412  1
  O  O234  1  0.75980682  0.86461484  -0.00965346  1
  O  O235  1  0.74942557  0.85914709  0.50691209  1
  O  O236  1  0.14570846  0.52024913  0.23874440  1
  O  O237  1  0.13132061  0.45922568  0.74172564  1
  O  O238  1  0.14456745  1.00818740  0.25191908  1
  O  O239  1  0.08308903  1.00385362  0.72756141  1
  O  O240  1  0.63433589  0.48732507  0.24690654  1
  O  O241  1  0.63156780  0.49316712  0.73147088  1
  O  O242  1  0.62319844  0.98642008  0.23745514  1
  O  O243  1  0.63162892  0.99942669  0.74189893  1
  O  O244  1  0.36974166  -0.00504193  0.26208579  1
  O  O245  1  0.34946493  -0.01070446  0.77198788  1
  O  O246  1  0.37305505  0.51526832  0.24951318  1
  O  O247  1  0.36745442  0.50935663  0.74017200  1
  O  O248  1  0.87824606  -0.01060714  0.27221543  1
  O  O249  1  0.86424525  0.00717560  0.76139722  1
  O  O250  1  0.85034080  0.49473946  0.24607807  1
  O  O251  1  0.86258732  0.49384251  0.72649912  1
  O  O252  1  0.11319372  0.40028132  0.34750491  1
  O  O253  1  0.12707102  0.34394529  0.86006821  1
  O  O254  1  0.10955756  0.86835284  0.39436466  1
  O  O255  1  0.10557412  0.86635431  0.88683995  1
  O  O256  1  0.62203032  0.36768345  0.38213412  1
  O  O257  1  0.61520879  0.37207689  0.85549244  1
  O  O258  1  0.61849885  0.87266013  0.36919708  1
  O  O259  1  0.60316447  0.89036834  0.86798578  1
  O  O260  1  0.38744862  0.11945990  0.13645432  1
  O  O261  1  0.35230817  0.16667073  0.59746205  1
  O  O262  1  0.37745111  0.63713822  0.13730169  1
  O  O263  1  0.38693540  0.63769062  0.61792035  1
  O  O264  1  0.83591968  0.13265434  0.20252082  1
  O  O265  1  0.85483947  0.13652144  0.64788171  1
  O  O266  1  0.88819248  0.63397397  0.12006131  1
  O  O267  1  0.88693733  0.62389823  0.60437892  1
  O  O268  1  0.23643664  0.28330280  0.10350000  1
  O  O269  1  0.29981728  0.23319302  0.59014398  1
  O  O270  1  0.25780117  0.75832712  0.11922272  1
  O  O271  1  0.25831003  0.75860768  0.61587209  1
  O  O272  1  0.74083277  0.26772818  0.11088029  1
  O  O273  1  0.75308322  0.25677707  0.63340545  1
  O  O274  1  0.75924160  0.73268158  0.11093386  1
  O  O275  1  0.75671012  0.75885952  0.61620246  1
  O  O276  1  0.24682621  0.25667842  0.36559229  1
  O  O277  1  0.23900640  0.22810070  0.88389260  1
  O  O278  1  0.23616055  0.76440583  0.38622510  1
  O  O279  1  0.23817605  0.76435244  0.88319380  1
  O  O280  1  0.72929198  0.23783034  0.36303303  1
  O  O281  1  0.72337372  0.24348252  0.85994083  1
  O  O282  1  0.74112979  0.74392179  0.38614059  1
  O  O283  1  0.75267998  0.74181723  0.88066727  1
  O  O284  1  0.01102836  0.09268707  -0.01072748  1
  O  O285  1  0.03757850  0.16311984  0.51055518  1
  O  O286  1  0.01874189  0.64336961  0.02014988  1
  O  O287  1  0.00373674  0.61736230  0.49226600  1
  O  O288  1  0.49913700  0.10102850  0.01691395  1
  O  O289  1  0.51858721  0.12129974  0.50018750  1
  O  O290  1  0.50739333  0.60687496  0.00581762  1
  O  O291  1  0.51022216  0.62919963  0.50852617  1
  O  O292  1  0.49262324  0.37670439  0.49589588  1
  O  O293  1  0.48045734  0.38424160  0.98388710  1
  O  O294  1  0.49143169  0.86663221  0.48801507  1
  O  O295  1  0.50250545  0.88530119  0.98504779  1
  O  O296  1  0.97544548  0.34804785  0.50258434  1
  O  O297  1  0.99208082  0.34447115  1.03985323  1
  O  O298  1  0.99178770  0.87067145  0.51138069  1
  O  O299  1  0.97631836  0.87268535  0.98878965  1
  O  O300  1  0.49666047  0.51067727  0.37812228  1
  O  O301  1  0.49931030  0.48863022  0.88216587  1
  O  O302  1  0.49451705  0.98373131  0.37232605  1
  O  O303  1  0.47703557  0.99417604  0.88099617  1
  O  O304  1  1.05570283  0.43162008  0.38177683  1
  O  O305  1  1.03435345  0.48183965  0.89774141  1
  O  O306  1  0.99225571  0.97937585  0.38437163  1
  O  O307  1  0.98687555  0.98422788  0.88278296  1
  O  O308  1  -0.04204421  0.00718967  0.11242238  1
  O  O309  1  0.02589816  0.00924796  0.66427334  1
  O  O310  1  0.01985214  0.52468392  0.13969858  1
  O  O311  1  0.04413943  0.49173383  0.62616216  1
  O  O312  1  0.49875260  -0.00946816  0.11532660  1
  O  O313  1  0.51751989  -0.02758810  0.61482796  1
  O  O314  1  0.49360767  0.49312623  0.09682647  1
  O  O315  1  0.50635270  0.51239698  0.62017314  1
  O  O316  1  0.26499910  0.39040517  0.23122166  1
  O  O317  1  0.22259564  0.31644262  0.73225123  1
  O  O318  1  0.25072378  0.88486994  0.25365593  1
  O  O319  1  0.24799363  0.87155207  0.72829449  1
  O  O320  1  0.73466685  0.38775895  0.24079506  1
  O  O321  1  0.73444961  0.38117433  0.73838929  1
  O  O322  1  0.74121203  0.88101348  0.25969362  1
  O  O323  1  0.75412888  0.87928762  0.73940179  1
  O  O324  1  0.27423429  0.10572326  0.25004192  1
  O  O325  1  0.23470696  0.12058080  0.75428289  1
  O  O326  1  0.26378590  0.62118370  0.25018272  1
  O  O327  1  0.20974337  0.59429591  0.72139306  1
  O  O328  1  0.76746797  0.14429852  0.23928042  1
  O  O329  1  0.74784283  0.10629579  0.75214361  1
  O  O330  1  0.73669113  0.61051007  0.26145933  1
  O  O331  1  0.75225789  0.61360654  0.72992986  1
  O  O332  1  0.39071600  0.10586470  0.36467697  1
  O  O333  1  0.34833692  0.10930776  0.88213074  1
  O  O334  1  0.38363815  0.61811120  0.35742847  1
  O  O335  1  0.36419370  0.63032651  0.85674321  1
  O  O336  1  0.87901491  0.11187559  0.37303520  1
  O  O337  1  0.86551169  0.10703544  0.88054738  1
  O  O338  1  0.85755562  0.63374383  0.36843680  1
  O  O339  1  0.90575063  0.58730389  0.87998604  1
  O  O340  1  0.13621183  0.40022660  0.12288026  1
  O  O341  1  0.10450592  0.33367775  0.63841743  1
  O  O342  1  0.10668273  0.82383900  0.14940611  1
  O  O343  1  0.14742806  0.87932311  0.60758357  1
  O  O344  1  0.61473273  0.36785006  0.12314552  1
  O  O345  1  0.62832221  0.38079999  0.62632515  1
  O  O346  1  0.63244596  0.88144277  0.13638973  1
  O  O347  1  0.64458326  0.88412038  0.61716084  1
  O  O348  1  0.13315737  0.21382713  0.22090442  1
  O  O349  1  0.08617632  0.24009331  0.76724066  1
  O  O350  1  0.13146086  0.75196760  0.27278013  1
  O  O351  1  0.12135174  0.74889534  0.77061226  1
  O  O352  1  0.62825272  0.27351182  0.25464203  1
  O  O353  1  0.62168180  0.26442968  0.74348064  1
  O  O354  1  0.63655163  0.76430767  0.26029176  1
  O  O355  1  0.60967855  0.76591574  0.74782889  1
  O  O356  1  0.37674202  0.22901475  0.25756443  1
  O  O357  1  0.37885150  0.23191868  0.77011133  1
  O  O358  1  0.37844692  0.74144525  0.24193173  1
  O  O359  1  0.37311853  0.75675443  0.73380401  1
  O  O360  1  0.89016331  0.30821180  0.23636976  1
  O  O361  1  0.87244703  0.24739749  0.77644986  1
  O  O362  1  0.85573829  0.75364682  0.23606613  1
  O  O363  1  0.89152999  0.73484605  0.75742041  1
  O  O364  1  0.37240393  0.48618530  0.47749253  1
  O  O365  1  0.36754309  0.49776549  0.98848659  1
  O  O366  1  0.37394086  0.99182528  0.48446494  1
  O  O367  1  0.38080193  0.99691898  0.99998022  1
  O  O368  1  0.88365768  0.47959007  0.50068656  1
  O  O369  1  0.90546984  0.49355067  1.01006740  1
  O  O370  1  0.88926936  1.02196934  0.49622993  1
  O  O371  1  0.87206369  0.98318020  0.99192029  1
  O  O372  1  0.09334685  -0.03941406  0.02630869  1
  O  O373  1  0.13540824  0.01917725  0.50190904  1
  O  O374  1  0.13305910  0.52151588  0.01997960  1
  O  O375  1  0.13422961  0.52612348  0.47503298  1
  O  O376  1  0.61849754  -0.01005775  0.01921435  1
  O  O377  1  0.62756200  0.00137259  0.50646246  1
  O  O378  1  0.61892833  0.48232118  -0.00516537  1
  O  O379  1  0.62742888  0.51026170  0.50797143  1
  O  O380  1  0.36095102  0.38638568  0.10066403  1
  O  O381  1  0.37882751  0.37340797  0.60340464  1
  O  O382  1  0.37995264  0.85736628  0.13536453  1
  O  O383  1  0.37230758  0.87184977  0.61676466  1
  O  O384  1  0.92660656  0.34541524  0.07448085  1
  O  O385  1  0.86466039  0.35636673  0.61496487  1
  O  O386  1  0.86760933  0.85894996  0.11223793  1
  O  O387  1  0.86088538  0.88460648  0.62443040  1
  O  O388  1  0.12227226  0.12314130  0.38589049  1
  O  O389  1  0.12963492  0.13011326  0.87527943  1
  O  O390  1  0.11186984  0.64901161  0.38229790  1
  O  O391  1  0.11564591  0.65133181  0.89825090  1
  O  O392  1  0.63273149  0.11039379  0.38572816  1
  O  O393  1  0.59810458  0.14039746  0.85754784  1
  O  O394  1  0.63074481  0.63319562  0.38212988  1
  O  O395  1  0.51915582  0.64530248  0.93889345  1
