# generated using pymatgen
data_V35Zn35O128
_symmetry_space_group_name_H-M   'P 1'
_cell_length_a   16.89735923
_cell_length_b   16.91812004
_cell_length_c   16.89036422
_cell_angle_alpha   89.90563794
_cell_angle_beta   90.17395823
_cell_angle_gamma   90.29659164
_symmetry_Int_Tables_number   1
_chemical_formula_structural   V35Zn35O128
_chemical_formula_sum   'V70 Zn70 O256'
_cell_volume   4828.38126159
_cell_formula_units_Z   2
loop_
 _symmetry_equiv_pos_site_id
 _symmetry_equiv_pos_as_xyz
  1  'x, y, z'
loop_
 _atom_site_type_symbol
 _atom_site_label
 _atom_site_symmetry_multiplicity
 _atom_site_fract_x
 _atom_site_fract_y
 _atom_site_fract_z
 _atom_site_occupancy
  V  V0  1  0.49306878  0.12333176  0.13098763  1
  V  V1  1  0.37748803  0.24358141  0.12893619  1
  V  V2  1  0.62618723  0.74724202  0.37561841  1
  V  V3  1  0.62495336  -0.00326254  0.11995599  1
  V  V4  1  0.62445307  0.12113767  -0.01361892  1
  V  V5  1  0.36607917  0.61460141  0.25022065  1
  V  V6  1  0.00330257  0.13792007  0.12264435  1
  V  V7  1  0.25351902  0.37285368  0.13759408  1
  V  V8  1  0.75956033  0.10324890  0.86626002  1
  V  V9  1  0.01093042  0.49700870  0.00303359  1
  V  V10  1  0.24504113  0.01283505  0.25350169  1
  V  V11  1  0.63437888  0.74960699  0.88007398  1
  V  V12  1  0.00935106  0.12546170  0.60633197  1
  V  V13  1  0.63626052  0.12039230  0.49731680  1
  V  V14  1  0.24933816  0.35958680  0.62213125  1
  V  V15  1  0.64227325  0.62343813  -0.00049824  1
  V  V16  1  0.48985009  0.87205756  0.37742563  1
  V  V17  1  0.75260182  0.75691279  0.52104167  1
  V  V18  1  0.39321912  0.24578642  0.63973271  1
  V  V19  1  0.49919710  0.61637184  0.11668887  1
  V  V20  1  0.36500289  0.00807584  0.37349038  1
  V  V21  1  0.37477585  0.49270719  0.37627172  1
  V  V22  1  -0.00217134  0.86536747  0.87779578  1
  V  V23  1  0.48865588  0.74815183  0.24694841  1
  V  V24  1  0.12928535  0.63181978  -0.01084928  1
  V  V25  1  0.26246187  0.86861718  0.13093121  1
  V  V26  1  0.15274805  0.25293310  0.37226096  1
  V  V27  1  0.31721275  0.67839094  0.69807417  1
  V  V28  1  0.12005048  0.37072696  0.75306816  1
  V  V29  1  0.11884886  0.50959729  0.61673486  1
  V  V30  1  0.38514753  0.11068514  0.75340295  1
  V  V31  1  0.12079398  0.75787575  0.37451269  1
  V  V32  1  0.13792454  0.89483968  0.76454033  1
  V  V33  1  -0.00862520  0.00407775  -0.00525298  1
  V  V34  1  0.25133274  0.11557203  0.86972191  1
  V  V35  1  0.74571082  0.25424568  -0.01422016  1
  V  V36  1  0.38335676  0.50130512  0.86880215  1
  V  V37  1  0.12014384  0.24971872  0.87804563  1
  V  V38  1  0.74609755  0.00916368  0.26683293  1
  V  V39  1  0.49910530  0.50044942  0.50790259  1
  V  V40  1  0.47924894  0.86854034  0.87578401  1
  V  V41  1  0.88980137  0.51919351  0.86090696  1
  V  V42  1  0.37699258  0.37177654  -0.00340510  1
  V  V43  1  0.62057144  0.62624463  0.50172752  1
  V  V44  1  0.13289757  0.50378659  0.12818158  1
  V  V45  1  0.74415771  0.25760911  0.48894580  1
  V  V46  1  0.50820035  0.35626977  0.86941985  1
  V  V47  1  0.10402177  0.37797858  0.25212633  1
  V  V48  1  0.35611308  0.86024010  0.50492547  1
  V  V49  1  0.86296340  0.25367780  0.62454233  1
  V  V50  1  0.62647616  0.50768747  0.63207771  1
  V  V51  1  -0.00457933  0.24615832  0.75045093  1
  V  V52  1  0.88039950  0.37273031  -0.01635425  1
  V  V53  1  0.48415981  -0.00937188  -0.00749226  1
  V  V54  1  0.62827617  0.87039492  0.74697524  1
  V  V55  1  0.25518947  0.49318349  0.74980435  1
  V  V56  1  0.63486356  -0.00453469  0.63122083  1
  V  V57  1  0.49513144  -0.00171327  0.51394735  1
  V  V58  1  0.87007866  0.13039811  0.25617063  1
  V  V59  1  0.63192279  0.35988670  0.74832971  1
  V  V60  1  0.76205200  0.87314966  0.11683929  1
  V  V61  1  0.61794136  0.87784109  0.24981716  1
  V  V62  1  0.86722449  0.25810834  0.12299806  1
  V  V63  1  0.49626663  0.73303073  0.74075369  1
  V  V64  1  0.38449648  0.36099594  0.50031400  1
  V  V65  1  0.24468411  0.24419655  -0.00132425  1
  V  V66  1  0.75386369  0.51352915  0.75556935  1
  V  V67  1  0.96126467  0.93337069  0.48666623  1
  V  V68  1  0.24023393  0.61977187  0.39060266  1
  V  V69  1  0.11830872  -0.01170616  0.12870571  1
  Zn  Zn70  1  0.37268682  0.74596859  0.10373314  1
  Zn  Zn71  1  0.24763584  0.77283154  -0.02468541  1
  Zn  Zn72  1  0.88588052  0.64753295  0.23159200  1
  Zn  Zn73  1  0.25542843  0.62411415  0.87590936  1
  Zn  Zn74  1  0.51418665  0.49234415  0.00083525  1
  Zn  Zn75  1  0.88565758  0.09474018  0.75067477  1
  Zn  Zn76  1  0.18809588  0.19567442  0.19492388  1
  Zn  Zn77  1  0.19023642  0.17861883  0.69126981  1
  Zn  Zn78  1  0.18330982  0.68652851  0.19146949  1
  Zn  Zn79  1  0.12744332  0.71190686  0.68295189  1
  Zn  Zn80  1  0.68978595  0.17860270  0.17099084  1
  Zn  Zn81  1  0.68309712  0.17410326  0.68738162  1
  Zn  Zn82  1  0.67832889  0.69035534  0.18314068  1
  Zn  Zn83  1  0.77419730  0.72604196  0.73484142  1
  Zn  Zn84  1  0.35988332  0.26846322  0.33974100  1
  Zn  Zn85  1  0.31323414  0.30800951  0.81338408  1
  Zn  Zn86  1  0.29976550  0.81077090  0.31258028  1
  Zn  Zn87  1  0.24424921  0.85824787  0.63916416  1
  Zn  Zn88  1  0.80285178  0.31407303  0.30882151  1
  Zn  Zn89  1  0.80947761  0.30861132  0.80814018  1
  Zn  Zn90  1  0.79410048  0.80083693  0.27103262  1
  Zn  Zn91  1  0.84111819  0.89156865  0.77440052  1
  Zn  Zn92  1  0.19009603  0.43132004  0.43901132  1
  Zn  Zn93  1  0.19420553  0.43110159  0.93619720  1
  Zn  Zn94  1  0.16957871  0.92415962  0.42593005  1
  Zn  Zn95  1  0.18079393  0.94552485  0.95044857  1
  Zn  Zn96  1  0.70675884  0.45281815  0.44694294  1
  Zn  Zn97  1  0.69367958  0.44172100  0.92819940  1
  Zn  Zn98  1  0.68539841  0.93014462  0.44184361  1
  Zn  Zn99  1  0.68599618  0.92949354  0.93712389  1
  Zn  Zn100  1  0.30492233  0.05873934  0.06168643  1
  Zn  Zn101  1  0.32966054  0.05466510  0.57547127  1
  Zn  Zn102  1  0.31310194  0.56085452  0.05836504  1
  Zn  Zn103  1  0.30712213  0.55195779  0.56087011  1
  Zn  Zn104  1  0.81240282  0.06633666  0.06137313  1
  Zn  Zn105  1  0.84221105  0.02206035  0.60718994  1
  Zn  Zn106  1  0.83772607  0.57679478  0.04436802  1
  Zn  Zn107  1  0.79353091  0.59166447  0.58896495  1
  Zn  Zn108  1  0.43712120  0.43455282  0.18648757  1
  Zn  Zn109  1  0.44451211  0.43154843  0.68818183  1
  Zn  Zn110  1  0.43271583  0.94255060  0.18954977  1
  Zn  Zn111  1  0.42740801  0.92040036  0.69280653  1
  Zn  Zn112  1  0.91575111  0.46665976  0.27066975  1
  Zn  Zn113  1  0.93674004  0.43235241  0.68053555  1
  Zn  Zn114  1  0.93056866  0.95181366  0.18856026  1
  Zn  Zn115  1  0.97920259  0.93224914  0.68025184  1
  Zn  Zn116  1  0.06364922  0.08231206  0.30447101  1
  Zn  Zn117  1  0.06950370  0.06816573  0.81111417  1
  Zn  Zn118  1  0.04479533  0.62198431  0.30691521  1
  Zn  Zn119  1  0.06427643  0.56812976  0.80255105  1
  Zn  Zn120  1  0.55659833  0.06265574  0.31665641  1
  Zn  Zn121  1  0.56022699  0.05462998  0.81237666  1
  Zn  Zn122  1  0.54884765  0.56518530  0.32061861  1
  Zn  Zn123  1  0.56783162  0.56079358  0.81789536  1
  Zn  Zn124  1  0.45440492  0.18095179  0.44451171  1
  Zn  Zn125  1  0.43421930  0.17987483  0.93851360  1
  Zn  Zn126  1  0.43266109  0.68056081  0.44134103  1
  Zn  Zn127  1  0.43421018  0.69134366  0.93370448  1
  Zn  Zn128  1  0.88099159  0.12525507  0.47014121  1
  Zn  Zn129  1  0.93532216  0.18059503  0.93495070  1
  Zn  Zn130  1  0.91731428  0.75562999  0.39925352  1
  Zn  Zn131  1  0.95476656  0.72151654  0.78226381  1
  Zn  Zn132  1  0.06058884  0.31769691  0.06269200  1
  Zn  Zn133  1  0.08487524  0.27211164  0.56900330  1
  Zn  Zn134  1  0.06342655  0.81387249  0.05265799  1
  Zn  Zn135  1  0.07116577  0.82872310  0.55675210  1
  Zn  Zn136  1  0.56174197  0.30450372  0.05557915  1
  Zn  Zn137  1  0.57002494  0.31248601  0.56748280  1
  Zn  Zn138  1  0.56110950  0.80857504  0.06076024  1
  Zn  Zn139  1  0.55828006  0.80965416  0.56352390  1
  O  O140  1  0.10507330  0.13269315  0.13876167  1
  O  O141  1  0.11116842  0.16321691  0.61343686  1
  O  O142  1  0.13658541  0.60720738  0.11202635  1
  O  O143  1  0.13531634  0.60763416  0.62302839  1
  O  O144  1  0.61307861  0.11496228  0.11031319  1
  O  O145  1  0.62218619  0.10172403  0.61898040  1
  O  O146  1  0.61064160  0.63283379  0.10993972  1
  O  O147  1  0.62069286  0.60924126  0.61825911  1
  O  O148  1  0.36736801  0.37750527  0.39740583  1
  O  O149  1  0.38807602  0.37480154  0.87942857  1
  O  O150  1  0.37501635  0.87892553  0.38302112  1
  O  O151  1  0.38394957  0.86900940  0.87636883  1
  O  O152  1  0.82870301  0.41897119  0.31501605  1
  O  O153  1  0.87414260  0.37413524  0.88184707  1
  O  O154  1  0.92377390  0.87065924  0.41940849  1
  O  O155  1  0.90282131  0.89838849  0.87153875  1
  O  O156  1  0.25176603  -0.00726150  0.36315270  1
  O  O157  1  0.24513450  0.01853953  0.88840251  1
  O  O158  1  0.26764745  0.50510765  0.38465893  1
  O  O159  1  0.26566224  0.48971135  0.86469572  1
  O  O160  1  0.73869137  0.00007500  0.36541844  1
  O  O161  1  0.75079454  0.00356877  0.87881818  1
  O  O162  1  0.81624028  0.50647611  0.44330935  1
  O  O163  1  0.76898963  0.50319806  0.86515589  1
  O  O164  1  0.23973719  0.48480209  0.11154136  1
  O  O165  1  0.24730494  0.48327285  0.63607663  1
  O  O166  1  0.23984540  0.99315149  0.13371054  1
  O  O167  1  0.23197960  0.99197389  0.61292459  1
  O  O168  1  0.81842739  0.51711545  0.14995141  1
  O  O169  1  0.74160868  0.50059338  0.64327181  1
  O  O170  1  0.73665445  0.99467469  0.12482588  1
  O  O171  1  0.73244291  0.98881865  0.62225006  1
  O  O172  1  0.00559618  0.38475904  0.25448890  1
  O  O173  1  0.01231183  0.36099065  0.74347479  1
  O  O174  1  -0.00724511  0.93093197  0.28884196  1
  O  O175  1  0.01958584  0.86816219  0.76747162  1
  O  O176  1  0.53753132  0.37046529  0.20563379  1
  O  O177  1  0.51179784  0.37363247  0.76351419  1
  O  O178  1  0.49591856  0.86886879  0.25673521  1
  O  O179  1  0.49970951  0.86654578  0.76378025  1
  O  O180  1  0.50391878  0.11702157  0.22970875  1
  O  O181  1  0.48464950  0.12264269  0.76338084  1
  O  O182  1  0.49409434  0.62963964  0.23894325  1
  O  O183  1  0.50731173  0.63494174  0.75520479  1
  O  O184  1  0.97823041  0.12331930  0.23515280  1
  O  O185  1  1.00214373  0.13638954  0.74510474  1
  O  O186  1  0.96065819  0.56721669  0.25608130  1
  O  O187  1  1.04468320  0.66490339  0.74921280  1
  O  O188  1  0.36922858  0.25599197  0.00437602  1
  O  O189  1  0.38188873  0.25757849  0.51695145  1
  O  O190  1  0.35346085  0.73909841  -0.00705486  1
  O  O191  1  0.37545240  0.76232745  0.49496241  1
  O  O192  1  0.86681097  0.25306877  -0.00068614  1
  O  O193  1  0.85130142  0.23417940  0.51337475  1
  O  O194  1  0.93006194  0.72313502  0.07220186  1
  O  O195  1  0.84557454  0.73439446  0.48780907  1
  O  O196  1  0.12221628  0.28557909  0.46545401  1
  O  O197  1  0.13402236  0.26038710  0.99173719  1
  O  O198  1  0.12802154  0.77245652  0.47876680  1
  O  O199  1  0.13117935  0.73562408  1.00146384  1
  O  O200  1  0.63421917  0.23017721  0.51580116  1
  O  O201  1  0.63828896  0.23804693  1.00215047  1
  O  O202  1  0.62506940  0.74531850  0.49459097  1
  O  O203  1  0.62404392  0.74248324  0.98982503  1
  O  O204  1  0.49374621  0.22906777  0.11129155  1
  O  O205  1  0.49185593  0.25101510  0.63019374  1
  O  O206  1  0.49229284  0.74253191  0.13166665  1
  O  O207  1  0.50104043  0.74998459  0.64189789  1
  O  O208  1  0.98498250  0.24397558  0.11711562  1
  O  O209  1  0.98716110  0.24672958  0.63256330  1
  O  O210  1  0.98663092  0.75147733  0.12031644  1
  O  O211  1  0.98394698  0.72074844  0.61088862  1
  O  O212  1  -0.04866186  0.32116932  0.41525714  1
  O  O213  1  0.01037493  0.24047989  0.86808007  1
  O  O214  1  0.02203811  0.71382538  0.38666306  1
  O  O215  1  -0.00816930  0.76715833  0.89084454  1
  O  O216  1  0.46756715  0.25187236  0.36478031  1
  O  O217  1  0.50035454  0.25798852  0.88112288  1
  O  O218  1  0.49940501  0.75690684  0.36853027  1
  O  O219  1  0.50300463  0.75808778  0.86994853  1
  O  O220  1  0.22705068  0.08026602  0.51268931  1
  O  O221  1  0.25890183  0.13795509  0.99017509  1
  O  O222  1  0.25560507  0.62511513  0.48919921  1
  O  O223  1  0.23807816  0.61825103  0.99426058  1
  O  O224  1  0.73683511  0.12026222  0.49790424  1
  O  O225  1  0.74357057  0.12685181  0.98723498  1
  O  O226  1  0.72741764  0.63545826  0.50393161  1
  O  O227  1  0.74098840  0.62727098  1.00968474  1
  O  O228  1  0.26195709  0.36219886  0.00313614  1
  O  O229  1  0.26666451  0.37656280  0.51862246  1
  O  O230  1  0.23541875  0.87715167  0.02522560  1
  O  O231  1  0.25627621  0.87488991  0.49223041  1
  O  O232  1  0.75441713  0.35957157  -0.01135346  1
  O  O233  1  0.73204792  0.35637671  0.50191476  1
  O  O234  1  0.74359046  0.87182096  0.01824994  1
  O  O235  1  0.74033573  0.85699729  0.50513959  1
  O  O236  1  0.12523568  0.49102190  0.22947889  1
  O  O237  1  0.13714889  0.48733717  0.74379019  1
  O  O238  1  0.13545953  1.01033728  0.24121799  1
  O  O239  1  0.12140388  0.99259130  0.74480114  1
  O  O240  1  0.63730623  0.48705955  0.28964870  1
  O  O241  1  0.63751954  0.49836562  0.75172113  1
  O  O242  1  0.62808306  1.00060048  0.24181106  1
  O  O243  1  0.61410880  0.98544738  0.73929784  1
  O  O244  1  0.36619326  0.00105299  0.26543642  1
  O  O245  1  0.37430760  0.01198288  0.73794921  1
  O  O246  1  0.38892426  0.50217234  0.26327919  1
  O  O247  1  0.37204960  0.48623413  0.76136060  1
  O  O248  1  0.85362741  0.01689774  0.24726909  1
  O  O249  1  0.87802713  -0.01703044  0.71258652  1
  O  O250  1  0.75001396  0.54190755  0.18202219  1
  O  O251  1  0.86622229  0.48986971  0.75455797  1
  O  O252  1  0.13801474  0.38079162  0.35073286  1
  O  O253  1  0.13382793  0.36316335  0.86249281  1
  O  O254  1  0.12754151  0.85299038  0.34294515  1
  O  O255  1  0.11845165  0.88985240  0.87297709  1
  O  O256  1  0.64808969  0.43210089  0.34284215  1
  O  O257  1  0.61425750  0.37631090  0.86898324  1
  O  O258  1  0.60691385  0.87122173  0.37016872  1
  O  O259  1  0.61653752  0.86490925  0.86890842  1
  O  O260  1  0.38623798  0.12582394  0.11616005  1
  O  O261  1  0.37174298  0.13704080  0.63951090  1
  O  O262  1  0.38321756  0.62227411  0.13109771  1
  O  O263  1  0.36561428  0.62336000  0.63082204  1
  O  O264  1  0.88007209  0.13514948  0.12862378  1
  O  O265  1  0.89066441  0.13212559  0.63267655  1
  O  O266  1  0.88723126  0.66186411  0.10924608  1
  O  O267  1  0.88988404  0.63076753  0.64236892  1
  O  O268  1  0.25588784  0.25328886  0.11621252  1
  O  O269  1  0.26119904  0.25820816  0.63185391  1
  O  O270  1  0.25099829  0.76401887  0.13776460  1
  O  O271  1  0.24682552  0.73632189  0.65295948  1
  O  O272  1  0.76077619  0.23898534  0.10190512  1
  O  O273  1  0.76078556  0.23971969  0.63140253  1
  O  O274  1  0.74878175  0.77491544  0.15347193  1
  O  O275  1  0.74999053  0.74183090  0.62101794  1
  O  O276  1  0.25253116  0.24794679  0.36868864  1
  O  O277  1  0.24371061  0.24585142  0.88258438  1
  O  O278  1  0.23551030  0.72790939  0.36387406  1
  O  O279  1  0.23483103  0.74765679  0.85321730  1
  O  O280  1  0.75147032  0.24916051  0.38979645  1
  O  O281  1  0.75378204  0.23401737  0.88381646  1
  O  O282  1  0.72477315  0.76132817  0.36348720  1
  O  O283  1  0.72984160  0.74727453  0.86138330  1
  O  O284  1  -0.00337211  0.12050056  0.01652305  1
  O  O285  1  -0.00653889  0.13833637  0.50775912  1
  O  O286  1  0.02214613  0.60298922  -0.00477578  1
  O  O287  1  -0.05331196  0.65892408  0.58728916  1
  O  O288  1  0.50572468  0.10784249  -0.00223548  1
  O  O289  1  0.50071447  0.10220729  0.50871642  1
  O  O290  1  0.49697618  0.62386942  0.01117217  1
  O  O291  1  0.50564513  0.61354777  0.50202246  1
  O  O292  1  0.49052968  0.37951083  0.50862275  1
  O  O293  1  0.49648026  0.37458689  0.98951902  1
  O  O294  1  0.49149533  0.87924853  0.49219581  1
  O  O295  1  0.50083981  0.88202204  0.99191792  1
  O  O296  1  0.96710387  0.38574967  0.44476590  1
  O  O297  1  0.99297895  0.38395053  0.99565370  1
  O  O298  1  1.06521294  0.94294294  0.47398816  1
  O  O299  1  1.01232537  0.89536991  0.98995523  1
  O  O300  1  0.48683079  0.49841069  0.39271719  1
  O  O301  1  0.49139174  0.48961460  0.87677340  1
  O  O302  1  0.48457599  0.98947672  0.38005372  1
  O  O303  1  0.49949821  0.98441669  0.88569512  1
  O  O304  1  0.96430373  0.54228091  0.48455321  1
  O  O305  1  0.99384540  0.49867114  0.86867169  1
  O  O306  1  0.99329394  0.99013589  0.33898257  1
  O  O307  1  1.00826446  1.02096013  0.89610130  1
  O  O308  1  0.00768572  0.01038863  0.12391328  1
  O  O309  1  0.01844680  0.02705895  0.62230481  1
  O  O310  1  0.01819713  0.49326976  0.10579621  1
  O  O311  1  0.01939427  0.49431874  0.63421022  1
  O  O312  1  0.50326188  0.00451475  0.11446370  1
  O  O313  1  0.49743378  -0.01582421  0.61428695  1
  O  O314  1  0.49848616  0.51310366  0.12148622  1
  O  O315  1  0.50837421  0.49451911  0.61707397  1
  O  O316  1  0.26127896  0.37462879  0.23435353  1
  O  O317  1  0.24630239  0.37578429  0.74244098  1
  O  O318  1  0.25334154  0.88964348  0.23722818  1
  O  O319  1  0.23770458  0.88679713  0.75617346  1
  O  O320  1  0.68701837  0.31917356  0.24843176  1
  O  O321  1  0.73442257  0.38278232  0.76281828  1
  O  O322  1  0.73849461  0.89778904  0.24317301  1
  O  O323  1  0.72688884  0.87157697  0.75408465  1
  O  O324  1  0.25460990  0.11179123  0.24134043  1
  O  O325  1  0.25877034  0.12518757  0.76297956  1
  O  O326  1  0.26515958  0.61745094  0.24865091  1
  O  O327  1  0.25950661  0.60820579  0.75647021  1
  O  O328  1  0.75055494  0.11671223  0.24585353  1
  O  O329  1  0.74727216  0.11762147  0.76479736  1
  O  O330  1  0.76115905  0.61441986  0.22541164  1
  O  O331  1  0.75484110  0.61290126  0.75002120  1
  O  O332  1  0.36952899  0.10436241  0.39294720  1
  O  O333  1  0.36311817  0.12848555  0.86434705  1
  O  O334  1  0.36923290  0.61409764  0.36807716  1
  O  O335  1  0.37697491  0.60297405  0.87838984  1
  O  O336  1  0.87586611  0.13685218  0.35473872  1
  O  O337  1  0.86489232  0.11784214  0.86746605  1
  O  O338  1  0.95666985  0.55044193  0.41273524  1
  O  O339  1  0.88993714  0.61613405  0.85556128  1
  O  O340  1  0.13244671  0.37587007  0.13554712  1
  O  O341  1  0.14057584  0.36369727  0.63362351  1
  O  O342  1  0.11646086  0.88713619  0.13296569  1
  O  O343  1  0.12557245  0.83345497  0.65993766  1
  O  O344  1  0.58811118  0.37872801  0.14730881  1
  O  O345  1  0.61926503  0.38650025  0.64395771  1
  O  O346  1  0.62084649  0.88391870  0.13070513  1
  O  O347  1  0.61398891  0.87973214  0.63901557  1
  O  O348  1  0.12521763  0.27018576  0.25726151  1
  O  O349  1  0.11895139  0.25419490  0.75839440  1
  O  O350  1  0.10769663  0.71105319  0.26698380  1
  O  O351  1  0.16695262  0.75589882  0.81559526  1
  O  O352  1  0.64106058  0.25873555  0.24582400  1
  O  O353  1  0.63076399  0.26105166  0.74329318  1
  O  O354  1  0.60589524  0.75443909  0.25511786  1
  O  O355  1  0.60957429  0.76062151  0.76196642  1
  O  O356  1  0.37237802  0.25044132  0.22681454  1
  O  O357  1  0.37803864  0.24489351  0.74296017  1
  O  O358  1  0.38194627  0.73780168  0.25490393  1
  O  O359  1  0.38517773  0.73727410  0.75180905  1
  O  O360  1  0.85606073  0.24191959  0.23182060  1
  O  O361  1  0.88323714  0.24881303  0.74375936  1
  O  O362  1  0.88267099  0.74276833  0.28990955  1
  O  O363  1  0.86849856  0.78204296  0.74940084  1
  O  O364  1  0.38351540  0.48695566  0.50181515  1
  O  O365  1  0.37477408  0.48415870  0.98744400  1
  O  O366  1  0.38190204  0.98567559  0.49466225  1
  O  O367  1  0.38605601  0.99863213  1.00326625  1
  O  O368  1  0.84878644  0.50416135  0.51302095  1
  O  O369  1  0.89120844  0.49756681  0.98180591  1
  O  O370  1  0.88723225  1.01060580  0.50022686  1
  O  O371  1  0.89196897  1.00273985  1.00916197  1
  O  O372  1  0.11889701  0.01115321  0.02629084  1
  O  O373  1  0.18630965  0.02197783  0.54939266  1
  O  O374  1  0.12158998  0.49042274  0.00147192  1
  O  O375  1  0.13132917  0.48472424  0.51931062  1
  O  O376  1  0.61638382  0.00256031  0.00583753  1
  O  O377  1  0.61290207  -0.00291434  0.51112880  1
  O  O378  1  0.62879138  0.51700115  -0.00960079  1
  O  O379  1  0.62086017  0.50488623  0.50817531  1
  O  O380  1  0.37403504  0.36722166  0.11380079  1
  O  O381  1  0.37098969  0.36263914  0.62549328  1
  O  O382  1  0.36568570  0.87308536  0.12505346  1
  O  O383  1  0.35971801  0.87471568  0.61137763  1
  O  O384  1  0.87237039  0.35755817  0.10683956  1
  O  O385  1  0.87476685  0.35415842  0.62249353  1
  O  O386  1  0.86185850  0.88385420  0.13062007  1
  O  O387  1  0.96427299  0.87585284  0.57584370  1
  O  O388  1  0.11711364  0.15752557  0.36583836  1
  O  O389  1  0.14149762  0.13969904  0.87036345  1
  O  O390  1  0.14285823  0.59863575  0.37867401  1
  O  O391  1  0.13381153  0.61299573  0.88754320  1
  O  O392  1  0.61199616  0.11687064  0.39877696  1
  O  O393  1  0.63342198  0.11364467  0.88203133  1
  O  O394  1  0.61188176  0.63668370  0.38609678  1
  O  O395  1  0.61761864  0.63726517  0.89050717  1
