# generated using pymatgen
data_V35Zn35O128
_symmetry_space_group_name_H-M   'P 1'
_cell_length_a   16.84442882
_cell_length_b   16.89511178
_cell_length_c   16.86078241
_cell_angle_alpha   89.97798171
_cell_angle_beta   90.01633349
_cell_angle_gamma   89.92200915
_symmetry_Int_Tables_number   1
_chemical_formula_structural   V35Zn35O128
_chemical_formula_sum   'V70 Zn70 O256'
_cell_volume   4798.37990887
_cell_formula_units_Z   2
loop_
 _symmetry_equiv_pos_site_id
 _symmetry_equiv_pos_as_xyz
  1  'x, y, z'
loop_
 _atom_site_type_symbol
 _atom_site_label
 _atom_site_symmetry_multiplicity
 _atom_site_fract_x
 _atom_site_fract_y
 _atom_site_fract_z
 _atom_site_occupancy
  V  V0  1  0.50208491  0.49797280  0.01247252  1
  V  V1  1  0.75468724  0.35288184  0.12737586  1
  V  V2  1  0.37939966  0.86368261  0.50402953  1
  V  V3  1  0.37611310  0.24817912  0.63104458  1
  V  V4  1  0.62260780  0.12444328  -0.00076424  1
  V  V5  1  0.87283100  0.50105003  0.88697736  1
  V  V6  1  0.25037683  -0.01358046  0.24505472  1
  V  V7  1  0.24333711  0.38677093  0.63809377  1
  V  V8  1  0.87540267  0.00570252  0.88159685  1
  V  V9  1  0.24843459  0.23874982  -0.01199554  1
  V  V10  1  0.26010939  0.64402535  0.89305810  1
  V  V11  1  0.11854580  0.25160652  0.36760725  1
  V  V12  1  0.37345719  0.85529529  0.00192141  1
  V  V13  1  0.38065010  0.01202966  0.88091422  1
  V  V14  1  0.38211885  0.24785755  0.12896924  1
  V  V15  1  0.01227501  0.37153313  0.87760691  1
  V  V16  1  0.85595183  0.74990767  0.13318915  1
  V  V17  1  0.75489120  0.26490070  0.49541191  1
  V  V18  1  0.50353228  0.11225104  0.62489227  1
  V  V19  1  -0.00865144  0.62427265  0.62653265  1
  V  V20  1  0.12511463  0.12032035  -0.00902679  1
  V  V21  1  0.74764106  0.51350458  0.76497720  1
  V  V22  1  0.51438821  0.37248358  0.87217332  1
  V  V23  1  0.12706595  0.75967194  0.38556099  1
  V  V24  1  0.49029801  0.74769693  0.27929880  1
  V  V25  1  0.74038455  0.13532184  0.87567329  1
  V  V26  1  0.24160425  0.37695396  0.13568648  1
  V  V27  1  0.38510488  0.37858545  0.49047719  1
  V  V28  1  0.01184393  0.24822313  0.75520340  1
  V  V29  1  0.88096881  0.25295133  0.62801431  1
  V  V30  1  0.38605205  -0.00563687  0.38550923  1
  V  V31  1  0.25682207  0.01569279  0.75646640  1
  V  V32  1  0.00236330  0.88052278  0.88508869  1
  V  V33  1  0.12369759  -0.00695425  0.12756607  1
  V  V34  1  0.37543541  0.64089895  0.74104074  1
  V  V35  1  0.36385535  0.49743050  0.86569771  1
  V  V36  1  0.49671275  0.64836043  0.12349892  1
  V  V37  1  0.25340662  0.85967931  0.62355221  1
  V  V38  1  0.75318021  0.50717372  0.25108452  1
  V  V39  1  0.36074332  0.61381941  0.25158317  1
  V  V40  1  0.74326786  -0.00359738  0.73777764  1
  V  V41  1  -0.00483152  0.25643543  0.24182392  1
  V  V42  1  0.23433443  0.61266831  0.38866083  1
  V  V43  1  0.62058996  0.50897654  0.62687660  1
  V  V44  1  0.62738323  0.10648791  0.50128526  1
  V  V45  1  0.00096221  0.63070526  0.11182802  1
  V  V46  1  0.61624949  0.37398723  0.24626184  1
  V  V47  1  0.00568552  0.76049477  0.25461041  1
  V  V48  1  0.24886904  0.12193734  0.37564924  1
  V  V49  1  0.37184388  0.37095001  -0.00162926  1
  V  V50  1  0.73795794  -0.00321934  0.23305489  1
  V  V51  1  -0.00780231  -0.01405432  0.48863930  1
  V  V52  1  0.76076484  0.12165672  0.37526926  1
  V  V53  1  0.74271681  0.37406958  0.64236429  1
  V  V54  1  0.11715074  0.12266806  0.50283079  1
  V  V55  1  0.87917665  0.11839607  0.24027942  1
  V  V56  1  0.61256054  0.86367714  0.25056665  1
  V  V57  1  0.50665838  0.86984386  0.87692603  1
  V  V58  1  0.50351913  0.10644489  0.12155457  1
  V  V59  1  0.89057466  0.47910695  0.37167211  1
  V  V60  1  0.12232028  0.00538920  0.62930020  1
  V  V61  1  0.75379472  0.74088619  0.49707228  1
  V  V62  1  0.85989251  0.88028693  0.01146902  1
  V  V63  1  0.12866511  0.85939050  0.75460014  1
  V  V64  1  0.12724174  0.75605753  0.90954721  1
  V  V65  1  0.51676223  0.25087448  0.75149015  1
  V  V66  1  0.61160078  0.25489766  0.37311046  1
  V  V67  1  0.87061200  0.35237757  0.00167100  1
  V  V68  1  0.62015432  0.86633636  0.73862071  1
  V  V69  1  0.38299416  0.12625659  0.25213797  1
  Zn  Zn70  1  0.87652988  0.12235761  0.74537308  1
  Zn  Zn71  1  0.00142172  0.12155997  0.11680439  1
  Zn  Zn72  1  0.50485194  0.49325284  0.51119209  1
  Zn  Zn73  1  0.12153697  0.50624283  0.11724841  1
  Zn  Zn74  1  0.25192227  0.25095434  0.49988825  1
  Zn  Zn75  1  0.07689041  0.42173720  0.29776803  1
  Zn  Zn76  1  0.19202778  0.18279535  0.18211996  1
  Zn  Zn77  1  0.19016110  0.18950470  0.68891643  1
  Zn  Zn78  1  0.18455146  0.69628616  0.18181767  1
  Zn  Zn79  1  0.15325832  0.63035881  0.74746553  1
  Zn  Zn80  1  0.68361303  0.18599934  0.18872556  1
  Zn  Zn81  1  0.69043176  0.18199231  0.68460911  1
  Zn  Zn82  1  0.65874521  0.66202253  -0.03089924  1
  Zn  Zn83  1  0.68664849  0.68621559  0.69464501  1
  Zn  Zn84  1  0.31224397  0.30905742  0.31268001  1
  Zn  Zn85  1  0.31702400  0.30476275  0.80993791  1
  Zn  Zn86  1  0.30645252  0.80650787  0.32097659  1
  Zn  Zn87  1  0.31738739  0.81803940  0.81682133  1
  Zn  Zn88  1  0.81596992  0.31123773  0.31185659  1
  Zn  Zn89  1  0.81449115  0.31468250  0.81413186  1
  Zn  Zn90  1  0.81207993  0.82531516  0.30729123  1
  Zn  Zn91  1  0.79904280  0.82181036  0.82418124  1
  Zn  Zn92  1  0.20489873  0.42789909  0.43856949  1
  Zn  Zn93  1  0.18847940  0.43888188  0.94886625  1
  Zn  Zn94  1  0.18787722  0.93710551  0.43914906  1
  Zn  Zn95  1  0.19970127  0.93991562  0.94369498  1
  Zn  Zn96  1  0.68251460  0.44450844  0.43071598  1
  Zn  Zn97  1  0.71072562  0.47641891  0.97816204  1
  Zn  Zn98  1  0.70657426  0.92906602  0.42214490  1
  Zn  Zn99  1  0.68101153  0.94628352  0.93520559  1
  Zn  Zn100  1  0.31580207  0.05602159  0.06185773  1
  Zn  Zn101  1  0.31016562  0.06080287  0.56682294  1
  Zn  Zn102  1  0.32133211  0.55972489  0.06855509  1
  Zn  Zn103  1  0.30827740  0.55724927  0.56519929  1
  Zn  Zn104  1  0.80945580  0.07293062  0.05789524  1
  Zn  Zn105  1  0.81774239  0.06702583  0.56120563  1
  Zn  Zn106  1  0.81630908  0.55916192  0.07456290  1
  Zn  Zn107  1  0.80709114  0.54420424  0.55235617  1
  Zn  Zn108  1  0.42921888  0.43458249  0.19590303  1
  Zn  Zn109  1  0.43641577  0.43308522  0.68884847  1
  Zn  Zn110  1  0.43393949  0.92641206  0.18950839  1
  Zn  Zn111  1  0.43482645  0.93187285  0.69081047  1
  Zn  Zn112  1  0.92803977  0.44456211  0.17862290  1
  Zn  Zn113  1  0.92941809  0.42966712  0.70015473  1
  Zn  Zn114  1  0.93711146  0.94128655  0.19344000  1
  Zn  Zn115  1  0.94988160  0.94939277  0.70269546  1
  Zn  Zn116  1  0.06294597  0.05497935  0.31328487  1
  Zn  Zn117  1  0.06386083  0.06474475  0.80905005  1
  Zn  Zn118  1  0.05807355  0.58223874  0.29405007  1
  Zn  Zn119  1  0.05641087  0.56592931  0.92900589  1
  Zn  Zn120  1  0.56476063  0.06543171  0.31765026  1
  Zn  Zn121  1  0.56218050  0.05762028  0.80716931  1
  Zn  Zn122  1  0.67395994  0.68211698  0.18545835  1
  Zn  Zn123  1  0.55846335  0.56219999  0.81065302  1
  Zn  Zn124  1  0.43725684  0.18244475  0.44654612  1
  Zn  Zn125  1  0.44320420  0.18822844  0.93914270  1
  Zn  Zn126  1  0.41596325  0.67998657  0.43698442  1
  Zn  Zn127  1  0.46920148  0.67919030  0.92462186  1
  Zn  Zn128  1  0.93839392  0.18955851  0.43943759  1
  Zn  Zn129  1  0.94039709  0.18575686  0.93526377  1
  Zn  Zn130  1  0.94494878  0.67492335  0.42918404  1
  Zn  Zn131  1  0.91607868  0.70141816  0.93349464  1
  Zn  Zn132  1  0.06361501  0.30680056  0.05857230  1
  Zn  Zn133  1  0.06922413  0.30647815  0.56456830  1
  Zn  Zn134  1  0.04927178  0.82371689  0.07224091  1
  Zn  Zn135  1  0.06877248  0.81549484  0.56329236  1
  Zn  Zn136  1  0.56770337  0.30840348  0.05920138  1
  Zn  Zn137  1  0.56630501  0.30942152  0.56173832  1
  Zn  Zn138  1  0.57098336  0.82820954  0.05878570  1
  Zn  Zn139  1  0.56733831  0.81458245  0.54881727  1
  O  O140  1  0.12664950  0.11527354  0.11620240  1
  O  O141  1  0.13428117  0.11871107  0.61271634  1
  O  O142  1  0.10522804  0.63349201  0.12155644  1
  O  O143  1  0.09467222  0.61647271  0.64045979  1
  O  O144  1  0.61014016  0.13012750  0.11927822  1
  O  O145  1  0.62080403  0.12525839  0.60950624  1
  O  O146  1  0.59578230  0.62350139  0.12581840  1
  O  O147  1  0.62986710  0.60885214  0.63158381  1
  O  O148  1  0.36824494  0.36891468  0.39127416  1
  O  O149  1  0.37264062  0.37940225  0.88324419  1
  O  O150  1  0.36488191  0.88760827  0.38999072  1
  O  O151  1  0.38747968  0.88530945  0.87843513  1
  O  O152  1  0.88373371  0.37736361  0.37385398  1
  O  O153  1  0.87266097  0.37361506  0.89075395  1
  O  O154  1  0.81663026  0.89300231  0.39501807  1
  O  O155  1  0.88161489  0.88953374  0.88355817  1
  O  O156  1  0.25383141  0.00771479  0.36590136  1
  O  O157  1  0.26080568  -0.00342860  0.86213194  1
  O  O158  1  0.22688405  0.51177975  0.36993304  1
  O  O159  1  0.26213894  0.50490405  0.88572809  1
  O  O160  1  0.74621870  0.02217841  0.36039260  1
  O  O161  1  0.76126229  0.00876598  0.86648792  1
  O  O162  1  0.76058662  0.48557731  0.35918144  1
  O  O163  1  0.75469100  0.49584894  0.86964457  1
  O  O164  1  0.25161133  0.47882729  0.11498139  1
  O  O165  1  0.24380464  0.48711746  0.62962283  1
  O  O166  1  0.24889982  1.00313065  0.14026694  1
  O  O167  1  0.24238295  0.99819285  0.63873099  1
  O  O168  1  0.76258642  0.48029444  0.14434118  1
  O  O169  1  0.74667501  0.48874952  0.63512386  1
  O  O170  1  0.74790823  1.01637784  0.13537363  1
  O  O171  1  0.76146124  1.00360114  0.63931565  1
  O  O172  1  -0.00532255  0.35878931  0.23934864  1
  O  O173  1  -0.00382997  0.36301033  0.76528232  1
  O  O174  1  -0.00690586  0.86235391  0.25130745  1
  O  O175  1  0.02170975  0.88025087  0.76556235  1
  O  O176  1  0.51618014  0.37533294  0.24287930  1
  O  O177  1  0.49784812  0.36207860  0.76092973  1
  O  O178  1  0.49912821  0.85804927  0.25825626  1
  O  O179  1  0.51340385  0.88141464  0.75423511  1
  O  O180  1  0.49080488  0.12048621  0.24051304  1
  O  O181  1  0.51106903  0.13615867  0.73347467  1
  O  O182  1  0.48932208  0.64545740  0.23967458  1
  O  O183  1  0.47518356  0.61548552  0.75051350  1
  O  O184  1  0.98594000  0.12427120  0.25568169  1
  O  O185  1  0.99479008  0.14182914  0.75576810  1
  O  O186  1  0.98857926  0.64954653  0.23182253  1
  O  O187  1  0.97088513  0.65281066  0.72287543  1
  O  O188  1  0.36824918  0.25250859  0.00624498  1
  O  O189  1  0.37832567  0.25873653  0.51006793  1
  O  O190  1  0.39173762  0.75741291  -0.01809686  1
  O  O191  1  0.36527740  0.76565101  0.49355660  1
  O  O192  1  0.86652476  0.25271973  -0.00372006  1
  O  O193  1  0.86383391  0.24828601  0.51020909  1
  O  O194  1  0.87380600  0.77404304  0.01847720  1
  O  O195  1  0.86006477  0.74417041  0.48915125  1
  O  O196  1  0.12485932  0.23988012  0.48742864  1
  O  O197  1  0.14072504  0.23627086  1.00206742  1
  O  O198  1  0.11945545  0.75080441  0.48627061  1
  O  O199  1  0.13055750  0.76889646  1.00651027  1
  O  O200  1  0.63889568  0.24639584  0.49089112  1
  O  O201  1  0.61582986  0.22876779  0.99535052  1
  O  O202  1  0.64748904  0.74262044  0.49288511  1
  O  O203  1  0.64546100  0.76629562  1.00233224  1
  O  O204  1  0.48497961  0.24478637  0.11980651  1
  O  O205  1  0.49692668  0.24786829  0.63424336  1
  O  O206  1  0.49765726  0.74672735  0.11280559  1
  O  O207  1  0.50908295  0.70927174  0.58657375  1
  O  O208  1  1.00951793  0.23972895  0.14062192  1
  O  O209  1  0.98750808  0.26395139  0.63320589  1
  O  O210  1  0.98712753  0.75149846  0.13231446  1
  O  O211  1  0.99815480  0.72808009  0.60700029  1
  O  O212  1  0.01217134  0.24652820  0.36759647  1
  O  O213  1  -0.00305269  0.25691991  0.86348919  1
  O  O214  1  0.00755832  0.74314250  0.36452164  1
  O  O215  1  0.02047193  0.76406664  0.88764046  1
  O  O216  1  0.51334411  0.24244912  0.38126822  1
  O  O217  1  0.49533747  0.25636121  0.86079407  1
  O  O218  1  0.50032331  0.73678683  0.37769995  1
  O  O219  1  0.50086173  0.77197609  0.86206779  1
  O  O220  1  0.24213657  0.12321592  0.48945803  1
  O  O221  1  0.24788422  0.13422043  1.00563531  1
  O  O222  1  0.24545314  0.61545763  0.48854435  1
  O  O223  1  0.27063549  0.62682331  0.99171641  1
  O  O224  1  0.74426299  0.13132238  0.49060031  1
  O  O225  1  0.73934020  0.12848697  0.98606630  1
  O  O226  1  0.75402074  0.63545828  0.49637738  1
  O  O227  1  0.73259708  0.58772326  1.00410390  1
  O  O228  1  0.25753898  0.35859760  0.00540701  1
  O  O229  1  0.26514039  0.37007687  0.51467773  1
  O  O230  1  0.27161715  0.86769191  -0.00955473  1
  O  O231  1  0.25484143  0.88456486  0.51837632  1
  O  O232  1  0.75563084  0.37406612  0.01723004  1
  O  O233  1  0.74823686  0.36480955  0.50170980  1
  O  O234  1  0.76170662  0.88695715  -0.00552504  1
  O  O235  1  0.75116403  0.84513208  0.51174209  1
  O  O236  1  0.11218364  0.50257938  0.23017873  1
  O  O237  1  0.07899671  0.56940461  0.80695015  1
  O  O238  1  0.14143111  1.00567893  0.24224054  1
  O  O239  1  0.13675173  0.99697840  0.74725495  1
  O  O240  1  0.64228079  0.47310322  0.25396198  1
  O  O241  1  0.63842003  0.50038701  0.74492534  1
  O  O242  1  0.63673531  1.01208013  0.24786186  1
  O  O243  1  0.63778124  0.99608973  0.74373925  1
  O  O244  1  0.36740854  0.00459023  0.26077242  1
  O  O245  1  0.36151559  -0.00233226  0.75462549  1
  O  O246  1  0.38139462  0.51475158  0.25890552  1
  O  O247  1  0.37122071  0.49277261  0.76494349  1
  O  O248  1  0.86179523  0.01358409  0.25009976  1
  O  O249  1  0.86601619  0.00209767  0.76066627  1
  O  O250  1  0.86491896  0.49542441  0.26088675  1
  O  O251  1  0.85571907  0.48580638  0.76727850  1
  O  O252  1  0.13439614  0.35522783  0.37306338  1
  O  O253  1  0.11110495  0.37647813  0.88444371  1
  O  O254  1  0.13410284  0.86098929  0.37414709  1
  O  O255  1  0.12735145  0.87069487  0.87280469  1
  O  O256  1  0.62638332  0.36138516  0.36670085  1
  O  O257  1  0.60961267  0.37565167  0.87852724  1
  O  O258  1  0.62700717  0.88721179  0.35237619  1
  O  O259  1  0.61280181  0.88919919  0.86417325  1
  O  O260  1  0.38462230  0.12657840  0.13148086  1
  O  O261  1  0.39408227  0.13662676  0.60948661  1
  O  O262  1  0.38336118  0.62161852  0.14181404  1
  O  O263  1  0.35600500  0.62266534  0.64324651  1
  O  O264  1  0.88004172  0.12429684  0.13624350  1
  O  O265  1  0.86697096  0.14801923  0.62763722  1
  O  O266  1  0.87643078  0.64763359  0.11726049  1
  O  O267  1  0.88531807  0.61635741  0.61099135  1
  O  O268  1  0.26187498  0.25459202  0.11796275  1
  O  O269  1  0.26894331  0.24240819  0.62290659  1
  O  O270  1  0.25534910  0.75969201  0.12327578  1
  O  O271  1  0.24516105  0.76471096  0.62576212  1
  O  O272  1  0.75594647  0.25260770  0.12683542  1
  O  O273  1  0.75195998  0.25939244  0.61586624  1
  O  O274  1  0.75581294  0.74958388  0.13647130  1
  O  O275  1  0.75394779  0.73131526  0.60172779  1
  O  O276  1  0.23996006  0.23655031  0.37406764  1
  O  O277  1  0.25841036  0.24619957  0.88899801  1
  O  O278  1  0.23302022  0.73588216  0.37032444  1
  O  O279  1  0.24429456  0.75003306  0.88270830  1
  O  O280  1  0.74870365  0.24440141  0.38638097  1
  O  O281  1  0.75007189  0.23263401  0.86188769  1
  O  O282  1  0.75294253  0.74503994  0.39174916  1
  O  O283  1  0.82014994  0.72929356  0.87440391  1
  O  O284  1  0.01847245  0.13223661  0.00027851  1
  O  O285  1  0.01293273  0.11822528  0.49508593  1
  O  O286  1  -0.00666453  0.64050350  0.00397308  1
  O  O287  1  -0.00120005  0.61771720  0.51975308  1
  O  O288  1  0.50419859  0.12097084  0.01305521  1
  O  O289  1  0.51847173  0.12250067  0.50784394  1
  O  O290  1  0.47879497  0.60525445  0.01947112  1
  O  O291  1  0.49050605  0.65482631  0.53721374  1
  O  O292  1  0.49113627  0.37268939  0.50023685  1
  O  O293  1  0.48984618  0.37049791  0.98918520  1
  O  O294  1  0.48052730  0.87229407  0.50975653  1
  O  O295  1  0.49736624  0.88002022  0.98268008  1
  O  O296  1  1.03203850  0.41218163  0.50769147  1
  O  O297  1  0.98528280  0.35678045  0.98999308  1
  O  O298  1  1.00112568  0.88752019  0.51061985  1
  O  O299  1  0.98998075  0.88558283  0.99006493  1
  O  O300  1  0.51131147  0.56596455  0.40726792  1
  O  O301  1  0.48612895  0.48211638  0.88043687  1
  O  O302  1  0.48479981  1.00275940  0.37228501  1
  O  O303  1  0.48515302  0.99561191  0.86305270  1
  O  O304  1  0.99413917  0.49382863  0.35305566  1
  O  O305  1  0.98322031  0.47496716  0.87947866  1
  O  O306  1  1.00491529  0.99361572  0.38793963  1
  O  O307  1  0.98408284  0.99816676  0.86648928  1
  O  O308  1  0.01820555  0.00398195  0.13602561  1
  O  O309  1  0.01777316  -0.00013305  0.62625784  1
  O  O310  1  -0.01783024  0.52884257  0.12254360  1
  O  O311  1  -0.01268768  0.52141315  0.64488462  1
  O  O312  1  0.49651066  0.00896842  0.13028037  1
  O  O313  1  0.49526960  0.01480996  0.63114782  1
  O  O314  1  0.49223990  0.48266302  0.11122803  1
  O  O315  1  0.51694500  0.49225918  0.63279696  1
  O  O316  1  0.25372689  0.36884796  0.23568812  1
  O  O317  1  0.25805689  0.36649128  0.73702886  1
  O  O318  1  0.25892736  0.88835078  0.25330411  1
  O  O319  1  0.24145745  0.88055413  0.74384346  1
  O  O320  1  0.74772519  0.36538919  0.23825538  1
  O  O321  1  0.74240346  0.37315273  0.74340418  1
  O  O322  1  0.73751285  0.89137926  0.24261438  1
  O  O323  1  0.73821009  0.88908985  0.75816880  1
  O  O324  1  0.26239513  0.11828303  0.25890184  1
  O  O325  1  0.24965888  0.11516152  0.75259427  1
  O  O326  1  0.25897573  0.62417387  0.24158724  1
  O  O327  1  0.26060089  0.62468278  0.78053432  1
  O  O328  1  0.76185860  0.13066513  0.25898476  1
  O  O329  1  0.74838015  0.11397067  0.75897878  1
  O  O330  1  0.73651025  0.60541878  0.24478629  1
  O  O331  1  0.75337493  0.61249478  0.75309987  1
  O  O332  1  0.37002952  0.11657071  0.37275557  1
  O  O333  1  0.38103665  0.11259635  0.87893798  1
  O  O334  1  0.34895948  0.62538082  0.36528576  1
  O  O335  1  0.37409362  0.61110074  0.87279727  1
  O  O336  1  0.86426829  0.12974357  0.37180055  1
  O  O337  1  0.86494429  0.11697924  0.87669056  1
  O  O338  1  0.87911244  0.59840358  0.38520680  1
  O  O339  1  0.89298270  0.59689915  0.88183196  1
  O  O340  1  0.13975590  0.36684904  0.12011021  1
  O  O341  1  0.14592091  0.36006305  0.62490567  1
  O  O342  1  0.12760276  0.89382088  0.11947655  1
  O  O343  1  0.13249095  0.87964914  0.63941449  1
  O  O344  1  0.63821988  0.35934882  0.13614988  1
  O  O345  1  0.63960893  0.37794585  0.62246818  1
  O  O346  1  0.60965269  0.88547217  0.14967588  1
  O  O347  1  0.61694479  0.86710233  0.63613177  1
  O  O348  1  0.11438486  0.23612481  0.26124632  1
  O  O349  1  0.11101482  0.24792885  0.74480156  1
  O  O350  1  0.11059006  0.75402430  0.25163597  1
  O  O351  1  0.13143145  0.75960708  0.75658945  1
  O  O352  1  0.62838356  0.25216553  0.26712838  1
  O  O353  1  0.61594366  0.25089923  0.74450899  1
  O  O354  1  0.61037441  0.75679983  0.25225997  1
  O  O355  1  0.64040219  0.76741133  0.75497147  1
  O  O356  1  0.37095243  0.23602858  0.24341173  1
  O  O357  1  0.38690752  0.24528085  0.73512293  1
  O  O358  1  0.38461430  0.74398280  0.26405986  1
  O  O359  1  0.37234486  0.74184980  0.75217460  1
  O  O360  1  0.88995872  0.23695384  0.25588559  1
  O  O361  1  0.87852907  0.25027385  0.73854657  1
  O  O362  1  0.87539105  0.76320820  0.23930276  1
  O  O363  1  0.86844087  0.80763722  0.70856889  1
  O  O364  1  0.38519902  0.48530584  0.50889164  1
  O  O365  1  0.38088058  0.48361039  0.99270742  1
  O  O366  1  0.37197636  0.99975353  0.48854907  1
  O  O367  1  0.37006786  0.99286258  0.98395828  1
  O  O368  1  0.87062229  0.49402765  0.47742031  1
  O  O369  1  0.86622363  0.48295469  0.99175022  1
  O  O370  1  0.89414432  1.00703588  0.50715613  1
  O  O371  1  0.87227684  1.00008982  0.98876249  1
  O  O372  1  0.14050288  0.01120902  0.01407045  1
  O  O373  1  0.11887557  0.00532378  0.50877998  1
  O  O374  1  0.11538992  0.50193026  0.00439451  1
  O  O375  1  0.08790617  0.46169901  0.49704171  1
  O  O376  1  0.62729485  0.02079485  0.00167828  1
  O  O377  1  0.64290424  0.00899695  0.49057247  1
  O  O378  1  0.59921553  0.48698626  -0.00375634  1
  O  O379  1  0.62509600  0.49620272  0.51687326  1
  O  O380  1  0.36802528  0.36550844  0.11837529  1
  O  O381  1  0.37197829  0.36150351  0.61996874  1
  O  O382  1  0.38807360  0.87417596  0.10190485  1
  O  O383  1  0.36350849  0.87786799  0.61795385  1
  O  O384  1  0.87049582  0.36672140  0.11237271  1
  O  O385  1  0.85816821  0.36487099  0.62900852  1
  O  O386  1  0.87175178  0.88298874  0.11566472  1
  O  O387  1  0.88591050  0.85798138  0.65544587  1
  O  O388  1  0.13192379  0.12838433  0.38128601  1
  O  O389  1  0.12949173  0.11185325  0.89138021  1
  O  O390  1  0.12917292  0.63617331  0.36878084  1
  O  O391  1  0.14396614  0.64909552  0.89882809  1
  O  O392  1  0.63417038  0.13587789  0.38524150  1
  O  O393  1  0.63219247  0.11974794  0.88062646  1
  O  O394  1  0.57463075  0.56762886  0.36789078  1
  O  O395  1  0.57717059  0.63317404  0.89618402  1
