# generated using pymatgen
data_V35Zn35O128
_symmetry_space_group_name_H-M   'P 1'
_cell_length_a   16.87900859
_cell_length_b   16.87711308
_cell_length_c   16.88614374
_cell_angle_alpha   90.25939139
_cell_angle_beta   90.09698001
_cell_angle_gamma   90.27265618
_symmetry_Int_Tables_number   1
_chemical_formula_structural   V35Zn35O128
_chemical_formula_sum   'V70 Zn70 O256'
_cell_volume   4810.22698262
_cell_formula_units_Z   2
loop_
 _symmetry_equiv_pos_site_id
 _symmetry_equiv_pos_as_xyz
  1  'x, y, z'
loop_
 _atom_site_type_symbol
 _atom_site_label
 _atom_site_symmetry_multiplicity
 _atom_site_fract_x
 _atom_site_fract_y
 _atom_site_fract_z
 _atom_site_occupancy
  V  V0  1  0.36262849  0.25585902  0.12461113  1
  V  V1  1  0.23425385  0.24374997  -0.00047466  1
  V  V2  1  0.62515935  0.62460354  0.50304626  1
  V  V3  1  0.61272693  0.12844272  -0.00956809  1
  V  V4  1  -0.02173068  -0.00076497  -0.00577665  1
  V  V5  1  0.88645817  0.24414583  0.63261796  1
  V  V6  1  0.87027993  0.61674665  0.75543366  1
  V  V7  1  -0.00796815  0.62380394  0.14002956  1
  V  V8  1  0.12372015  0.24026778  0.86075205  1
  V  V9  1  0.65993352  0.49998383  0.62753869  1
  V  V10  1  -0.00760218  0.00511475  0.49939434  1
  V  V11  1  -0.01328797  0.87019319  0.37134669  1
  V  V12  1  0.00089196  0.74688687  0.74859405  1
  V  V13  1  0.37610191  0.51042875  0.36710680  1
  V  V14  1  0.36864647  0.62548926  0.76100853  1
  V  V15  1  0.62897547  0.00295066  0.61357476  1
  V  V16  1  0.50693075  0.87031870  0.36871288  1
  V  V17  1  0.00066487  0.50444789  -0.00196988  1
  V  V18  1  0.50210052  0.88975723  0.87855887  1
  V  V19  1  0.13360172  0.87390418  0.75223718  1
  V  V20  1  0.24981862  0.74905098  0.50249208  1
  V  V21  1  0.87604811  0.86539804  0.51967793  1
  V  V22  1  0.61284410  0.48854177  0.11970419  1
  V  V23  1  0.87473272  0.36746477  -0.00082572  1
  V  V24  1  0.74433675  0.48796583  0.25436172  1
  V  V25  1  -0.00339880  0.25606447  0.25323395  1
  V  V26  1  0.11835755  -0.00313495  0.11989621  1
  V  V27  1  0.75671837  0.74857919  0.53004553  1
  V  V28  1  -0.01191877  0.86630569  0.87736330  1
  V  V29  1  0.24181235  0.12415861  0.37741679  1
  V  V30  1  0.49032045  0.12139051  0.12599860  1
  V  V31  1  0.37317684  0.12568052  0.25584870  1
  V  V32  1  0.13803670  0.37635919  0.24644878  1
  V  V33  1  0.50125151  0.11965295  0.61828497  1
  V  V34  1  0.24357538  -0.00507158  0.25469345  1
  V  V35  1  0.74165410  0.22872785  0.49981389  1
  V  V36  1  0.74923444  -0.00320696  0.75742671  1
  V  V37  1  0.75825614  0.63263348  0.36785585  1
  V  V38  1  0.62789381  0.87336294  0.74720411  1
  V  V39  1  0.12548820  0.74759506  0.37097494  1
  V  V40  1  0.11580962  0.00335406  0.63223042  1
  V  V41  1  0.61697240  0.00955257  0.14650942  1
  V  V42  1  0.74273385  0.36347327  0.12914773  1
  V  V43  1  0.11893665  0.25603395  0.37721775  1
  V  V44  1  0.86423553  0.37268169  0.51073217  1
  V  V45  1  0.50267859  0.74746432  0.74421127  1
  V  V46  1  0.58247592  0.26496871  0.34105176  1
  V  V47  1  -0.00019447  0.62739422  0.62490486  1
  V  V48  1  0.38165135  0.26319535  0.63235249  1
  V  V49  1  0.86208466  0.11331911  0.26100072  1
  V  V50  1  0.87868470  0.48845731  0.36996428  1
  V  V51  1  -0.00303197  0.12245974  0.12379480  1
  V  V52  1  0.11374322  0.87097117  0.24925614  1
  V  V53  1  0.85147360  0.73585924  0.12304640  1
  V  V54  1  0.52621774  0.66282391  0.09513771  1
  V  V55  1  0.87156827  0.24664458  0.12307343  1
  V  V56  1  0.12331832  0.62520247  0.49782667  1
  V  V57  1  0.13603483  0.49930811  0.12664715  1
  V  V58  1  0.74333810  0.89798255  0.13797223  1
  V  V59  1  0.88361554  0.12361685  0.75241017  1
  V  V60  1  0.74849818  0.14208764  0.87781378  1
  V  V61  1  0.25424272  0.26180068  0.50751487  1
  V  V62  1  0.00330675  0.48908278  0.49864615  1
  V  V63  1  0.29651898  0.92467788  0.57195636  1
  V  V64  1  0.37467232  0.74575295  0.61968577  1
  V  V65  1  0.62413497  0.34284819  0.78773675  1
  V  V66  1  0.00406470  0.36854152  0.86261378  1
  V  V67  1  0.36908050  0.11159334  0.75654199  1
  V  V68  1  0.13817649  0.49175813  0.63150830  1
  V  V69  1  0.25340913  0.49198692  0.76983077  1
  Zn  Zn70  1  0.34943225  0.77578824  0.11112143  1
  Zn  Zn71  1  0.34039150  0.41826897  0.03227717  1
  Zn  Zn72  1  0.11428907  0.13179164  0.51128192  1
  Zn  Zn73  1  0.85623060  0.49734358  0.87307867  1
  Zn  Zn74  1  0.49226751  0.50583100  -0.01731789  1
  Zn  Zn75  1  0.83466734  0.86096167  -0.01366959  1
  Zn  Zn76  1  0.18271205  0.18513147  0.18855497  1
  Zn  Zn77  1  0.19192472  0.18436843  0.69160155  1
  Zn  Zn78  1  0.18745051  0.67749837  0.18174758  1
  Zn  Zn79  1  0.18366507  0.68627356  0.81814362  1
  Zn  Zn80  1  0.67608555  0.19184628  0.19480861  1
  Zn  Zn81  1  0.69991464  0.18022475  0.67855292  1
  Zn  Zn82  1  0.68078654  0.66946562  0.18937633  1
  Zn  Zn83  1  0.66247462  0.65532281  0.71587762  1
  Zn  Zn84  1  0.31441547  0.30863960  0.31707651  1
  Zn  Zn85  1  0.31280247  0.30387919  0.81595927  1
  Zn  Zn86  1  0.29422144  0.78801833  0.28408714  1
  Zn  Zn87  1  0.32727380  0.83118317  0.80515967  1
  Zn  Zn88  1  0.81108765  0.30644312  0.31730150  1
  Zn  Zn89  1  0.80724753  0.32100755  0.80505574  1
  Zn  Zn90  1  0.81929172  0.81261186  0.29875883  1
  Zn  Zn91  1  0.81299714  0.80717666  0.79672527  1
  Zn  Zn92  1  0.18730653  0.43722607  0.43326026  1
  Zn  Zn93  1  0.18366785  0.42845783  0.94109989  1
  Zn  Zn94  1  0.17318973  0.93796317  0.43476040  1
  Zn  Zn95  1  0.17385174  0.92589562  0.94300464  1
  Zn  Zn96  1  0.68105431  0.42764022  0.44199207  1
  Zn  Zn97  1  0.67504046  0.40152223  0.94900230  1
  Zn  Zn98  1  0.69541195  0.92647588  0.43801455  1
  Zn  Zn99  1  0.67274481  0.95221640  0.93798562  1
  Zn  Zn100  1  0.29422131  0.06705061  0.06662568  1
  Zn  Zn101  1  0.30408835  0.08737048  0.57035319  1
  Zn  Zn102  1  0.33559495  0.60480346  0.07431875  1
  Zn  Zn103  1  0.31074926  0.56791245  0.56377469  1
  Zn  Zn104  1  0.80561208  0.06700414  0.05952097  1
  Zn  Zn105  1  0.81382632  0.05978818  0.56630103  1
  Zn  Zn106  1  0.80648624  0.54970759  0.05760849  1
  Zn  Zn107  1  0.81926426  0.56756519  0.55848207  1
  Zn  Zn108  1  0.44515236  0.41597036  0.20205276  1
  Zn  Zn109  1  0.45930629  0.45822802  0.80024901  1
  Zn  Zn110  1  0.42371392  0.92666824  0.18067079  1
  Zn  Zn111  1  0.44447026  0.94070885  0.68835133  1
  Zn  Zn112  1  0.93836577  0.43439332  0.18544411  1
  Zn  Zn113  1  0.93765005  0.44248714  0.68378399  1
  Zn  Zn114  1  0.92531115  0.93112906  0.18246845  1
  Zn  Zn115  1  0.93795334  0.94123970  0.69232738  1
  Zn  Zn116  1  0.05290686  0.06305604  0.31349526  1
  Zn  Zn117  1  0.06410279  0.05668899  0.82064996  1
  Zn  Zn118  1  0.05837937  0.56046916  0.31064346  1
  Zn  Zn119  1  0.06306116  0.55838347  0.81563681  1
  Zn  Zn120  1  0.69278509  0.09250891  0.34819937  1
  Zn  Zn121  1  0.55668779  0.06970126  0.80279252  1
  Zn  Zn122  1  0.57999940  0.55229806  0.32213729  1
  Zn  Zn123  1  0.63919810  0.52598561  0.83927456  1
  Zn  Zn124  1  0.43835102  0.18456758  0.44112578  1
  Zn  Zn125  1  0.41537151  0.17252489  0.95282564  1
  Zn  Zn126  1  0.44075175  0.69264754  0.43752656  1
  Zn  Zn127  1  0.51075122  0.64410067  0.88568143  1
  Zn  Zn128  1  0.93057253  0.19036799  0.43600690  1
  Zn  Zn129  1  0.93930950  0.18590182  0.93386482  1
  Zn  Zn130  1  0.93673355  0.68394295  0.43483728  1
  Zn  Zn131  1  0.92897116  0.68732450  0.94088774  1
  Zn  Zn132  1  0.06036151  0.31494813  0.06357290  1
  Zn  Zn133  1  0.06324529  0.31171308  0.56911539  1
  Zn  Zn134  1  0.04843836  0.81131989  0.06368270  1
  Zn  Zn135  1  0.06474274  0.81478614  0.56544537  1
  Zn  Zn136  1  0.55152985  0.30178284  0.06320088  1
  Zn  Zn137  1  0.58787085  0.29787177  0.61338500  1
  Zn  Zn138  1  0.61220403  0.83317583  0.03691617  1
  Zn  Zn139  1  0.57365056  0.80877130  0.56809803  1
  O  O140  1  0.10592031  0.11086055  0.13458639  1
  O  O141  1  0.12465645  0.10828887  0.62870849  1
  O  O142  1  0.10720035  0.60539743  0.13820387  1
  O  O143  1  0.11576256  0.61138833  0.60797556  1
  O  O144  1  0.60725845  0.12340062  0.12553766  1
  O  O145  1  0.61337821  0.11531450  0.62791751  1
  O  O146  1  0.62433756  0.59388907  0.11872394  1
  O  O147  1  0.63324231  0.61654949  0.60772662  1
  O  O148  1  0.37090414  0.40505492  0.37193921  1
  O  O149  1  0.39711877  0.37605730  0.87696495  1
  O  O150  1  0.40449637  0.88386755  0.37121195  1
  O  O151  1  0.40136506  0.88342582  0.86823449  1
  O  O152  1  0.87529383  0.38284566  0.39124425  1
  O  O153  1  0.88191818  0.37228809  0.88255639  1
  O  O154  1  0.88476687  0.86802130  0.37905671  1
  O  O155  1  0.88154748  0.86786786  0.87698731  1
  O  O156  1  0.23269361  0.00944702  0.36401146  1
  O  O157  1  0.28025756  -0.02355621  0.92288231  1
  O  O158  1  0.27039486  0.51223465  0.36262853  1
  O  O159  1  0.24087634  0.50059852  0.86896106  1
  O  O160  1  0.74082393  -0.00335286  0.36890146  1
  O  O161  1  0.74418226  0.00918229  0.86185961  1
  O  O162  1  0.76141232  0.49336889  0.37034050  1
  O  O163  1  0.73657967  0.50761485  0.90787481  1
  O  O164  1  0.23250773  0.50981689  0.11935678  1
  O  O165  1  0.24050926  0.50388948  0.62473485  1
  O  O166  1  0.22490898  1.00547112  0.13795789  1
  O  O167  1  0.22998194  0.99233916  0.61878451  1
  O  O168  1  0.74419133  0.48250181  0.13457457  1
  O  O169  1  0.75997617  0.49749018  0.62597393  1
  O  O170  1  0.74173164  1.00263000  0.13246560  1
  O  O171  1  0.73736700  1.01345026  0.64074611  1
  O  O172  1  0.00305882  0.35974987  0.24604295  1
  O  O173  1  -0.00713699  0.37899617  0.76456028  1
  O  O174  1  -0.00191940  0.88272025  0.26397474  1
  O  O175  1  -0.00564078  0.86781058  0.76240550  1
  O  O176  1  0.49690339  0.38142115  0.29087215  1
  O  O177  1  0.54144501  0.39362465  0.75676220  1
  O  O178  1  0.51925296  0.87385138  0.26636471  1
  O  O179  1  0.50985962  0.87068605  0.75297164  1
  O  O180  1  0.47282909  0.12250642  0.24476396  1
  O  O181  1  0.48977721  0.12583507  0.73235835  1
  O  O182  1  0.51051917  0.64348566  0.21220916  1
  O  O183  1  0.48800578  0.64562619  0.73599717  1
  O  O184  1  0.98757984  0.13227976  0.24159509  1
  O  O185  1  0.98130038  0.11658984  0.76179257  1
  O  O186  1  0.98722089  0.61792936  0.23952024  1
  O  O187  1  1.00078018  0.62897953  0.74240647  1
  O  O188  1  0.35915470  0.24704446  0.01695388  1
  O  O189  1  0.35860838  0.24438959  0.50739048  1
  O  O190  1  0.34724480  0.76492417  -0.03044170  1
  O  O191  1  0.36183900  0.74247621  0.50299297  1
  O  O192  1  0.88218021  0.25350312  0.01306268  1
  O  O193  1  0.87745512  0.26054580  0.50953842  1
  O  O194  1  0.87570803  0.75438179  0.01702927  1
  O  O195  1  0.87190453  0.75701437  0.50216110  1
  O  O196  1  0.12875000  0.25018308  0.49382914  1
  O  O197  1  0.13004062  0.25088633  1.00025972  1
  O  O198  1  0.13004643  0.74540637  0.49460583  1
  O  O199  1  0.15418154  0.77840892  1.01531259  1
  O  O200  1  0.64520974  0.25062712  0.52224258  1
  O  O201  1  0.62480256  0.22712189  1.01522367  1
  O  O202  1  0.64862797  0.74096411  0.51003770  1
  O  O203  1  0.67964593  0.71502828  0.89356078  1
  O  O204  1  0.47462703  0.23541820  0.12293154  1
  O  O205  1  0.48794045  0.24074024  0.61707851  1
  O  O206  1  0.58003413  0.74695854  0.10312217  1
  O  O207  1  0.47922832  0.76528826  0.62079248  1
  O  O208  1  0.99255632  0.24085074  0.13161475  1
  O  O209  1  0.98776874  0.24593980  0.62261206  1
  O  O210  1  1.00351245  0.72321290  0.11601159  1
  O  O211  1  1.01042871  0.73849279  0.63477203  1
  O  O212  1  0.00891272  0.24394501  0.36655662  1
  O  O213  1  0.00799880  0.25950270  0.87830023  1
  O  O214  1  0.00692675  0.76163383  0.38056762  1
  O  O215  1  0.00053576  0.76288861  0.87534199  1
  O  O216  1  0.48175426  0.25487590  0.36781835  1
  O  O217  1  0.45533716  0.33096408  0.91899748  1
  O  O218  1  0.48808407  0.76481679  0.36147277  1
  O  O219  1  0.50325518  0.75686296  0.84662703  1
  O  O220  1  0.23710229  0.13343337  0.49011939  1
  O  O221  1  0.24825456  0.14189675  0.99511750  1
  O  O222  1  0.23731372  0.63966672  0.50054646  1
  O  O223  1  0.29005280  0.72500969  0.93972535  1
  O  O224  1  0.75456532  0.12672353  0.49598380  1
  O  O225  1  0.74520003  0.12560123  0.98237578  1
  O  O226  1  0.75743915  0.64131484  0.49380048  1
  O  O227  1  0.73375442  0.56964583  0.96835240  1
  O  O228  1  0.25210221  0.35946558  0.00005120  1
  O  O229  1  0.24721949  0.36129547  0.49383161  1
  O  O230  1  0.20410691  0.83858966  0.01839313  1
  O  O231  1  0.24301486  0.86880125  0.49867138  1
  O  O232  1  0.76335753  0.37283448  0.01737470  1
  O  O233  1  0.76473856  0.37331196  0.50744652  1
  O  O234  1  0.72244349  0.87448441  0.01558530  1
  O  O235  1  0.76559395  0.85902058  0.50081196  1
  O  O236  1  0.12002843  0.48534690  0.24497935  1
  O  O237  1  0.14068324  0.50583359  0.73920753  1
  O  O238  1  0.12149224  0.99278717  0.24516486  1
  O  O239  1  0.11222957  0.99170180  0.73961256  1
  O  O240  1  0.63837335  0.48838569  0.24515144  1
  O  O241  1  0.63635294  0.53487690  0.72615598  1
  O  O242  1  0.62904852  1.02429011  0.24250401  1
  O  O243  1  0.63631381  0.99434596  0.74389042  1
  O  O244  1  0.34964080  0.00830972  0.24240310  1
  O  O245  1  0.37707307  0.00971667  0.74767855  1
  O  O246  1  0.37971726  0.50670825  0.26204370  1
  O  O247  1  0.36768270  0.51506846  0.75252062  1
  O  O248  1  0.87459235  0.01491390  0.24300021  1
  O  O249  1  0.86085526  0.01254615  0.74265743  1
  O  O250  1  0.87063200  0.48662512  0.26546514  1
  O  O251  1  0.87793379  0.50951649  0.75509547  1
  O  O252  1  0.12697572  0.36643140  0.36194398  1
  O  O253  1  0.10879133  0.36539728  0.87689370  1
  O  O254  1  0.10989428  0.86660524  0.36770577  1
  O  O255  1  0.10526501  0.89065949  0.85993133  1
  O  O256  1  0.62757228  0.34946941  0.38277750  1
  O  O257  1  0.61018212  0.32983353  0.88882638  1
  O  O258  1  0.61305485  0.85855768  0.37957459  1
  O  O259  1  0.62669353  0.87502829  0.85288823  1
  O  O260  1  0.37169742  0.12431863  0.13250858  1
  O  O261  1  0.38428500  0.13050998  0.63516765  1
  O  O262  1  0.42591768  0.68412298  0.10287361  1
  O  O263  1  0.37080122  0.64139999  0.62952030  1
  O  O264  1  0.87740830  0.13147198  0.13050898  1
  O  O265  1  0.87732386  0.13199245  0.63965720  1
  O  O266  1  0.87487497  0.62764350  0.11751083  1
  O  O267  1  0.89386665  0.61589072  0.63464118  1
  O  O268  1  0.25159763  0.24339695  0.11712998  1
  O  O269  1  0.25357526  0.24521075  0.61221186  1
  O  O270  1  0.26803360  0.69063226  0.10101285  1
  O  O271  1  0.26064764  0.76099625  0.60556846  1
  O  O272  1  0.75780296  0.25624950  0.13200894  1
  O  O273  1  0.77307458  0.24075660  0.61011491  1
  O  O274  1  0.74869981  0.73974849  0.12961667  1
  O  O275  1  0.76002876  0.74703662  0.62577671  1
  O  O276  1  0.24029925  0.24423756  0.38357380  1
  O  O277  1  0.23276009  0.25579532  0.88494534  1
  O  O278  1  0.23521506  0.76229745  0.38562646  1
  O  O279  1  0.25397067  0.76481188  0.87161972  1
  O  O280  1  0.76314993  0.25220988  0.40138616  1
  O  O281  1  0.74716123  0.24056966  0.86903918  1
  O  O282  1  0.76340579  0.73283459  0.36108983  1
  O  O283  1  0.75455696  0.73037429  0.87612108  1
  O  O284  1  -0.01335831  0.10922525  0.00935950  1
  O  O285  1  -0.00500922  0.10854967  0.49339350  1
  O  O286  1  -0.00714501  0.60569013  0.00170438  1
  O  O287  1  0.00331289  0.61536438  0.50524063  1
  O  O288  1  0.50352414  0.12365603  0.00788603  1
  O  O289  1  0.48783870  0.11947161  0.51720551  1
  O  O290  1  0.52825228  0.62626484  -0.00143864  1
  O  O291  1  0.52660312  0.63814564  0.48512174  1
  O  O292  1  0.48940500  0.41901726  0.52893424  1
  O  O293  1  0.47151750  0.36909118  0.99222604  1
  O  O294  1  0.51113257  0.85653422  0.47505722  1
  O  O295  1  0.52430474  0.85937793  0.97323132  1
  O  O296  1  0.99584088  0.38560181  0.50357814  1
  O  O297  1  0.98854802  0.37909517  0.99837817  1
  O  O298  1  0.98918249  0.87611916  0.49363124  1
  O  O299  1  0.99888983  0.88390803  0.98894717  1
  O  O300  1  0.48109170  0.51005947  0.37164549  1
  O  O301  1  0.52648488  0.52432612  0.87125723  1
  O  O302  1  0.51492588  0.97276979  0.37822130  1
  O  O303  1  0.52111070  0.98991781  0.87666207  1
  O  O304  1  0.98642372  0.50348542  0.38393257  1
  O  O305  1  1.00390426  0.48394012  0.88873214  1
  O  O306  1  1.00534617  0.98410257  0.39078004  1
  O  O307  1  0.99294446  0.99449881  0.89038270  1
  O  O308  1  -0.00232168  0.00289271  0.11599820  1
  O  O309  1  0.00637268  -0.00423450  0.61442977  1
  O  O310  1  -0.00587665  0.50710561  0.11578365  1
  O  O311  1  0.01258401  0.50549189  0.61721327  1
  O  O312  1  0.50354888  0.00859708  0.13862892  1
  O  O313  1  0.51407842  0.00794315  0.62468823  1
  O  O314  1  0.51444052  0.48120609  0.14135218  1
  O  O315  1  0.48816134  0.48084099  0.56746797  1
  O  O316  1  0.23706672  0.36890247  0.24954799  1
  O  O317  1  0.26449325  0.39361077  0.75911845  1
  O  O318  1  0.23064880  0.88927461  0.25730467  1
  O  O319  1  0.23234790  0.87721780  0.76011800  1
  O  O320  1  0.75870362  0.37444964  0.23818420  1
  O  O321  1  0.71781495  0.39215778  0.78614271  1
  O  O322  1  0.74702914  0.87397291  0.23550399  1
  O  O323  1  0.74836625  0.88846577  0.75015818  1
  O  O324  1  0.24472118  0.11474707  0.25852537  1
  O  O325  1  0.26704171  0.12094122  0.74584569  1
  O  O326  1  0.27953467  0.68145349  0.24670822  1
  O  O327  1  0.26327209  0.62242517  0.75669748  1
  O  O328  1  0.75869886  0.13466905  0.25318375  1
  O  O329  1  0.75294278  0.11747223  0.76197300  1
  O  O330  1  0.74948929  0.60676853  0.26302214  1
  O  O331  1  0.77435289  0.63447152  0.74096910  1
  O  O332  1  0.35700517  0.12864095  0.36324608  1
  O  O333  1  0.38788364  0.13547244  0.85544319  1
  O  O334  1  0.38157260  0.61625681  0.36456073  1
  O  O335  1  0.38945556  0.63494514  0.85735277  1
  O  O336  1  0.87888021  0.12385930  0.35966656  1
  O  O337  1  0.86134368  0.13331612  0.86356253  1
  O  O338  1  0.86433362  0.60441593  0.38540252  1
  O  O339  1  0.88299587  0.61800797  0.86176169  1
  O  O340  1  0.11977852  0.38420530  0.13792544  1
  O  O341  1  0.12450083  0.39276632  0.62147445  1
  O  O342  1  0.10186058  0.88816206  0.13780383  1
  O  O343  1  0.11771801  0.88414854  0.64181740  1
  O  O344  1  0.63838256  0.36833622  0.12179452  1
  O  O345  1  0.62701333  0.40448284  0.62101406  1
  O  O346  1  0.62914894  0.90202400  0.13384002  1
  O  O347  1  0.62069963  0.89186349  0.63343692  1
  O  O348  1  0.11770058  0.25849146  0.25455422  1
  O  O349  1  0.12907309  0.24923766  0.76111190  1
  O  O350  1  0.12817935  0.76169418  0.25486545  1
  O  O351  1  0.11439985  0.76610438  0.75677819  1
  O  O352  1  0.60060020  0.26314781  0.23906122  1
  O  O353  1  0.62927915  0.25940349  0.72383301  1
  O  O354  1  0.57631409  0.65314714  0.25716845  1
  O  O355  1  0.60883866  0.75971558  0.71930185  1
  O  O356  1  0.35471925  0.23338062  0.23795211  1
  O  O357  1  0.36841079  0.24398565  0.73589392  1
  O  O358  1  0.38045206  0.82089972  0.21695195  1
  O  O359  1  0.37842210  0.74942463  0.73528539  1
  O  O360  1  0.88063375  0.24350432  0.24210865  1
  O  O361  1  0.86886156  0.24292561  0.73999741  1
  O  O362  1  0.88276534  0.76068736  0.21693809  1
  O  O363  1  0.89316334  0.73634711  0.75488260  1
  O  O364  1  0.36908483  0.51610808  0.47162670  1
  O  O365  1  0.38777450  0.51788426  1.03026447  1
  O  O366  1  0.35163575  0.98965063  0.52097878  1
  O  O367  1  0.32856573  0.98478173  0.98289350  1
  O  O368  1  0.88282228  0.48707068  0.49833810  1
  O  O369  1  0.88532667  0.48570823  0.99608174  1
  O  O370  1  0.88531046  0.98365631  0.50980343  1
  O  O371  1  0.87730732  0.99031896  1.00393835  1
  O  O372  1  0.11370611  -0.00463529  0.01633899  1
  O  O373  1  0.10815910  -0.00345522  0.51221955  1
  O  O374  1  0.10912226  0.48694068  0.01706169  1
  O  O375  1  0.12159617  0.50586521  0.49794668  1
  O  O376  1  0.62948820  0.02481193  0.01924952  1
  O  O377  1  0.63937808  -0.00638175  0.51528737  1
  O  O378  1  0.60568039  0.47041097  0.01683925  1
  O  O379  1  0.64277028  0.51414472  0.50947355  1
  O  O380  1  0.37292006  0.35913600  0.13557220  1
  O  O381  1  0.37850406  0.35888617  0.62922052  1
  O  O382  1  0.36901559  0.88516358  0.09033669  1
  O  O383  1  0.36440031  0.87083453  0.63090793  1
  O  O384  1  0.86935788  0.36399232  0.11981270  1
  O  O385  1  0.88085943  0.36407261  0.61805907  1
  O  O386  1  0.84879058  0.87260667  0.11396331  1
  O  O387  1  0.88258696  0.86852998  0.61826820  1
  O  O388  1  0.12720189  0.13726186  0.37280463  1
  O  O389  1  0.11434309  0.14058992  0.87622331  1
  O  O390  1  0.11284646  0.63500820  0.38326618  1
  O  O391  1  0.11702597  0.62818018  0.88269396  1
  O  O392  1  0.62175859  0.17431531  0.36941108  1
  O  O393  1  0.62888774  0.12619853  0.88388405  1
  O  O394  1  0.65284778  0.61300493  0.39090318  1
  O  O395  1  0.64095404  0.65661245  0.84577812  1
