# generated using pymatgen
data_V35Zn35O128
_symmetry_space_group_name_H-M   'P 1'
_cell_length_a   16.98973330
_cell_length_b   16.91202130
_cell_length_c   16.98159068
_cell_angle_alpha   89.96641702
_cell_angle_beta   89.83505220
_cell_angle_gamma   89.55350537
_symmetry_Int_Tables_number   1
_chemical_formula_structural   V35Zn35O128
_chemical_formula_sum   'V70 Zn70 O256'
_cell_volume   4879.16372122
_cell_formula_units_Z   2
loop_
 _symmetry_equiv_pos_site_id
 _symmetry_equiv_pos_as_xyz
  1  'x, y, z'
loop_
 _atom_site_type_symbol
 _atom_site_label
 _atom_site_symmetry_multiplicity
 _atom_site_fract_x
 _atom_site_fract_y
 _atom_site_fract_z
 _atom_site_occupancy
  V  V0  1  0.25380362  0.37980254  0.61648905  1
  V  V1  1  0.50415710  0.87701755  0.38504748  1
  V  V2  1  0.25273720  0.36271501  0.11818266  1
  V  V3  1  0.64157308  0.24139685  0.87161234  1
  V  V4  1  0.25318891  0.74869230  0.50019851  1
  V  V5  1  0.36477123  0.86898861  0.02662884  1
  V  V6  1  0.88090775  0.12474830  0.25724383  1
  V  V7  1  -0.00462967  0.38562675  0.38695029  1
  V  V8  1  0.84512436  -0.00003913  0.87273795  1
  V  V9  1  0.24842087  0.87878863  0.62985858  1
  V  V10  1  0.74555827  0.37660098  0.13119100  1
  V  V11  1  0.88019136  0.51526323  0.87260228  1
  V  V12  1  0.50698293  0.50577913  0.50369789  1
  V  V13  1  0.49423437  0.49763342  0.00934654  1
  V  V14  1  0.25146714  0.25030610  0.49420350  1
  V  V15  1  0.26437725  0.00220135  0.25684438  1
  V  V16  1  0.48176701  0.88922202  0.87553521  1
  V  V17  1  0.12583931  0.37395644  0.25108201  1
  V  V18  1  0.00608214  0.49248423  -0.00275808  1
  V  V19  1  0.62485335  0.13186378  0.50791891  1
  V  V20  1  0.38279336  0.12043014  0.73943954  1
  V  V21  1  0.00075172  0.00469263  0.49833448  1
  V  V22  1  0.49310860  0.73551017  0.75722913  1
  V  V23  1  0.61665651  0.76811532  0.87766589  1
  V  V24  1  0.26733021  0.50971310  0.75136682  1
  V  V25  1  0.24695299  0.14819045  0.87039918  1
  V  V26  1  0.88052243  0.23853048  0.11428169  1
  V  V27  1  0.49315365  0.00599414  0.02918455  1
  V  V28  1  0.25708327  0.63050635  0.87650559  1
  V  V29  1  0.00493863  0.24379683  0.24438641  1
  V  V30  1  0.38390930  0.88709757  0.50439527  1
  V  V31  1  0.87549681  0.87780984  0.00684624  1
  V  V32  1  0.24867226  0.62674021  0.37869819  1
  V  V33  1  0.11485646  0.75312217  0.87195497  1
  V  V34  1  0.00893305  0.89599873  0.88128681  1
  V  V35  1  0.72414078  0.61619595  0.87414420  1
  V  V36  1  0.63798572  0.24561412  0.36545446  1
  V  V37  1  -0.02272230  0.75723179  0.26275890  1
  V  V38  1  0.49454509  0.25848046  0.76434791  1
  V  V39  1  0.74100583  0.74537281  0.00290380  1
  V  V40  1  0.12248555  0.62549744  0.50492114  1
  V  V41  1  0.12704961  0.87124705  0.28678174  1
  V  V42  1  0.24390292  0.49890066  0.25079503  1
  V  V43  1  0.86649659  0.36156249  -0.01380695  1
  V  V44  1  -0.02981324  0.21908170  0.73979340  1
  V  V45  1  0.11891819  0.62773123  0.00541671  1
  V  V46  1  0.38415994  0.25461895  0.61284088  1
  V  V47  1  0.77374440  0.26583808  0.49880812  1
  V  V48  1  0.12005097  0.49549675  0.12208895  1
  V  V49  1  0.48524936  0.74817709  0.24759323  1
  V  V50  1  0.87952016  0.59497876  0.20143230  1
  V  V51  1  0.12916203  0.37011634  0.75539064  1
  V  V52  1  0.63176313  0.85479154  0.26254627  1
  V  V53  1  0.74130336  0.87859069  0.12888808  1
  V  V54  1  0.10562325  0.12318697  0.03156521  1
  V  V55  1  0.13044862  0.24476704  0.37443214  1
  V  V56  1  0.11831520  0.50866779  0.62721382  1
  V  V57  1  0.88479678  -0.01502237  0.36890170  1
  V  V58  1  0.37145393  0.48488462  0.37824407  1
  V  V59  1  0.37538514  0.73434077  0.63604856  1
  V  V60  1  0.12132771  0.00535956  0.62845571  1
  V  V61  1  0.86730850  0.88204577  0.52343707  1
  V  V62  1  0.51036998  0.37759162  0.36000088  1
  V  V63  1  0.37274307  0.23137583  0.11853491  1
  V  V64  1  0.73639642  0.01158196  0.25456908  1
  V  V65  1  0.62503334  0.38661127  0.74958442  1
  V  V66  1  0.49474353  0.23579617  0.24374958  1
  V  V67  1  0.12682764  0.12722123  0.50308639  1
  V  V68  1  0.94445074  0.69735133  0.69136245  1
  V  V69  1  0.24980755  0.00120487  0.75464684  1
  Zn  Zn70  1  0.37416265  0.62656452  0.24741300  1
  Zn  Zn71  1  0.01211909  0.35201219  0.87200093  1
  Zn  Zn72  1  0.06807884  0.83559800  0.70651666  1
  Zn  Zn73  1  0.60815977  0.12078811  -0.01734948  1
  Zn  Zn74  1  0.76357314  0.51535842  0.72429539  1
  Zn  Zn75  1  0.73048780  0.39757746  0.59734098  1
  Zn  Zn76  1  0.18984371  0.17540393  0.18562581  1
  Zn  Zn77  1  0.19641696  0.18759406  0.68106906  1
  Zn  Zn78  1  0.18168542  0.68830077  0.19025484  1
  Zn  Zn79  1  0.18995886  0.68948454  0.69209283  1
  Zn  Zn80  1  0.69323445  0.19826399  0.18472584  1
  Zn  Zn81  1  0.66918379  0.24068316  0.65728994  1
  Zn  Zn82  1  0.70376439  0.68881281  0.19278245  1
  Zn  Zn83  1  0.71103200  0.71897215  0.70865158  1
  Zn  Zn84  1  0.31841425  0.18579895  0.31143957  1
  Zn  Zn85  1  0.32149305  0.32069169  0.80437777  1
  Zn  Zn86  1  0.31394667  0.82139359  0.31910406  1
  Zn  Zn87  1  0.30563410  0.81105232  0.82249982  1
  Zn  Zn88  1  0.81957692  0.32218008  0.30675592  1
  Zn  Zn89  1  0.80837721  0.31746967  0.80054856  1
  Zn  Zn90  1  0.82245759  0.68669797  0.34003055  1
  Zn  Zn91  1  0.83731420  0.86718793  0.72816941  1
  Zn  Zn92  1  0.17753959  0.43839739  0.43758732  1
  Zn  Zn93  1  0.23163097  0.41233138  0.91651519  1
  Zn  Zn94  1  0.18954177  0.93632529  0.44030985  1
  Zn  Zn95  1  0.18772726  0.94401010  0.94912505  1
  Zn  Zn96  1  0.68193855  0.44175915  0.42387072  1
  Zn  Zn97  1  0.68615684  0.42722866  0.93182513  1
  Zn  Zn98  1  0.69228874  0.94106580  0.43412570  1
  Zn  Zn99  1  0.67565433  0.93959046  0.94762421  1
  Zn  Zn100  1  0.28756298  0.04673723  0.05429704  1
  Zn  Zn101  1  0.31973358  0.06095487  0.43870205  1
  Zn  Zn102  1  0.29389959  0.56055294  0.06107683  1
  Zn  Zn103  1  0.31669325  0.55841656  0.55994137  1
  Zn  Zn104  1  0.80917403  0.05950096  0.06937917  1
  Zn  Zn105  1  0.78368621  0.06044343  0.52609302  1
  Zn  Zn106  1  0.80460957  0.55092899  0.04388169  1
  Zn  Zn107  1  0.67563071  0.57846864  0.56138315  1
  Zn  Zn108  1  0.42259217  0.42478678  0.19820025  1
  Zn  Zn109  1  0.44099136  0.43671582  0.68062268  1
  Zn  Zn110  1  0.43855922  0.93905261  0.19885465  1
  Zn  Zn111  1  0.41772383  0.91571391  0.70709042  1
  Zn  Zn112  1  0.94087412  0.41818173  0.17810784  1
  Zn  Zn113  1  0.94987094  0.44967443  0.70050154  1
  Zn  Zn114  1  0.93717158  0.91517601  0.19599143  1
  Zn  Zn115  1  0.92386008  1.02523763  0.68775230  1
  Zn  Zn116  1  0.06937007  0.06015477  0.31069416  1
  Zn  Zn117  1  0.06750081  0.07075489  0.81305708  1
  Zn  Zn118  1  -0.01357583  0.58905344  0.34978304  1
  Zn  Zn119  1  0.06708416  0.56537075  0.81130153  1
  Zn  Zn120  1  0.55219037  0.06876920  0.33156393  1
  Zn  Zn121  1  0.56063596  0.06603597  0.79949373  1
  Zn  Zn122  1  0.54075668  0.59452498  0.35295166  1
  Zn  Zn123  1  0.54389354  0.55485536  0.81734281  1
  Zn  Zn124  1  0.45090529  0.19369359  0.44398149  1
  Zn  Zn125  1  0.40276483  0.16381670  0.94918149  1
  Zn  Zn126  1  0.43105409  0.69427955  0.43484876  1
  Zn  Zn127  1  0.43509551  0.69292624  0.94949284  1
  Zn  Zn128  1  0.94710596  0.18891299  0.43254144  1
  Zn  Zn129  1  0.94745440  0.17250864  0.92575400  1
  Zn  Zn130  1  0.93991402  0.70318191  0.45516931  1
  Zn  Zn131  1  0.89810419  0.73224987  0.87306331  1
  Zn  Zn132  1  0.06951466  0.30598317  0.05446014  1
  Zn  Zn133  1  0.06075125  0.31295240  0.57132651  1
  Zn  Zn134  1  0.04226962  0.79192096  0.06976808  1
  Zn  Zn135  1  0.06049733  0.81511121  0.54232797  1
  Zn  Zn136  1  0.56282089  0.29766636  0.06126058  1
  Zn  Zn137  1  0.56027256  0.32389290  0.54835149  1
  Zn  Zn138  1  0.55686327  0.82171282  0.06745095  1
  Zn  Zn139  1  0.55942347  0.81422269  0.58094414  1
  O  O140  1  0.10621571  0.12299309  0.13366041  1
  O  O141  1  0.13469757  0.11789521  0.61324457  1
  O  O142  1  0.13204779  0.61196521  0.11267345  1
  O  O143  1  0.13755308  0.61672460  0.61969242  1
  O  O144  1  0.66057513  0.13099297  0.09566223  1
  O  O145  1  0.62876557  0.14921139  0.60758172  1
  O  O146  1  0.63078216  0.60498793  0.14544257  1
  O  O147  1  0.65297142  0.68109218  0.61105162  1
  O  O148  1  0.38325355  0.38633242  0.37214381  1
  O  O149  1  0.33957056  0.39213484  0.88559139  1
  O  O150  1  0.38398137  0.86964514  0.39999317  1
  O  O151  1  0.38080101  0.87438288  0.88412645  1
  O  O152  1  0.89728969  0.37535154  0.36720259  1
  O  O153  1  0.87990387  0.36929558  0.88073079  1
  O  O154  1  0.88397153  0.88948593  0.38230638  1
  O  O155  1  0.89463208  0.89426657  0.89088030  1
  O  O156  1  0.24547762  0.00592761  0.37528620  1
  O  O157  1  0.24605951  -0.00833689  0.85389554  1
  O  O158  1  0.25740740  0.49968367  0.37170068  1
  O  O159  1  0.24563415  0.51573686  0.85765169  1
  O  O160  1  0.77023083  -0.00195129  0.35664927  1
  O  O161  1  0.74580851  -0.00548159  0.87872912  1
  O  O162  1  0.70109697  0.52880164  0.34322261  1
  O  O163  1  0.75771620  0.51184560  0.89056451  1
  O  O164  1  0.24000420  0.48743941  0.13236166  1
  O  O165  1  0.25125461  0.49728743  0.63269464  1
  O  O166  1  0.25409540  1.00113726  0.15612710  1
  O  O167  1  0.23840947  0.98769557  0.63062543  1
  O  O168  1  0.74714113  0.47460619  0.10121860  1
  O  O169  1  0.74003069  0.50721157  0.61705509  1
  O  O170  1  0.75660038  0.98776208  0.14652541  1
  O  O171  1  0.75161741  1.09427806  0.74359244  1
  O  O172  1  0.01281993  0.36441917  0.25363582  1
  O  O173  1  0.02166746  0.38086966  0.75468225  1
  O  O174  1  0.01063304  0.86363959  0.26882976  1
  O  O175  1  0.00705939  0.89165051  0.78076388  1
  O  O176  1  0.49872891  0.36580673  0.25612813  1
  O  O177  1  0.50502747  0.36437612  0.74464416  1
  O  O178  1  0.51766127  0.86697790  0.26135416  1
  O  O179  1  0.48875489  0.85659482  0.77013649  1
  O  O180  1  0.50215113  0.13695134  0.25468500  1
  O  O181  1  0.48774430  0.13970515  0.74015024  1
  O  O182  1  0.49377659  0.64237737  0.26074307  1
  O  O183  1  0.48424807  0.63684216  0.76990754  1
  O  O184  1  0.99743974  0.13677379  0.25419397  1
  O  O185  1  0.98200025  0.11349061  0.74443894  1
  O  O186  1  0.96751923  0.63174081  0.24178555  1
  O  O187  1  0.99687704  0.63229651  0.74667567  1
  O  O188  1  0.38755068  0.25245921  0.02154519  1
  O  O189  1  0.36713687  0.25103757  0.50755939  1
  O  O190  1  0.38379050  0.76967371  0.00850199  1
  O  O191  1  0.36981330  0.75102536  0.51829581  1
  O  O192  1  0.89014354  0.25189795  0.00446214  1
  O  O193  1  0.87181421  0.25623471  0.48506695  1
  O  O194  1  0.84446537  0.77143529  -0.02756031  1
  O  O195  1  0.88590546  0.78288287  0.51007464  1
  O  O196  1  0.13075504  0.24554840  0.49544144  1
  O  O197  1  0.13111786  0.22149793  1.01066900  1
  O  O198  1  0.14359836  0.73857641  0.51471337  1
  O  O199  1  0.11564905  0.73220207  1.00308046  1
  O  O200  1  0.62237253  0.25233186  0.47893325  1
  O  O201  1  0.61152381  0.24799009  0.97139076  1
  O  O202  1  0.64338282  0.74006355  0.55310345  1
  O  O203  1  0.62874810  0.75956846  0.99054128  1
  O  O204  1  0.49090911  0.25014119  0.13700257  1
  O  O205  1  0.48493856  0.26096611  0.61430096  1
  O  O206  1  0.51071109  0.75727792  0.15034709  1
  O  O207  1  0.48717221  0.74957985  0.64702021  1
  O  O208  1  0.98945774  0.26255164  0.13471991  1
  O  O209  1  1.01173618  0.25090093  0.65244938  1
  O  O210  1  0.99232422  0.75412097  0.15873061  1
  O  O211  1  1.00837711  0.76216598  0.63774274  1
  O  O212  1  0.01254572  0.25894932  0.36305723  1
  O  O213  1  -0.00329978  0.23941127  0.84232331  1
  O  O214  1  0.01244531  0.71801820  0.35398805  1
  O  O215  1  0.01227164  0.75892682  0.87982380  1
  O  O216  1  0.50629624  0.26400398  0.36439916  1
  O  O217  1  0.48918293  0.25280165  0.86080781  1
  O  O218  1  0.49798437  0.76267995  0.36513691  1
  O  O219  1  0.50461387  0.75528133  0.87908678  1
  O  O220  1  0.23953050  0.14089658  0.49697664  1
  O  O221  1  0.28778251  0.12611798  0.96375882  1
  O  O222  1  0.25179766  0.63254847  0.49780012  1
  O  O223  1  0.22907072  0.61042087  0.98267543  1
  O  O224  1  0.74314400  0.16503359  0.49342574  1
  O  O225  1  0.72168752  0.12872677  1.03509681  1
  O  O226  1  0.75110605  0.63235545  0.47738780  1
  O  O227  1  0.74715276  0.63983158  0.99078636  1
  O  O228  1  0.23596830  0.37080312  0.02100172  1
  O  O229  1  0.24053548  0.36762739  0.50789198  1
  O  O230  1  0.26613340  0.88431755  0.00728876  1
  O  O231  1  0.26189912  0.86697258  0.51126271  1
  O  O232  1  0.76602259  0.36389381  -0.01007564  1
  O  O233  1  0.74766070  0.37221986  0.48152369  1
  O  O234  1  0.74443616  0.87121134  0.01385872  1
  O  O235  1  0.76878629  0.89182005  0.50307022  1
  O  O236  1  0.12788524  0.49003296  0.23720466  1
  O  O237  1  0.13648255  0.50106003  0.73807500  1
  O  O238  1  0.12267065  0.97496607  0.26151874  1
  O  O239  1  0.13467131  1.00919497  0.73664747  1
  O  O240  1  0.62555962  0.54332063  0.18656663  1
  O  O241  1  0.60364940  0.48562859  0.75152844  1
  O  O242  1  0.63786999  1.01317432  0.26353943  1
  O  O243  1  0.61983369  1.00341010  0.71669448  1
  O  O244  1  0.36443842  -0.00950944  0.26734350  1
  O  O245  1  0.36912421  0.01529326  0.72994056  1
  O  O246  1  0.36043466  0.50377379  0.25665387  1
  O  O247  1  0.36577886  0.50049917  0.74335743  1
  O  O248  1  0.88740537  0.00387744  0.25731964  1
  O  O249  1  0.86423100  -0.02604678  0.77108037  1
  O  O250  1  0.87792783  0.49761819  0.22709810  1
  O  O251  1  0.86890553  0.49061068  0.77026049  1
  O  O252  1  0.12130871  0.36587142  0.36627581  1
  O  O253  1  0.13596630  0.38297519  0.85817061  1
  O  O254  1  0.12286122  0.86006681  0.38734581  1
  O  O255  1  0.11751445  0.86089067  0.90150177  1
  O  O256  1  0.61378115  0.37020992  0.36265679  1
  O  O257  1  0.62712284  0.36118987  0.85734883  1
  O  O258  1  0.62527826  0.87519743  0.36841145  1
  O  O259  1  0.61067569  0.86929815  0.87518358  1
  O  O260  1  0.35885617  0.13396140  0.11912844  1
  O  O261  1  0.36592044  0.15159151  0.63656433  1
  O  O262  1  0.33567357  0.64410636  0.13274821  1
  O  O263  1  0.37104805  0.63611512  0.62737629  1
  O  O264  1  0.87958178  0.13451770  0.12878321  1
  O  O265  1  0.83164479  0.07487471  0.63072481  1
  O  O266  1  0.87963179  0.61054006  0.10241001  1
  O  O267  1  0.90669743  0.64050311  0.60228028  1
  O  O268  1  0.26002617  0.25594275  0.13668969  1
  O  O269  1  0.25597781  0.26262257  0.61336134  1
  O  O270  1  0.28391101  0.70695940  0.12847594  1
  O  O271  1  0.26053812  0.75695310  0.62548955  1
  O  O272  1  0.77854057  0.25738703  0.12907713  1
  O  O273  1  0.76299120  0.27990041  0.60339299  1
  O  O274  1  0.74286083  0.75569721  0.10783139  1
  O  O275  1  0.84792856  0.64854683  0.65970261  1
  O  O276  1  0.24010923  0.25503926  0.38241304  1
  O  O277  1  0.25262481  0.24710451  0.86133196  1
  O  O278  1  0.26150359  0.74120786  0.39163216  1
  O  O279  1  0.23375264  0.73913791  0.87594899  1
  O  O280  1  0.73922469  0.26325399  0.36895452  1
  O  O281  1  0.74027366  0.24593073  0.86377489  1
  O  O282  1  0.72885193  0.68531236  0.42864977  1
  O  O283  1  0.72140838  0.73415041  0.88096171  1
  O  O284  1  0.00965974  0.11372869  0.00064176  1
  O  O285  1  0.01362734  0.11952434  0.49861858  1
  O  O286  1  0.01650835  0.60292552  -0.00436090  1
  O  O287  1  0.02523406  0.63721235  0.50390243  1
  O  O288  1  0.48914849  0.10784257  -0.00112757  1
  O  O289  1  0.52608025  0.12104954  0.49123102  1
  O  O290  1  0.50101844  0.60329427  0.00627143  1
  O  O291  1  0.50424619  0.60815205  0.46533253  1
  O  O292  1  0.50516760  0.39657465  0.47709739  1
  O  O293  1  0.48697479  0.39339840  1.01037727  1
  O  O294  1  0.49116429  0.86585600  0.50275015  1
  O  O295  1  0.49297864  0.88720875  0.99257728  1
  O  O296  1  1.01010233  0.36726662  0.48569502  1
  O  O297  1  1.00215051  0.37692113  0.98642659  1
  O  O298  1  0.99147259  0.89798894  0.50392026  1
  O  O299  1  0.97835349  0.86118172  1.00129247  1
  O  O300  1  0.48681795  0.48944966  0.35970879  1
  O  O301  1  0.48420426  0.49815142  0.90495198  1
  O  O302  1  0.50583218  0.97827103  0.37809375  1
  O  O303  1  0.49602498  0.98729970  0.85812699  1
  O  O304  1  1.01655509  0.48409533  0.37458312  1
  O  O305  1  0.98810891  0.50259148  0.87697790  1
  O  O306  1  0.99050702  1.00983382  0.38444060  1
  O  O307  1  1.02721749  0.99303948  0.89341310  1
  O  O308  1  0.03076661  -0.03992553  0.12109478  1
  O  O309  1  0.01418902  0.00524027  0.61757592  1
  O  O310  1  0.01211786  0.48261209  0.11071618  1
  O  O311  1  0.01966097  0.50526522  0.62978375  1
  O  O312  1  0.50347245  0.00125445  0.12814601  1
  O  O313  1  0.57569113  -0.03792207  0.66522379  1
  O  O314  1  0.50253944  0.49938314  0.11323966  1
  O  O315  1  0.49097462  0.50486954  0.60204765  1
  O  O316  1  0.23663157  0.38546659  0.24369031  1
  O  O317  1  0.24531086  0.39264322  0.73828211  1
  O  O318  1  0.23785566  0.88895208  0.27254618  1
  O  O319  1  0.26385192  0.88279818  0.73786011  1
  O  O320  1  0.75654084  0.37829026  0.23134663  1
  O  O321  1  0.73328067  0.39013055  0.74633532  1
  O  O322  1  0.73382742  0.88572708  0.24896721  1
  O  O323  1  0.73827187  0.82286222  0.72119503  1
  O  O324  1  0.24513329  0.11353299  0.26263080  1
  O  O325  1  0.25782661  0.11975301  0.75283889  1
  O  O326  1  0.23663449  0.61072343  0.26253665  1
  O  O327  1  0.25140213  0.61909843  0.76042770  1
  O  O328  1  0.76425377  0.11359862  0.24006578  1
  O  O329  1  0.78123570  0.12749614  0.68499695  1
  O  O330  1  0.78926227  0.63675659  0.24168860  1
  O  O331  1  0.73657653  0.62106366  0.76973395  1
  O  O332  1  0.38449307  0.13067567  0.38318482  1
  O  O333  1  0.36893946  0.13388662  0.84200891  1
  O  O334  1  0.36001640  0.61672882  0.36948311  1
  O  O335  1  0.35492250  0.63594142  0.88966381  1
  O  O336  1  0.87793620  0.12479004  0.35924760  1
  O  O337  1  0.87393032  0.09584203  0.88222659  1
  O  O338  1  0.88701438  0.61973857  0.40183938  1
  O  O339  1  0.86813670  0.61601772  0.87815117  1
  O  O340  1  0.13121190  0.37444215  0.13370255  1
  O  O341  1  0.13501694  0.39136867  0.63090355  1
  O  O342  1  0.08605407  0.91108420  0.10518088  1
  O  O343  1  0.13254419  0.88208564  0.62162955  1
  O  O344  1  0.65046191  0.34564057  0.11386782  1
  O  O345  1  0.62440624  0.35760958  0.63961818  1
  O  O346  1  0.63283929  0.87105926  0.14539587  1
  O  O347  1  0.61957145  0.90679822  0.62549746  1
  O  O348  1  0.12335867  0.25438797  0.25588441  1
  O  O349  1  0.14227936  0.27191483  0.74069103  1
  O  O350  1  0.13694144  0.77850298  0.23763787  1
  O  O351  1  0.12788229  0.75562325  0.76743440  1
  O  O352  1  0.61561854  0.24464190  0.25780718  1
  O  O353  1  0.60956846  0.25401487  0.75856165  1
  O  O354  1  0.63519470  0.75368918  0.26081775  1
  O  O355  1  0.60230018  0.74102020  0.77107042  1
  O  O356  1  0.38840400  0.24726505  0.24098021  1
  O  O357  1  0.38625811  0.25468528  0.73609683  1
  O  O358  1  0.38288046  0.75588136  0.25220362  1
  O  O359  1  0.37598505  0.75085306  0.74364645  1
  O  O360  1  0.88638307  0.24282557  0.24038477  1
  O  O361  1  0.87410146  0.24879736  0.73649739  1
  O  O362  1  0.87808116  0.76966488  0.27754485  1
  O  O363  1  0.89465089  0.76147255  0.76006436  1
  O  O364  1  0.38439158  0.50384474  0.48177657  1
  O  O365  1  0.39096618  0.50858164  1.01876766  1
  O  O366  1  0.37456138  0.98493599  0.51160281  1
  O  O367  1  0.38763460  0.98701949  1.01280542  1
  O  O368  1  0.88763964  0.46871441  0.54112763  1
  O  O369  1  0.88410303  0.48077432  0.98379021  1
  O  O370  1  0.87987444  1.00394981  0.48508953  1
  O  O371  1  0.85783343  0.98407723  0.99534556  1
  O  O372  1  0.16934092  0.03880643  0.01050862  1
  O  O373  1  0.11994475  0.00816607  0.50675024  1
  O  O374  1  0.12076681  0.49864426  0.00831574  1
  O  O375  1  0.13554524  0.51287988  0.51656742  1
  O  O376  1  0.59698377  0.00129909  -0.00341652  1
  O  O377  1  0.66995704  0.03346916  0.50037632  1
  O  O378  1  0.59740319  0.48698662  -0.00196425  1
  O  O379  1  0.61444151  0.50617601  0.49585960  1
  O  O380  1  0.35528177  0.36989285  0.12844842  1
  O  O381  1  0.36348946  0.36706109  0.62688553  1
  O  O382  1  0.37945223  0.87386745  0.12606659  1
  O  O383  1  0.36974850  0.86466868  0.61769888  1
  O  O384  1  0.87081988  0.36465971  0.10187214  1
  O  O385  1  0.88217879  0.42093134  0.59739482  1
  O  O386  1  0.86262178  0.87432024  0.11444804  1
  O  O387  1  0.87794193  0.90099305  0.62235724  1
  O  O388  1  0.11937709  0.13859189  0.38451792  1
  O  O389  1  0.14722399  0.12732673  0.87053577  1
  O  O390  1  0.14306381  0.61611907  0.39833178  1
  O  O391  1  0.12457031  0.63824348  0.88327328  1
  O  O392  1  0.62949206  0.14279233  0.37815463  1
  O  O393  1  0.62071268  0.13632174  0.86429644  1
  O  O394  1  0.65808780  0.59387257  0.34240877  1
  O  O395  1  0.62465808  0.61019030  0.88149632  1
