# generated using pymatgen
data_V35Zn35O128
_symmetry_space_group_name_H-M   'P 1'
_cell_length_a   16.84720820
_cell_length_b   16.84647570
_cell_length_c   16.81572209
_cell_angle_alpha   89.89369520
_cell_angle_beta   89.90779344
_cell_angle_gamma   89.99633169
_symmetry_Int_Tables_number   1
_chemical_formula_structural   V35Zn35O128
_chemical_formula_sum   'V70 Zn70 O256'
_cell_volume   4772.55798343
_cell_formula_units_Z   2
loop_
 _symmetry_equiv_pos_site_id
 _symmetry_equiv_pos_as_xyz
  1  'x, y, z'
loop_
 _atom_site_type_symbol
 _atom_site_label
 _atom_site_symmetry_multiplicity
 _atom_site_fract_x
 _atom_site_fract_y
 _atom_site_fract_z
 _atom_site_occupancy
  V  V0  1  0.50081238  0.76886524  0.25399328  1
  V  V1  1  0.62712098  0.36888831  0.25050981  1
  V  V2  1  0.88268562  0.62498838  0.73973437  1
  V  V3  1  0.11789781  0.12860589  -0.00571809  1
  V  V4  1  0.00485034  -0.00646524  0.50409965  1
  V  V5  1  0.74538482  0.50101429  0.74451572  1
  V  V6  1  0.86338868  0.75708273  0.62450465  1
  V  V7  1  0.48965183  -0.00745662  0.50317566  1
  V  V8  1  0.61201473  0.74505554  0.87759856  1
  V  V9  1  -0.00891086  0.87939511  0.35904725  1
  V  V10  1  0.85997185  0.87765703  0.50393376  1
  V  V11  1  0.62514027  0.86471751  0.74090003  1
  V  V12  1  0.49104769  0.48038795  -0.01086090  1
  V  V13  1  0.25246412  0.11868688  0.87759311  1
  V  V14  1  0.23790881  0.39033975  0.62073289  1
  V  V15  1  0.62374004  0.62381338  0.00332607  1
  V  V16  1  0.75207237  0.63262349  0.88200208  1
  V  V17  1  0.48795050  0.61070387  0.14058695  1
  V  V18  1  -0.00344453  0.37901042  0.88487638  1
  V  V19  1  0.23497255  -0.00896215  0.74044982  1
  V  V20  1  0.74635345  0.25431424  0.00106259  1
  V  V21  1  0.62698960  0.49238901  0.13166245  1
  V  V22  1  0.50155194  0.89700611  0.87907174  1
  V  V23  1  0.12011166  0.12161702  0.50572946  1
  V  V24  1  0.88734841  0.22465023  0.12636533  1
  V  V25  1  0.88174757  0.38196882  0.48453002  1
  V  V26  1  0.12636659  0.76178773  0.39804520  1
  V  V27  1  0.51253645  0.12957781  0.12302381  1
  V  V28  1  0.26658577  0.26127890  0.00409968  1
  V  V29  1  0.24873982  0.39542194  0.14107349  1
  V  V30  1  0.74387430  0.38423760  0.62182821  1
  V  V31  1  0.00556156  0.61795739  0.14788685  1
  V  V32  1  0.61639153  0.23445054  0.38188004  1
  V  V33  1  0.38530286  0.37694937  0.50238122  1
  V  V34  1  0.23834947  0.24981653  0.49590922  1
  V  V35  1  0.00863761  0.24461385  0.75444747  1
  V  V36  1  0.01591698  0.75046066  0.74366480  1
  V  V37  1  0.37622806  -0.01390019  0.37099760  1
  V  V38  1  0.38415763  0.13612532  0.24871984  1
  V  V39  1  0.01988734  0.86243057  0.87398170  1
  V  V40  1  0.63194729  -0.00117687  0.61329710  1
  V  V41  1  0.87910222  0.50231412  0.88999037  1
  V  V42  1  0.75861565  -0.00196863  0.75324497  1
  V  V43  1  0.62964852  0.88662314  0.23401582  1
  V  V44  1  0.37554759  0.74585479  0.11669724  1
  V  V45  1  0.36538210  0.24651755  0.63438323  1
  V  V46  1  0.38226062  0.11664625  0.75216072  1
  V  V47  1  0.75025301  0.01374447  0.21918174  1
  V  V48  1  0.87047287  0.24843036  0.63968891  1
  V  V49  1  0.37881127  0.61308163  0.76476295  1
  V  V50  1  0.24542127  0.12085435  0.36859135  1
  V  V51  1  -0.00235354  -0.00945857  -0.00667713  1
  V  V52  1  0.62657966  0.11515288  -0.01147576  1
  V  V53  1  0.37414060  0.88995573  -0.00867138  1
  V  V54  1  0.12412363  0.00204945  0.12583611  1
  V  V55  1  0.24523065  0.64077367  0.87941061  1
  V  V56  1  0.12468785  0.87028481  0.24440301  1
  V  V57  1  0.49556052  0.37867890  0.36808304  1
  V  V58  1  0.30015032  0.61220758  0.36073114  1
  V  V59  1  0.76736043  0.38043922  0.12938079  1
  V  V60  1  0.87412272  0.74528361  0.14306881  1
  V  V61  1  0.11716164  0.39668786  0.75047551  1
  V  V62  1  0.37615912  0.75273748  0.62321489  1
  V  V63  1  0.11940729  0.62652331  0.00637984  1
  V  V64  1  0.50448314  0.60224788  0.62417481  1
  V  V65  1  0.00279355  0.23840544  0.26469465  1
  V  V66  1  0.86215376  0.85577734  -0.00364656  1
  V  V67  1  0.85926580  0.01602798  0.36799359  1
  V  V68  1  0.74847918  0.23833800  0.49205072  1
  V  V69  1  0.25066463  0.87251068  0.12128825  1
  Zn  Zn70  1  0.63512873  0.63417836  0.50917258  1
  Zn  Zn71  1  0.52429094  0.14398350  0.62464780  1
  Zn  Zn72  1  0.76522698  0.12390590  0.86466263  1
  Zn  Zn73  1  0.09755664  0.51219611  0.59241939  1
  Zn  Zn74  1  0.12100385  0.36756766  0.25496391  1
  Zn  Zn75  1  -0.00630395  0.11439633  0.63791515  1
  Zn  Zn76  1  0.18390291  0.18934933  0.18477082  1
  Zn  Zn77  1  0.18444470  0.18083715  0.68437297  1
  Zn  Zn78  1  0.18985639  0.68769478  0.19359766  1
  Zn  Zn79  1  0.19837289  0.66745050  0.68243906  1
  Zn  Zn80  1  0.69009082  0.19338799  0.18808938  1
  Zn  Zn81  1  0.69088018  0.18349334  0.68716895  1
  Zn  Zn82  1  0.67333017  0.69909828  0.17688767  1
  Zn  Zn83  1  0.68993365  0.68311765  0.68108077  1
  Zn  Zn84  1  0.30830521  0.31228198  0.31210237  1
  Zn  Zn85  1  0.27134308  0.29392543  0.80206695  1
  Zn  Zn86  1  0.30353102  0.79825052  0.30562173  1
  Zn  Zn87  1  0.31886426  0.80820256  0.80169413  1
  Zn  Zn88  1  0.81472893  0.30145834  0.30775298  1
  Zn  Zn89  1  0.78693025  0.33134708  0.83016174  1
  Zn  Zn90  1  0.80704099  0.83008674  0.29970019  1
  Zn  Zn91  1  0.81446932  0.81560224  0.81504369  1
  Zn  Zn92  1  0.24992658  0.47764247  0.44131355  1
  Zn  Zn93  1  0.19054324  0.44636733  0.94100766  1
  Zn  Zn94  1  0.19200155  0.92847706  0.42880237  1
  Zn  Zn95  1  0.19227350  0.93488932  0.93607387  1
  Zn  Zn96  1  0.67245836  0.42948850  0.44798770  1
  Zn  Zn97  1  0.68116425  0.43520514  0.94115052  1
  Zn  Zn98  1  0.67695558  0.92979480  0.42528489  1
  Zn  Zn99  1  0.68809576  0.93463280  0.93765957  1
  Zn  Zn100  1  0.31127503  0.06298506  0.06621733  1
  Zn  Zn101  1  0.31091169  0.05888528  0.56127103  1
  Zn  Zn102  1  0.30813049  0.55646318  0.05331458  1
  Zn  Zn103  1  0.32504857  0.59425484  0.55133733  1
  Zn  Zn104  1  0.82526249  0.06879348  0.03078285  1
  Zn  Zn105  1  0.81145437  0.05940548  0.56914301  1
  Zn  Zn106  1  0.81512847  0.57106360  0.07263454  1
  Zn  Zn107  1  0.78719705  0.55451294  0.52907148  1
  Zn  Zn108  1  0.43375582  0.42960825  0.17607402  1
  Zn  Zn109  1  0.42620770  0.43513148  0.69787511  1
  Zn  Zn110  1  0.43637437  0.94957718  0.17963612  1
  Zn  Zn111  1  0.44286643  0.93595256  0.68896212  1
  Zn  Zn112  1  0.97247665  0.42321354  0.17244936  1
  Zn  Zn113  1  0.93288938  0.43611497  0.67950170  1
  Zn  Zn114  1  0.92702389  0.94224088  0.17484313  1
  Zn  Zn115  1  0.94400122  0.92956099  0.68972796  1
  Zn  Zn116  1  0.05791608  0.06278029  0.31252073  1
  Zn  Zn117  1  0.06129047  0.05756775  0.81779730  1
  Zn  Zn118  1  0.06483664  0.57843440  0.34100196  1
  Zn  Zn119  1  0.06452030  0.56874045  0.82248421  1
  Zn  Zn120  1  0.56112676  0.05251038  0.30916770  1
  Zn  Zn121  1  0.57523347  0.06510750  0.80541440  1
  Zn  Zn122  1  0.47398713  0.56683207  0.31149094  1
  Zn  Zn123  1  0.56074461  0.55703711  0.81114977  1
  Zn  Zn124  1  0.43506410  0.18028777  0.44613823  1
  Zn  Zn125  1  0.44307464  0.19283912  0.93402312  1
  Zn  Zn126  1  0.47198137  0.70006828  0.45216342  1
  Zn  Zn127  1  0.43530845  0.68065618  0.94745412  1
  Zn  Zn128  1  0.93307055  0.18846189  0.44360550  1
  Zn  Zn129  1  0.92575498  0.19381443  0.93584626  1
  Zn  Zn130  1  0.91891462  0.71137665  0.41813544  1
  Zn  Zn131  1  0.94331236  0.68814511  0.93871343  1
  Zn  Zn132  1  0.07033491  0.31333051  0.06999984  1
  Zn  Zn133  1  0.05685195  0.31101348  0.56232089  1
  Zn  Zn134  1  0.06089537  0.79792225  0.06540913  1
  Zn  Zn135  1  0.05538496  0.68953225  0.56467910  1
  Zn  Zn136  1  0.55619359  0.30264921  0.06532017  1
  Zn  Zn137  1  0.57070124  0.30172127  0.58534573  1
  Zn  Zn138  1  0.55885790  0.81487885  0.06164485  1
  Zn  Zn139  1  0.54902913  0.80040456  0.56339896  1
  O  O140  1  0.13270672  0.10773875  0.11064229  1
  O  O141  1  0.11365808  0.12477650  0.61197223  1
  O  O142  1  0.11668280  0.62973363  0.12644667  1
  O  O143  1  0.13131306  0.61831976  0.60523131  1
  O  O144  1  0.61619675  0.13211097  0.12031316  1
  O  O145  1  0.63746023  0.09927867  0.61431786  1
  O  O146  1  0.61770516  0.61155210  0.12147437  1
  O  O147  1  0.60828730  0.62268664  0.63465286  1
  O  O148  1  0.38617463  0.36010150  0.38960191  1
  O  O149  1  0.46404807  0.32480717  0.82807527  1
  O  O150  1  0.36577737  0.88838126  0.36417424  1
  O  O151  1  0.39113987  0.87240752  0.88087362  1
  O  O152  1  0.86482390  0.36823222  0.38495235  1
  O  O153  1  0.88380053  0.39233865  0.87127591  1
  O  O154  1  0.87914661  0.87984796  0.38163986  1
  O  O155  1  0.88771170  0.86379138  0.89113812  1
  O  O156  1  0.26322166  0.01048338  0.38650042  1
  O  O157  1  0.25107510  0.01407812  0.86954132  1
  O  O158  1  0.28724845  0.51461753  0.33527792  1
  O  O159  1  0.24944993  0.51910049  0.87658280  1
  O  O160  1  0.75937566  0.00054175  0.37671868  1
  O  O161  1  0.74321079  -0.00137541  0.85744501  1
  O  O162  1  0.80731881  0.51711116  0.32145383  1
  O  O163  1  0.76596843  0.50907605  0.86299228  1
  O  O164  1  0.25305622  0.49575474  0.13428390  1
  O  O165  1  0.24397868  0.48824745  0.61206692  1
  O  O166  1  0.23437720  0.98564364  0.11394019  1
  O  O167  1  0.24748382  1.00757741  0.64008485  1
  O  O168  1  0.74135596  0.48848169  0.12068387  1
  O  O169  1  0.76024507  0.49430153  0.63349818  1
  O  O170  1  0.76612724  1.00994307  0.12124335  1
  O  O171  1  0.74062037  0.98870440  0.63091729  1
  O  O172  1  0.00661356  0.35865916  0.25319506  1
  O  O173  1  0.00683278  0.36912167  0.75267212  1
  O  O174  1  -0.00004644  0.88818772  0.25548297  1
  O  O175  1  0.00189252  0.86230631  0.76119822  1
  O  O176  1  0.50163218  0.37099800  0.26315467  1
  O  O177  1  0.49836426  0.36340267  0.76758163  1
  O  O178  1  0.50817795  0.87671444  0.23316920  1
  O  O179  1  0.51510695  0.88019804  0.76783890  1
  O  O180  1  0.49257068  0.12417228  0.24003070  1
  O  O181  1  0.48483072  0.11970617  0.74733607  1
  O  O182  1  0.51673019  0.65219918  0.23986449  1
  O  O183  1  0.48632361  0.61816841  0.75169802  1
  O  O184  1  1.00273917  0.13632399  0.24703430  1
  O  O185  1  1.00246118  0.13947008  0.75781609  1
  O  O186  1  1.01051254  0.61631074  0.24934970  1
  O  O187  1  0.98864818  0.63771751  0.76077539  1
  O  O188  1  0.36626614  0.25296671  -0.00524382  1
  O  O189  1  0.35682245  0.25628566  0.51057049  1
  O  O190  1  0.38401085  0.76571157  0.01196775  1
  O  O191  1  0.38654290  0.73976128  0.51877341  1
  O  O192  1  0.86751482  0.25156315  0.02145118  1
  O  O193  1  0.86042086  0.25690798  0.50493736  1
  O  O194  1  0.87451680  0.75154946  0.00560621  1
  O  O195  1  0.87893761  0.76666170  0.51284624  1
  O  O196  1  0.12847017  0.23936316  0.50231421  1
  O  O197  1  0.11813087  0.22877314  1.00337544  1
  O  O198  1  0.10485472  0.76909903  0.49624674  1
  O  O199  1  0.13524859  0.73187188  1.01018695  1
  O  O200  1  0.63636827  0.25527275  0.49296760  1
  O  O201  1  0.64195785  0.25140753  1.00258586  1
  O  O202  1  0.58312079  0.73065958  0.47945655  1
  O  O203  1  0.61860765  0.73264970  0.99593991  1
  O  O204  1  0.48608001  0.23041097  0.11916821  1
  O  O205  1  0.46377144  0.25786440  0.61713294  1
  O  O206  1  0.49052443  0.73836393  0.12555795  1
  O  O207  1  0.48902161  0.72645425  0.63168790  1
  O  O208  1  0.98872250  0.25173906  0.12497008  1
  O  O209  1  0.98808730  0.25145962  0.64137332  1
  O  O210  1  0.99014689  0.73218002  0.12815502  1
  O  O211  1  0.98727663  0.75116807  0.63961356  1
  O  O212  1  -0.00624596  0.24427698  0.36518020  1
  O  O213  1  -0.01502004  0.26543112  0.86183047  1
  O  O214  1  0.00448370  0.77422165  0.37299592  1
  O  O215  1  0.00367892  0.75591035  0.86302358  1
  O  O216  1  0.51160652  0.25693174  0.39129612  1
  O  O217  1  0.50764405  0.26502168  0.85700840  1
  O  O218  1  0.48722971  0.76459397  0.35116407  1
  O  O219  1  0.51117831  0.74320026  0.87817476  1
  O  O220  1  0.23992122  0.13139785  0.49765919  1
  O  O221  1  0.24494719  0.12628654  0.99034108  1
  O  O222  1  0.26238363  0.61036483  0.45969727  1
  O  O223  1  0.24890440  0.62761957  0.98800145  1
  O  O224  1  0.75229459  0.14015239  0.50645076  1
  O  O225  1  0.73343328  0.14155838  1.01620223  1
  O  O226  1  0.74487914  0.65553262  0.54638924  1
  O  O227  1  0.73843501  0.61472970  0.99165009  1
  O  O228  1  0.24322894  0.36489289  0.00637529  1
  O  O229  1  0.24890120  0.36647080  0.50718851  1
  O  O230  1  0.26488256  0.87330945  0.00234059  1
  O  O231  1  0.24743907  0.88285275  0.53544931  1
  O  O232  1  0.74895630  0.36596798  0.02004264  1
  O  O233  1  0.75609165  0.36790558  0.50952186  1
  O  O234  1  0.76334610  0.87056378  -0.00572554  1
  O  O235  1  0.76180230  0.87749736  0.49222566  1
  O  O236  1  0.11030092  0.46891899  0.34334823  1
  O  O237  1  0.11189841  0.49613286  0.74177170  1
  O  O238  1  0.11732390  0.99412173  0.23133772  1
  O  O239  1  0.13368731  1.00141729  0.75129747  1
  O  O240  1  0.61829318  0.48142248  0.23767934  1
  O  O241  1  0.64744944  0.50607423  0.75392170  1
  O  O242  1  0.63657769  1.00070797  0.23719223  1
  O  O243  1  0.63119458  0.98732265  0.73592616  1
  O  O244  1  0.38250660  0.01208795  0.26734593  1
  O  O245  1  0.36606554  0.01529567  0.74472503  1
  O  O246  1  0.42739954  0.54076796  0.20846870  1
  O  O247  1  0.36689750  0.51033223  0.75873700  1
  O  O248  1  0.86033837  -0.00494547  0.25767684  1
  O  O249  1  0.85807823  -0.01430490  0.74175578  1
  O  O250  1  0.87871740  0.53175882  0.31800332  1
  O  O251  1  0.87495102  0.51611415  0.75313085  1
  O  O252  1  0.09130641  0.44130693  0.42093988  1
  O  O253  1  0.11085822  0.38827884  0.85986988  1
  O  O254  1  0.10395542  0.88670305  0.36301217  1
  O  O255  1  0.11918657  0.86872757  0.87582202  1
  O  O256  1  0.61301515  0.36845671  0.37190862  1
  O  O257  1  0.67943826  0.36336064  0.85983681  1
  O  O258  1  0.62119205  0.88359221  0.34194152  1
  O  O259  1  0.61239613  0.86486858  0.87968199  1
  O  O260  1  0.35865735  0.12278945  0.15019691  1
  O  O261  1  0.36152137  0.13691404  0.63857165  1
  O  O262  1  0.37580731  0.64099049  0.11188661  1
  O  O263  1  0.38597529  0.61904702  0.64022151  1
  O  O264  1  0.88422232  0.12567452  0.11961306  1
  O  O265  1  0.87748995  0.14262325  0.62058391  1
  O  O266  1  0.89067587  0.63072627  0.13213222  1
  O  O267  1  0.87671731  0.63947270  0.63813981  1
  O  O268  1  0.24527642  0.24209660  0.10381998  1
  O  O269  1  0.24729938  0.25753438  0.61711834  1
  O  O270  1  0.26574145  0.75909224  0.12907866  1
  O  O271  1  0.27264242  0.72872405  0.62251375  1
  O  O272  1  0.76552979  0.26060103  0.12493846  1
  O  O273  1  0.75743185  0.26066924  0.62186632  1
  O  O274  1  0.77189351  0.72709554  0.13265227  1
  O  O275  1  0.76494491  0.76239400  0.63941756  1
  O  O276  1  0.25129879  0.23568651  0.38718685  1
  O  O277  1  0.24315831  0.23715691  0.89270587  1
  O  O278  1  0.22336427  0.80366942  0.39383264  1
  O  O279  1  0.25403192  0.74138783  0.87140143  1
  O  O280  1  0.73828661  0.25013864  0.38598428  1
  O  O281  1  0.77448205  0.24093100  0.89951206  1
  O  O282  1  0.76067547  0.74025442  0.37157198  1
  O  O283  1  0.74195568  0.73642175  0.87116960  1
  O  O284  1  0.01212426  0.10504598  -0.01270404  1
  O  O285  1  0.00541585  0.11128430  0.49508006  1
  O  O286  1  0.01511524  0.62519573  0.00055830  1
  O  O287  1  -0.02279186  0.63152657  0.48100701  1
  O  O288  1  0.51976615  0.13676805  -0.00009026  1
  O  O289  1  0.49061268  0.10966725  0.51768163  1
  O  O290  1  0.50662738  0.61182773  0.01498654  1
  O  O291  1  0.49783746  0.60078846  0.52064165  1
  O  O292  1  0.48689889  0.37134740  0.50509352  1
  O  O293  1  0.50648474  0.38017628  0.99951986  1
  O  O294  1  0.49563103  0.89207233  0.51000150  1
  O  O295  1  0.49166332  0.87846766  0.98861627  1
  O  O296  1  0.98172387  0.36446834  0.49828649  1
  O  O297  1  1.00956559  0.36767796  0.98214418  1
  O  O298  1  0.98745331  0.89161715  0.48525382  1
  O  O299  1  1.00700798  0.87333540  0.98816123  1
  O  O300  1  0.49923983  0.47826507  0.38020183  1
  O  O301  1  0.50866524  0.49599696  0.88997940  1
  O  O302  1  0.48873889  1.00499789  0.39002314  1
  O  O303  1  0.50726342  0.99552892  0.87602094  1
  O  O304  1  0.99248357  0.56586971  0.43689547  1
  O  O305  1  0.98866102  0.49309454  0.87325630  1
  O  O306  1  0.98351416  0.99586810  0.37810644  1
  O  O307  1  1.00420927  0.98042514  0.88405190  1
  O  O308  1  0.01508972  -0.01191245  0.10793477  1
  O  O309  1  -0.00974714  -0.00082929  0.60920056  1
  O  O310  1  -0.00351246  0.51797920  0.12293162  1
  O  O311  1  -0.00997622  0.50465739  0.61481890  1
  O  O312  1  0.48132158  0.03072480  0.11326011  1
  O  O313  1  0.51411739  -0.00023216  0.62076120  1
  O  O314  1  0.51628034  0.49346711  0.10990033  1
  O  O315  1  0.50114419  0.50029831  0.64341247  1
  O  O316  1  0.23705122  0.37426842  0.25001185  1
  O  O317  1  0.22782595  0.37532486  0.73641257  1
  O  O318  1  0.23880129  0.87500684  0.23344053  1
  O  O319  1  0.25618553  0.89407334  0.75975385  1
  O  O320  1  0.74180755  0.36873454  0.23840186  1
  O  O321  1  0.76553318  0.39192792  0.73339539  1
  O  O322  1  0.74020401  0.89360819  0.23709954  1
  O  O323  1  0.73244678  0.88092838  0.75969047  1
  O  O324  1  0.25011403  0.12760088  0.26618723  1
  O  O325  1  0.24978851  0.12279570  0.76335942  1
  O  O326  1  0.26445276  0.67659410  0.28423419  1
  O  O327  1  0.25822483  0.62039436  0.76789402  1
  O  O328  1  0.74748238  0.11218079  0.24399376  1
  O  O329  1  0.74785846  0.10801272  0.74841236  1
  O  O330  1  0.70027482  0.62159814  0.28491887  1
  O  O331  1  0.76307392  0.61876878  0.75593779  1
  O  O332  1  0.36421270  0.11970064  0.37047823  1
  O  O333  1  0.36575706  0.13317324  0.86221723  1
  O  O334  1  0.40120095  0.63138931  0.37495682  1
  O  O335  1  0.36756936  0.62805470  0.87226924  1
  O  O336  1  0.87080373  0.11397054  0.37755343  1
  O  O337  1  0.86140251  0.10320184  0.92258884  1
  O  O338  1  0.80970023  0.68101439  0.38115962  1
  O  O339  1  0.87125053  0.61937091  0.87112548  1
  O  O340  1  0.14014379  0.37608605  0.13072783  1
  O  O341  1  0.12619825  0.38206260  0.62770644  1
  O  O342  1  0.13034631  0.87702162  0.12618175  1
  O  O343  1  0.20450263  0.85825519  0.58972394  1
  O  O344  1  0.62878797  0.37309972  0.13436129  1
  O  O345  1  0.64431466  0.38472859  0.61715968  1
  O  O346  1  0.62399809  0.87729755  0.12856423  1
  O  O347  1  0.61745432  0.86759928  0.63823045  1
  O  O348  1  0.11164009  0.24642817  0.25011575  1
  O  O349  1  0.11129398  0.25718876  0.74672196  1
  O  O350  1  0.12188408  0.76904375  0.25562416  1
  O  O351  1  0.11330843  0.73801264  0.73602417  1
  O  O352  1  0.62929721  0.25821009  0.26822970  1
  O  O353  1  0.59168600  0.22931662  0.67510975  1
  O  O354  1  0.61356366  0.76993857  0.24090362  1
  O  O355  1  0.63061776  0.75993792  0.76065621  1
  O  O356  1  0.37671144  0.23510170  0.26297451  1
  O  O357  1  0.35735974  0.24476272  0.74109699  1
  O  O358  1  0.38983689  0.76910419  0.22747517  1
  O  O359  1  0.37363512  0.72783215  0.74195451  1
  O  O360  1  0.88544477  0.24752242  0.23573647  1
  O  O361  1  0.87323968  0.25636461  0.74117127  1
  O  O362  1  0.87944403  0.76004425  0.24370424  1
  O  O363  1  0.87905964  0.74466694  0.74399570  1
  O  O364  1  0.35988303  0.47581122  0.49996011  1
  O  O365  1  0.39177709  0.49487753  1.00588962  1
  O  O366  1  0.38024118  0.99761927  0.49320032  1
  O  O367  1  0.37089587  0.98979542  0.99620465  1
  O  O368  1  0.86632007  0.48294202  0.49679618  1
  O  O369  1  0.87020245  0.50642001  0.98823100  1
  O  O370  1  0.87629697  0.99361669  0.49127173  1
  O  O371  1  0.89587028  0.97319892  1.01150335  1
  O  O372  1  0.11856900  0.00060243  0.00404229  1
  O  O373  1  0.11043066  -0.00005453  0.49419618  1
  O  O374  1  0.13621268  0.52183290  0.00608057  1
  O  O375  1  0.13650782  0.48672355  0.47512729  1
  O  O376  1  0.63398656  0.01595603  -0.00090718  1
  O  O377  1  0.61861549  -0.01583659  0.50902765  1
  O  O378  1  0.62187375  0.50541830  0.00706647  1
  O  O379  1  0.68471611  0.53627057  0.47060616  1
  O  O380  1  0.34896805  0.36746686  0.13802222  1
  O  O381  1  0.35545943  0.36836180  0.62283363  1
  O  O382  1  0.36924058  0.87705959  0.11084596  1
  O  O383  1  0.38243492  0.85416655  0.64101913  1
  O  O384  1  0.86601244  0.38989716  0.13448178  1
  O  O385  1  0.86826552  0.36182787  0.61464599  1
  O  O386  1  0.88466729  0.85452705  0.11099034  1
  O  O387  1  0.87669714  0.86987844  0.61311432  1
  O  O388  1  0.13899304  0.11125390  0.38535859  1
  O  O389  1  0.13612505  0.11931978  0.88669721  1
  O  O390  1  0.13104674  0.66245798  0.37913970  1
  O  O391  1  0.13456077  0.62965961  0.88610521  1
  O  O392  1  0.61479555  0.13595925  0.37394340  1
  O  O393  1  0.63588618  0.12657445  0.88399275  1
  O  O394  1  0.65328093  0.61755801  0.34145196  1
  O  O395  1  0.63195225  0.62772504  0.88187408  1
