# generated using pymatgen
data_V35Zn35O128
_symmetry_space_group_name_H-M   'P 1'
_cell_length_a   16.85473431
_cell_length_b   16.89363952
_cell_length_c   16.90721609
_cell_angle_alpha   90.01572740
_cell_angle_beta   89.90696684
_cell_angle_gamma   90.02214050
_symmetry_Int_Tables_number   1
_chemical_formula_structural   V35Zn35O128
_chemical_formula_sum   'V70 Zn70 O256'
_cell_volume   4814.11672274
_cell_formula_units_Z   2
loop_
 _symmetry_equiv_pos_site_id
 _symmetry_equiv_pos_as_xyz
  1  'x, y, z'
loop_
 _atom_site_type_symbol
 _atom_site_label
 _atom_site_symmetry_multiplicity
 _atom_site_fract_x
 _atom_site_fract_y
 _atom_site_fract_z
 _atom_site_occupancy
  V  V0  1  0.36187473  0.59682422  0.73710709  1
  V  V1  1  0.89649027  0.12786118  0.25367605  1
  V  V2  1  0.74211083  0.75106777  0.50182114  1
  V  V3  1  0.01475289  0.25667712  0.75723040  1
  V  V4  1  0.38741551  0.62974822  0.24874803  1
  V  V5  1  0.00688281  0.12180915  0.62331780  1
  V  V6  1  0.50184521  0.85076732  0.34574371  1
  V  V7  1  0.61301865  0.88017075  0.75409420  1
  V  V8  1  0.13336840  0.49513303  0.63665947  1
  V  V9  1  0.25187815  0.37705973  0.64028740  1
  V  V10  1  0.73946820  0.38073661  0.62838348  1
  V  V11  1  0.50663447  0.64181344  0.12002517  1
  V  V12  1  0.26834519  0.82858523  0.12164973  1
  V  V13  1  0.38806912  0.84826068  -0.01210882  1
  V  V14  1  0.75157432  0.36560468  0.11420830  1
  V  V15  1  -0.00161079  0.39568609  0.88071141  1
  V  V16  1  0.74498687  0.13965483  0.88713719  1
  V  V17  1  0.27058688  0.62078507  0.38600481  1
  V  V18  1  0.37153097  0.37569732  0.48664666  1
  V  V19  1  0.87565080  0.24913331  0.62652565  1
  V  V20  1  0.87000299  0.87717432  0.47639187  1
  V  V21  1  0.37738994  0.23732932  0.63502755  1
  V  V22  1  0.39607768  0.00438942  0.88200606  1
  V  V23  1  0.61256137  0.49454771  0.11907398  1
  V  V24  1  0.62153618  0.27186406  0.87869379  1
  V  V25  1  0.01630482  0.36428614  0.37763173  1
  V  V26  1  0.37680840  0.38975919  -0.00634863  1
  V  V27  1  0.74568711  0.49495955  0.76117340  1
  V  V28  1  -0.00943976  0.50485031  0.02614566  1
  V  V29  1  0.47411259  0.74231640  0.74326690  1
  V  V30  1  0.60810971  0.37066673  0.25632607  1
  V  V31  1  0.48735174  -0.00681714  0.49747696  1
  V  V32  1  0.62082892  0.61718652  0.52608161  1
  V  V33  1  0.24791883  0.00435827  0.76851547  1
  V  V34  1  0.26185570  0.86857514  0.62969606  1
  V  V35  1  0.13073345  0.61942432  0.01119710  1
  V  V36  1  0.74866874  0.24802439  0.49758320  1
  V  V37  1  0.89120091  0.25136611  0.12425666  1
  V  V38  1  0.38042306  0.24367730  0.12946989  1
  V  V39  1  0.00111598  0.74794377  0.24865209  1
  V  V40  1  0.60559734  0.12080925  0.00130450  1
  V  V41  1  0.48548155  0.49785880  0.50364061  1
  V  V42  1  0.50568219  0.25380977  0.75232443  1
  V  V43  1  0.61561274  0.00753466  0.62516596  1
  V  V44  1  0.25220694  0.61800325  0.87178456  1
  V  V45  1  0.61079370  0.25377936  0.37444735  1
  V  V46  1  0.25410187  0.49869063  0.24080171  1
  V  V47  1  -0.00897202  0.63774271  0.62929361  1
  V  V48  1  0.13795921  0.10411983  0.01912666  1
  V  V49  1  0.75535960  0.87811901  0.62254164  1
  V  V50  1  0.24123278  0.26133130  -0.00956730  1
  V  V51  1  0.12893190  0.37701531  0.23531368  1
  V  V52  1  0.74847529  0.49015923  0.25282729  1
  V  V53  1  0.61195168  0.00810478  0.14478150  1
  V  V54  1  0.64984752  0.74934561  0.86268727  1
  V  V55  1  0.87547280  0.50388844  0.37954659  1
  V  V56  1  0.11730001  -0.01735758  0.63859225  1
  V  V57  1  0.23686657  0.23840024  0.49354202  1
  V  V58  1  0.87511218  0.00122842  0.89716658  1
  V  V59  1  -0.00132488  -0.00227059  0.48716812  1
  V  V60  1  0.87227569  0.12786129  0.75055947  1
  V  V61  1  0.87229923  0.62240381  0.76509954  1
  V  V62  1  0.74885337  0.00526988  0.74816039  1
  V  V63  1  0.13218661  0.63434017  0.49898801  1
  V  V64  1  0.11307551  0.75803247  0.86598364  1
  V  V65  1  0.75137554  0.11441533  0.36578434  1
  V  V66  1  0.87638598  0.37356961  0.49915456  1
  V  V67  1  0.00476959  0.50155165  0.50520420  1
  V  V68  1  0.73708688  0.62639370  0.37219404  1
  V  V69  1  0.61569746  0.12654277  0.50566899  1
  Zn  Zn70  1  0.36832580  0.86069589  0.49093541  1
  Zn  Zn71  1  0.62305938  0.59936478  -0.05428627  1
  Zn  Zn72  1  0.14000721  0.87004864  0.24181674  1
  Zn  Zn73  1  0.12939533  0.76449526  0.37732450  1
  Zn  Zn74  1  0.74280332  0.89518228  0.11300588  1
  Zn  Zn75  1  0.88605495  0.62040748  0.24652478  1
  Zn  Zn76  1  0.18192054  0.20544330  0.17322330  1
  Zn  Zn77  1  0.19295180  0.18378408  0.68463722  1
  Zn  Zn78  1  0.19012153  0.67848445  0.20032626  1
  Zn  Zn79  1  0.18109477  0.68872271  0.69503983  1
  Zn  Zn80  1  0.68244162  0.18644810  0.18501033  1
  Zn  Zn81  1  0.68275544  0.19482076  0.69105310  1
  Zn  Zn82  1  0.70610745  0.66744622  0.08956107  1
  Zn  Zn83  1  0.70154379  0.69080931  0.69522452  1
  Zn  Zn84  1  0.30048890  0.30497098  0.30930709  1
  Zn  Zn85  1  0.31596434  0.31384830  0.81906615  1
  Zn  Zn86  1  0.30627146  0.81623784  0.32039934  1
  Zn  Zn87  1  0.29742606  0.81522169  0.82122273  1
  Zn  Zn88  1  0.81396103  0.30671926  0.31138889  1
  Zn  Zn89  1  0.81523888  0.32152484  0.82009852  1
  Zn  Zn90  1  0.80780384  0.79884347  0.30535283  1
  Zn  Zn91  1  0.84331355  0.81857362  0.81453802  1
  Zn  Zn92  1  0.19651020  0.44314429  0.44574397  1
  Zn  Zn93  1  0.17872722  0.43785330  0.93361286  1
  Zn  Zn94  1  0.18340913  0.93976543  0.44396576  1
  Zn  Zn95  1  0.19490324  0.92101984  0.95786973  1
  Zn  Zn96  1  0.68007786  0.43892466  0.44055824  1
  Zn  Zn97  1  0.53735049  0.44942761  0.92508152  1
  Zn  Zn98  1  0.67440225  0.93461731  0.43222186  1
  Zn  Zn99  1  0.69836972  0.94147649  0.93622788  1
  Zn  Zn100  1  0.33767700  0.08176631  0.02735705  1
  Zn  Zn101  1  0.30101512  0.05874777  0.56850436  1
  Zn  Zn102  1  0.31604941  0.57498143  0.06388336  1
  Zn  Zn103  1  0.31689442  0.69299744  0.56770717  1
  Zn  Zn104  1  0.80825377  0.07129006  0.07853936  1
  Zn  Zn105  1  0.81334482  0.06029199  0.55694733  1
  Zn  Zn106  1  0.80316813  0.54862858  -0.05317404  1
  Zn  Zn107  1  0.80919391  0.56412365  0.56276530  1
  Zn  Zn108  1  0.42246044  0.43098714  0.18411694  1
  Zn  Zn109  1  0.44331875  0.43202442  0.67894376  1
  Zn  Zn110  1  0.48092481  0.89546721  0.13671003  1
  Zn  Zn111  1  0.43148370  0.94771606  0.69538419  1
  Zn  Zn112  1  0.93634831  0.42702538  0.19571368  1
  Zn  Zn113  1  0.93624031  0.43964207  0.69254256  1
  Zn  Zn114  1  0.94232035  0.93020124  0.20351417  1
  Zn  Zn115  1  0.93391752  0.93246721  0.69160051  1
  Zn  Zn116  1  0.05000435  0.04775207  0.29126370  1
  Zn  Zn117  1  0.05667746  0.05729941  0.81717234  1
  Zn  Zn118  1  0.06689997  0.56032192  0.31147019  1
  Zn  Zn119  1  0.06502017  0.56760552  0.81394003  1
  Zn  Zn120  1  0.55292888  0.06354286  0.32581256  1
  Zn  Zn121  1  0.55841464  0.07614048  0.80943967  1
  Zn  Zn122  1  0.55516721  0.55297001  0.31925760  1
  Zn  Zn123  1  0.56530723  0.57325826  0.77620933  1
  Zn  Zn124  1  0.43083038  0.19029849  0.44986813  1
  Zn  Zn125  1  0.43025217  0.20019092  0.93352220  1
  Zn  Zn126  1  0.45308774  0.69038559  0.43737315  1
  Zn  Zn127  1  0.45786361  0.66168277  0.91399843  1
  Zn  Zn128  1  0.93923404  0.18162062  0.43569709  1
  Zn  Zn129  1  0.93920848  0.19359666  0.93915497  1
  Zn  Zn130  1  0.93999873  0.69484981  0.43451297  1
  Zn  Zn131  1  0.95701304  0.66997332  0.92854011  1
  Zn  Zn132  1  0.06389871  0.32034435  0.05533930  1
  Zn  Zn133  1  0.06488803  0.31273363  0.56760818  1
  Zn  Zn134  1  0.08816733  0.77826973  0.08111665  1
  Zn  Zn135  1  0.05291796  0.81485538  0.55838152  1
  Zn  Zn136  1  0.55409545  0.30906405  0.06056886  1
  Zn  Zn137  1  0.55418424  0.31648999  0.56467367  1
  Zn  Zn138  1  0.59695542  0.83227256  0.02711638  1
  Zn  Zn139  1  0.56117167  0.81091266  0.56607293  1
  O  O140  1  0.11850517  0.13074399  0.11639156  1
  O  O141  1  0.10996612  0.11202830  0.62849176  1
  O  O142  1  0.13511770  0.62884795  0.11085458  1
  O  O143  1  0.11681630  0.61527211  0.61875427  1
  O  O144  1  0.62433135  0.12547035  0.10732971  1
  O  O145  1  0.63324219  0.12149277  0.61436670  1
  O  O146  1  0.61564347  0.60405656  0.13435446  1
  O  O147  1  0.62927727  0.62844088  0.62446464  1
  O  O148  1  0.36752430  0.36540078  0.38874107  1
  O  O149  1  0.37501387  0.37894446  0.89053678  1
  O  O150  1  0.39432818  0.86693903  0.37736248  1
  O  O151  1  0.37110042  0.88270052  0.88392015  1
  O  O152  1  0.88074310  0.38106808  0.38649549  1
  O  O153  1  0.89900015  0.35941087  0.88063024  1
  O  O154  1  0.85441077  0.88027157  0.37757690  1
  O  O155  1  0.84357106  0.90505275  0.89576525  1
  O  O156  1  0.23415767  0.03578496  0.38192579  1
  O  O157  1  0.23410403  -0.00671437  0.86672475  1
  O  O158  1  0.24910141  0.51681304  0.37572915  1
  O  O159  1  0.23443386  0.51745358  0.86995901  1
  O  O160  1  0.74062846  0.01661000  0.38212051  1
  O  O161  1  0.75299740  0.02319941  0.86623191  1
  O  O162  1  0.75658912  0.50346232  0.37658689  1
  O  O163  1  0.75039526  0.49110354  0.86102911  1
  O  O164  1  0.25001935  0.51324583  0.14275663  1
  O  O165  1  0.23819521  0.48713317  0.62743157  1
  O  O166  1  0.31893620  1.03186212  0.21997668  1
  O  O167  1  0.22886018  0.99278473  0.63398439  1
  O  O168  1  0.73430003  0.48464003  0.14395412  1
  O  O169  1  0.75517798  0.48098560  0.62013298  1
  O  O170  1  0.72809987  1.00836040  0.12517370  1
  O  O171  1  0.73998542  1.00118662  0.62924067  1
  O  O172  1  0.01642567  0.38430076  0.27022006  1
  O  O173  1  -0.00460266  0.36086833  0.75247330  1
  O  O174  1  0.00984393  0.85752273  0.25715363  1
  O  O175  1  -0.05975590  0.85346871  0.76619990  1
  O  O176  1  0.51056950  0.37680155  0.25352622  1
  O  O177  1  0.50064235  0.35723086  0.74092197  1
  O  O178  1  0.49186152  0.86896777  0.24796801  1
  O  O179  1  0.51142184  0.87568493  0.74555151  1
  O  O180  1  0.44904304  0.12741205  0.29328440  1
  O  O181  1  0.50712603  0.14852580  0.74113123  1
  O  O182  1  0.49235978  0.61590991  0.24908368  1
  O  O183  1  0.47083840  0.63150953  0.74270481  1
  O  O184  1  0.99608980  0.14327238  0.26912051  1
  O  O185  1  0.98949932  0.13406470  0.74201956  1
  O  O186  1  1.00042168  0.63176121  0.25892692  1
  O  O187  1  0.98438090  0.61580550  0.73694751  1
  O  O188  1  0.36561733  0.26144322  0.00425314  1
  O  O189  1  0.36630613  0.25862547  0.51359706  1
  O  O190  1  0.39253613  0.75038349  -0.02927746  1
  O  O191  1  0.38847927  0.74955421  0.50665718  1
  O  O192  1  0.87928918  0.23657304  0.02338290  1
  O  O193  1  0.86861904  0.25356888  0.50657926  1
  O  O194  1  0.86773416  0.80310515  0.01871788  1
  O  O195  1  0.86162900  0.76807191  0.49078741  1
  O  O196  1  0.13657689  0.24874740  0.50973094  1
  O  O197  1  0.13724112  0.25297366  1.00189850  1
  O  O198  1  0.12099992  0.73690926  0.50296640  1
  O  O199  1  0.11830871  0.72591358  0.98720486  1
  O  O200  1  0.62931798  0.24692921  0.49500043  1
  O  O201  1  0.61731708  0.24380932  0.98290874  1
  O  O202  1  0.63257026  0.73707261  0.50459902  1
  O  O203  1  0.61660893  0.73526542  0.96053271  1
  O  O204  1  0.48494271  0.25273290  0.12792184  1
  O  O205  1  0.48418184  0.25090653  0.62804376  1
  O  O206  1  0.52270951  0.73749045  0.12752062  1
  O  O207  1  0.50683765  0.75530107  0.64741174  1
  O  O208  1  0.99002254  0.26661393  0.12934292  1
  O  O209  1  0.99102809  0.24253688  0.62873997  1
  O  O210  1  1.00143897  0.74703742  0.14464805  1
  O  O211  1  1.00090700  0.73617926  0.62427849  1
  O  O212  1  -0.00108350  0.26613219  0.38759638  1
  O  O213  1  0.00233786  0.24294079  0.85675535  1
  O  O214  1  0.01310290  0.74822214  0.36994482  1
  O  O215  1  0.00822456  0.75353753  0.88095098  1
  O  O216  1  0.51296476  0.24776051  0.38520350  1
  O  O217  1  0.50950655  0.25166486  0.86339203  1
  O  O218  1  0.51143564  0.75055128  0.36141163  1
  O  O219  1  0.51738840  0.74374966  0.83972035  1
  O  O220  1  0.25111183  0.13863657  0.50710440  1
  O  O221  1  0.23786257  0.13468080  0.99987803  1
  O  O222  1  0.24151503  0.62525644  0.49768909  1
  O  O223  1  0.24026734  0.61842861  0.98755106  1
  O  O224  1  0.74338708  0.13353931  0.49348820  1
  O  O225  1  0.74505843  0.13517818  0.98644672  1
  O  O226  1  0.74126129  0.63169111  0.49612348  1
  O  O227  1  0.72375239  0.61443316  0.99342676  1
  O  O228  1  0.25354136  0.36948479  -0.00734003  1
  O  O229  1  0.25859576  0.36780578  0.50909684  1
  O  O230  1  0.27217188  0.85703599  0.01174354  1
  O  O231  1  0.25412669  0.88907573  0.52213927  1
  O  O232  1  0.74756194  0.37849840  0.01961692  1
  O  O233  1  0.75752812  0.36651500  0.50644575  1
  O  O234  1  0.70942425  0.85858033  0.01094735  1
  O  O235  1  0.75019015  0.87232433  0.50029225  1
  O  O236  1  0.14068683  0.49189017  0.26039074  1
  O  O237  1  0.11736714  0.50328187  0.73361215  1
  O  O238  1  0.10135669  0.98822122  0.20748338  1
  O  O239  1  0.12153362  0.99658981  0.74363546  1
  O  O240  1  0.62976891  0.48226158  0.25721249  1
  O  O241  1  0.64602857  0.50127129  0.74204597  1
  O  O242  1  0.61670519  1.02601944  0.24463665  1
  O  O243  1  0.63000903  0.99918464  0.74444542  1
  O  O244  1  0.36375284  -0.00650098  0.26099980  1
  O  O245  1  0.35890786  -0.00314218  0.77033877  1
  O  O246  1  0.36339410  0.50408555  0.25282282  1
  O  O247  1  0.37634759  0.49866850  0.74593583  1
  O  O248  1  0.89360986  0.02472712  0.24786645  1
  O  O249  1  0.86375596  0.01698822  0.74853091  1
  O  O250  1  0.86803409  0.49715047  0.26435308  1
  O  O251  1  0.86398891  0.50673648  0.74534785  1
  O  O252  1  0.11550077  0.37821939  0.38866482  1
  O  O253  1  0.09985729  0.37554595  0.87395197  1
  O  O254  1  0.17228262  0.87111853  0.35625802  1
  O  O255  1  0.13381290  0.85544678  0.88824752  1
  O  O256  1  0.62779667  0.36184973  0.37122784  1
  O  O257  1  0.61908080  0.36980959  0.88211204  1
  O  O258  1  0.59843528  0.88331314  0.37092257  1
  O  O259  1  0.63014104  0.87657799  0.85626235  1
  O  O260  1  0.37378766  0.14011396  0.11432632  1
  O  O261  1  0.36586666  0.13907004  0.62750916  1
  O  O262  1  0.39426891  0.62117896  0.13864073  1
  O  O263  1  0.35481181  0.61455196  0.63865113  1
  O  O264  1  0.87595085  0.13917797  0.14389924  1
  O  O265  1  0.87834434  0.13252107  0.63000055  1
  O  O266  1  0.87116012  0.63210216  0.12286227  1
  O  O267  1  0.89036950  0.62239572  0.61650082  1
  O  O268  1  0.26079654  0.25054334  0.10496515  1
  O  O269  1  0.25674651  0.25896997  0.62193689  1
  O  O270  1  0.26717574  0.72855327  0.12600572  1
  O  O271  1  0.24436966  0.76449295  0.62978138  1
  O  O272  1  0.74722903  0.26246297  0.12899846  1
  O  O273  1  0.75793113  0.25613225  0.61746782  1
  O  O274  1  0.82881801  0.69249868  0.10563338  1
  O  O275  1  0.74669154  0.76471006  0.61219505  1
  O  O276  1  0.24996548  0.24915410  0.39387424  1
  O  O277  1  0.25722911  0.24585793  0.88976960  1
  O  O278  1  0.24707196  0.72299031  0.37212233  1
  O  O279  1  0.23414569  0.73230954  0.86938892  1
  O  O280  1  0.74418205  0.24523297  0.38788841  1
  O  O281  1  0.73689593  0.24666561  0.86600849  1
  O  O282  1  0.74895333  0.73247929  0.38224080  1
  O  O283  1  0.74902656  0.76794858  0.86465368  1
  O  O284  1  0.03317436  0.11904915  -0.03085386  1
  O  O285  1  -0.01347307  0.10729816  0.51088213  1
  O  O286  1  0.01014533  0.61241090  0.00742279  1
  O  O287  1  0.00809155  0.61845466  0.51034625  1
  O  O288  1  0.50722375  0.13003234  -0.00885333  1
  O  O289  1  0.50976063  0.11765606  0.49788455  1
  O  O290  1  0.50043243  0.62605724  0.02047546  1
  O  O291  1  0.51446846  0.61393497  0.50337808  1
  O  O292  1  0.48025959  0.37769873  0.50382995  1
  O  O293  1  0.48759099  0.37875547  0.99686881  1
  O  O294  1  0.49809246  0.88959623  0.50896950  1
  O  O295  1  0.48976650  0.87025745  1.01201653  1
  O  O296  1  0.99394343  0.38097526  0.49742637  1
  O  O297  1  1.00392139  0.39744259  0.99346954  1
  O  O298  1  0.98040311  0.88266720  0.49639696  1
  O  O299  1  0.91107973  0.84962328  1.05664682  1
  O  O300  1  0.51879969  0.49050618  0.40514551  1
  O  O301  1  0.53402786  0.55437406  0.88675191  1
  O  O302  1  0.49225448  0.99871991  0.39557882  1
  O  O303  1  0.49524997  0.99887698  0.86497835  1
  O  O304  1  0.99355232  0.49240691  0.38992710  1
  O  O305  1  0.99194952  0.49646016  0.86885690  1
  O  O306  1  1.01410297  1.00481265  0.38923799  1
  O  O307  1  0.97162417  1.00067555  0.86662842  1
  O  O308  1  0.04273908  -0.01523491  0.15219550  1
  O  O309  1  0.00280018  0.00268683  0.62983269  1
  O  O310  1  -0.00629537  0.49711198  0.12600068  1
  O  O311  1  0.00707888  0.49842262  0.61570359  1
  O  O312  1  0.51166027  0.01226483  0.12592847  1
  O  O313  1  0.51098482  0.00195328  0.62471563  1
  O  O314  1  0.51282367  0.49224260  0.13831931  1
  O  O315  1  0.50747391  0.49014241  0.60455874  1
  O  O316  1  0.24233055  0.39088228  0.25540920  1
  O  O317  1  0.25075516  0.36827110  0.73855734  1
  O  O318  1  0.26815778  0.86381800  0.22236403  1
  O  O319  1  0.24748711  0.88912996  0.73717921  1
  O  O320  1  0.74287778  0.38093898  0.25775801  1
  O  O321  1  0.75954318  0.38129815  0.73563014  1
  O  O322  1  0.74194005  0.80508936  0.20013681  1
  O  O323  1  0.75024841  0.89651458  0.74036420  1
  O  O324  1  0.22942061  0.12344519  0.28119046  1
  O  O325  1  0.23919552  0.10366899  0.74967048  1
  O  O326  1  0.26308605  0.61307683  0.26536738  1
  O  O327  1  0.25442689  0.62176205  0.75561456  1
  O  O328  1  0.74443258  0.12939285  0.26606329  1
  O  O329  1  0.75414125  0.12339213  0.75137037  1
  O  O330  1  0.75735987  0.60912100  0.26904695  1
  O  O331  1  0.76546687  0.60403872  0.73450736  1
  O  O332  1  0.39478825  0.13541803  0.34619373  1
  O  O333  1  0.37661922  0.10529626  0.89019585  1
  O  O334  1  0.37430156  0.62037579  0.37377642  1
  O  O335  1  0.35894294  0.62274134  0.86023318  1
  O  O336  1  0.86067569  0.13210423  0.36586596  1
  O  O337  1  0.86090903  0.13133889  0.86657374  1
  O  O338  1  0.86708367  0.60995464  0.38983396  1
  O  O339  1  0.87195940  0.62041663  0.86953833  1
  O  O340  1  0.11975268  0.38325549  0.13748142  1
  O  O341  1  0.13488063  0.38593785  0.62182719  1
  O  O342  1  0.15966864  0.85484534  0.12057420  1
  O  O343  1  0.11829220  0.88108797  0.62954551  1
  O  O344  1  0.62987585  0.37385078  0.14266611  1
  O  O345  1  0.64130674  0.36603222  0.61937705  1
  O  O346  1  0.61356695  0.90099299  0.13045526  1
  O  O347  1  0.63443543  0.89074093  0.63167786  1
  O  O348  1  0.13995223  0.27671140  0.25224207  1
  O  O349  1  0.11229569  0.24560384  0.73913290  1
  O  O350  1  0.11819524  0.74550052  0.25593160  1
  O  O351  1  0.11515284  0.74834674  0.76336113  1
  O  O352  1  0.62468435  0.25755169  0.26539130  1
  O  O353  1  0.61862772  0.25568498  0.76248622  1
  O  O354  1  0.69401981  0.74378373  0.18309642  1
  O  O355  1  0.63993009  0.77887170  0.74339147  1
  O  O356  1  0.35904436  0.25536167  0.22946011  1
  O  O357  1  0.38197394  0.25289279  0.74105204  1
  O  O358  1  0.37407919  0.72630324  0.25777171  1
  O  O359  1  0.37494567  0.75827511  0.75046193  1
  O  O360  1  0.87305892  0.24046640  0.24323419  1
  O  O361  1  0.87551462  0.24353742  0.73939856  1
  O  O362  1  0.89163775  0.73885224  0.26207822  1
  O  O363  1  0.85820751  0.72039438  0.74651955  1
  O  O364  1  0.38055080  0.48659360  0.49891437  1
  O  O365  1  0.36819735  0.48967508  1.00774055  1
  O  O366  1  0.38761101  1.00480692  0.51560389  1
  O  O367  1  0.37580931  0.98516389  0.98508115  1
  O  O368  1  0.88172440  0.48994602  0.49831440  1
  O  O369  1  0.89137348  0.51011496  1.00521863  1
  O  O370  1  0.88268943  0.98969672  0.49644052  1
  O  O371  1  0.87488688  1.02866989  0.99419587  1
  O  O372  1  0.14755787  0.00433458  0.02059571  1
  O  O373  1  0.10269942  -0.01116660  0.51780886  1
  O  O374  1  0.11201085  0.51181421  -0.00172165  1
  O  O375  1  0.11926829  0.50880371  0.51167065  1
  O  O376  1  0.62492533  0.02142849  -0.01069536  1
  O  O377  1  0.61481776  0.00902765  0.50843502  1
  O  O378  1  0.61838298  0.48469317  0.02082036  1
  O  O379  1  0.63551810  0.51633874  0.51034038  1
  O  O380  1  0.37360129  0.36397057  0.10775308  1
  O  O381  1  0.36000371  0.36888503  0.62020068  1
  O  O382  1  0.37448449  0.85766424  0.10575035  1
  O  O383  1  0.36308660  0.88129724  0.62854367  1
  O  O384  1  0.86108890  0.36215591  0.13646358  1
  O  O385  1  0.87274721  0.36502344  0.61429899  1
  O  O386  1  0.86685273  0.89606030  0.12084656  1
  O  O387  1  0.85734990  0.88760315  0.61040986  1
  O  O388  1  0.18825589  0.08343755  0.33466469  1
  O  O389  1  0.09472200  0.12240683  0.90879849  1
  O  O390  1  0.12653940  0.61853282  0.39744886  1
  O  O391  1  0.12909760  0.63255255  0.87899973  1
  O  O392  1  0.63201209  0.13810283  0.38489236  1
  O  O393  1  0.63504499  0.13382462  0.87959750  1
  O  O394  1  0.63735690  0.61680307  0.37908153  1
  O  O395  1  0.64722867  0.65222338  0.82615173  1
