# generated using pymatgen
data_V35Zn35O128
_symmetry_space_group_name_H-M   'P 1'
_cell_length_a   17.05788841
_cell_length_b   16.92933877
_cell_length_c   16.99512878
_cell_angle_alpha   90.01058651
_cell_angle_beta   90.41190731
_cell_angle_gamma   89.65192374
_symmetry_Int_Tables_number   1
_chemical_formula_structural   V35Zn35O128
_chemical_formula_sum   'V70 Zn70 O256'
_cell_volume   4907.61497415
_cell_formula_units_Z   2
loop_
 _symmetry_equiv_pos_site_id
 _symmetry_equiv_pos_as_xyz
  1  'x, y, z'
loop_
 _atom_site_type_symbol
 _atom_site_label
 _atom_site_symmetry_multiplicity
 _atom_site_fract_x
 _atom_site_fract_y
 _atom_site_fract_z
 _atom_site_occupancy
  V  V0  1  0.36211271  0.37534702  0.51068797  1
  V  V1  1  0.12633915  0.03819822  0.10751667  1
  V  V2  1  0.46345955  0.00475722  0.47663337  1
  V  V3  1  0.38416486  0.75658087  0.10779903  1
  V  V4  1  0.01903889  0.13787897  0.64319114  1
  V  V5  1  0.25603206  0.86975266  0.65389099  1
  V  V6  1  0.86435441  0.49944157  0.38108959  1
  V  V7  1  0.38331624  0.61579038  0.24869012  1
  V  V8  1  0.38380523  0.75750708  0.63899345  1
  V  V9  1  0.75634299  0.13677837  0.36739592  1
  V  V10  1  0.14131070  0.50418747  0.64928123  1
  V  V11  1  0.38495500  0.62017815  0.74964942  1
  V  V12  1  0.75322702  0.75175892  -0.00183301  1
  V  V13  1  0.37621179  0.37297577  0.00654428  1
  V  V14  1  0.33645445  0.10350906  0.73248335  1
  V  V15  1  0.62997943  0.62441387  -0.00459466  1
  V  V16  1  0.87572062  0.13391955  0.23882112  1
  V  V17  1  0.92449200  0.79677652  0.17653967  1
  V  V18  1  0.00970207  0.63093018  0.61477318  1
  V  V19  1  0.61948637  0.50216080  0.64174413  1
  V  V20  1  0.37306342  0.25448331  0.13619871  1
  V  V21  1  0.73368208  0.87331354  0.12690562  1
  V  V22  1  0.61808177  0.75887029  0.85884505  1
  V  V23  1  0.11200058  0.85488983  0.75426196  1
  V  V24  1  0.00375739  0.61201547  0.13176373  1
  V  V25  1  0.51410272  0.62068302  0.12235386  1
  V  V26  1  0.52650011  0.53097068  0.48783699  1
  V  V27  1  0.90291528  0.64336534  0.75713496  1
  V  V28  1  0.63956880  0.12478439  0.48266059  1
  V  V29  1  0.89920120  -0.00061879  0.36512480  1
  V  V30  1  0.51859267  0.11239017  0.61715410  1
  V  V31  1  0.24077988  0.12942664  0.90622652  1
  V  V32  1  0.75177091  0.61993203  0.85644105  1
  V  V33  1  -0.00536325  0.29505397  0.78694984  1
  V  V34  1  0.11935605  0.11046428  0.47362146  1
  V  V35  1  0.51572298  0.24810685  0.26054600  1
  V  V36  1  0.63698936  0.90614821  0.74572563  1
  V  V37  1  0.22547947  0.83755587  0.11979354  1
  V  V38  1  -0.01117961  0.26584984  0.24289573  1
  V  V39  1  0.52786216  0.87492961  0.37051362  1
  V  V40  1  0.50258203  0.35538048  0.39610631  1
  V  V41  1  0.67995655  -0.00068714  0.61375022  1
  V  V42  1  0.12147815  -0.01500546  0.64100199  1
  V  V43  1  0.15012858  0.62194673  0.48070586  1
  V  V44  1  0.33460834  0.85309595  0.46350066  1
  V  V45  1  0.50498575  0.11579477  0.13350506  1
  V  V46  1  0.36722206  0.00276468  0.90366485  1
  V  V47  1  0.62249205  0.10309065  0.00179533  1
  V  V48  1  -0.00492567  0.49985798  -0.00782248  1
  V  V49  1  0.87646467  0.88182905  0.00032343  1
  V  V50  1  0.24566221  0.03074907  0.23943393  1
  V  V51  1  0.51204042  0.35381277  0.86243763  1
  V  V52  1  0.12866854  0.26342459  0.36587491  1
  V  V53  1  0.23856733  0.24038636  0.51872341  1
  V  V54  1  0.85752790  0.38043765  0.03441740  1
  V  V55  1  0.51495997  0.75869900  0.24783755  1
  V  V56  1  0.26101433  0.60665923  0.87537318  1
  V  V57  1  0.14193013  0.74107387  0.89061259  1
  V  V58  1  0.87432335  0.00166452  0.85643043  1
  V  V59  1  -0.00237846  0.86495823  0.88082441  1
  V  V60  1  0.88388873  0.83698602  0.50609036  1
  V  V61  1  0.74268553  -0.00650976  0.24560088  1
  V  V62  1  0.86329823  0.62361505  0.24813924  1
  V  V63  1  0.73968624  0.36833285  0.59289575  1
  V  V64  1  -0.01326261  0.37874613  0.39902251  1
  V  V65  1  0.72798505  0.49133657  0.24288022  1
  V  V66  1  -0.01196283  0.14125327  0.10160290  1
  V  V67  1  0.74026768  0.25256434  0.01953796  1
  V  V68  1  0.50015024  0.90079068  0.88241048  1
  V  V69  1  0.51338929  0.48988793  -0.01283505  1
  Zn  Zn70  1  0.20351361  0.42807288  0.15074874  1
  Zn  Zn71  1  0.25704697  0.62392036  0.35797658  1
  Zn  Zn72  1  0.49489844  0.21822910  0.75552249  1
  Zn  Zn73  1  -0.11239168  0.45464497  0.83923280  1
  Zn  Zn74  1  0.31511376  0.27268338  0.68137403  1
  Zn  Zn75  1  0.00064437  -0.02140406  0.49899548  1
  Zn  Zn76  1  0.17224381  0.22567692  0.16889254  1
  Zn  Zn77  1  0.14282414  0.17273406  0.77860970  1
  Zn  Zn78  1  0.21280900  0.63033025  0.14120025  1
  Zn  Zn79  1  0.19671909  0.68407963  0.69253292  1
  Zn  Zn80  1  0.68509683  0.18792199  0.18631946  1
  Zn  Zn81  1  0.67641704  0.20580012  0.68015503  1
  Zn  Zn82  1  0.69116156  0.68921703  0.18434464  1
  Zn  Zn83  1  0.55883685  0.69467762  0.67744202  1
  Zn  Zn84  1  0.32232709  0.32468107  0.31495566  1
  Zn  Zn85  1  0.30396554  0.32373679  0.85410251  1
  Zn  Zn86  1  0.31750686  0.81521941  0.27135476  1
  Zn  Zn87  1  0.32151818  0.81399663  0.82380752  1
  Zn  Zn88  1  0.80671359  0.32279836  0.30478827  1
  Zn  Zn89  1  0.81266353  0.28325732  0.77808213  1
  Zn  Zn90  1  0.81965626  0.82464466  0.32587593  1
  Zn  Zn91  1  0.80887245  0.80969911  0.81149102  1
  Zn  Zn92  1  0.14948070  0.41278680  0.49446632  1
  Zn  Zn93  1  0.20768377  0.48235279  0.98624772  1
  Zn  Zn94  1  0.17820824  0.93217301  0.40726016  1
  Zn  Zn95  1  0.18577727  0.93428186  0.94648258  1
  Zn  Zn96  1  0.68443411  0.44677274  0.43222555  1
  Zn  Zn97  1  0.71706184  0.40529903  0.89532744  1
  Zn  Zn98  1  0.71828015  0.93049344  0.43016204  1
  Zn  Zn99  1  0.69739562  0.94478674  0.93118194  1
  Zn  Zn100  1  0.32329339  0.06986443  0.07562512  1
  Zn  Zn101  1  0.29645309  0.04078200  0.53715134  1
  Zn  Zn102  1  0.33768967  0.56460481  0.05408829  1
  Zn  Zn103  1  0.31531643  0.56945720  0.56588474  1
  Zn  Zn104  1  0.80751292  0.05986455  0.06197793  1
  Zn  Zn105  1  0.84437157  0.09445356  0.55120788  1
  Zn  Zn106  1  0.80731573  0.55892927  0.06464501  1
  Zn  Zn107  1  0.79435468  0.55974382  0.66919601  1
  Zn  Zn108  1  0.46692944  0.42230159  0.18448525  1
  Zn  Zn109  1  0.38316624  0.41256825  0.71492765  1
  Zn  Zn110  1  0.42432110  0.94111531  0.19390070  1
  Zn  Zn111  1  0.44666778  0.95670290  0.69861159  1
  Zn  Zn112  1  0.92944754  0.45117837  0.19237143  1
  Zn  Zn113  1  0.94161755  0.45693089  0.67691941  1
  Zn  Zn114  1  0.95976879  0.96613691  0.18875557  1
  Zn  Zn115  1  0.93269151  0.92034368  0.67831783  1
  Zn  Zn116  1  0.07288422  0.07618531  0.28646969  1
  Zn  Zn117  1  0.02998809  0.08168835  0.86047919  1
  Zn  Zn118  1  0.05840087  0.55537279  0.31429685  1
  Zn  Zn119  1  0.06987450  0.55298545  0.82368672  1
  Zn  Zn120  1  0.56092854  0.06003963  0.30955880  1
  Zn  Zn121  1  0.73029740  0.13270479  0.85655549  1
  Zn  Zn122  1  0.52848279  0.52578047  0.30241507  1
  Zn  Zn123  1  0.56268136  0.56334439  0.80986073  1
  Zn  Zn124  1  0.43421697  0.18815280  0.45448606  1
  Zn  Zn125  1  0.44264300  0.18389319  0.94656998  1
  Zn  Zn126  1  0.43335956  0.70358575  0.43097213  1
  Zn  Zn127  1  0.44407455  0.68524412  0.92820319  1
  Zn  Zn128  1  0.94448570  0.19519342  0.44087228  1
  Zn  Zn129  1  0.89966970  0.20707566  0.93034166  1
  Zn  Zn130  1  0.90419211  0.63434868  0.46868189  1
  Zn  Zn131  1  0.93659443  0.68494368  0.93994380  1
  Zn  Zn132  1  0.05029389  0.33911465  0.07507905  1
  Zn  Zn133  1  0.12065745  0.30386804  0.65532580  1
  Zn  Zn134  1  0.05517116  0.79385808  0.05404704  1
  Zn  Zn135  1  0.06590994  0.79633955  0.55464797  1
  Zn  Zn136  1  0.57150950  0.31338673  0.07719654  1
  Zn  Zn137  1  0.55683506  0.30413633  0.57881005  1
  Zn  Zn138  1  0.56369742  0.81206051  0.05402830  1
  Zn  Zn139  1  0.56040530  0.84074386  0.56480952  1
  O  O140  1  0.10707144  0.14342835  0.10742319  1
  O  O141  1  0.11880616  0.08726942  0.61452163  1
  O  O142  1  0.10099680  0.63211767  0.12798696  1
  O  O143  1  0.12477349  0.62042310  0.63152974  1
  O  O144  1  0.60944049  0.12388816  0.12940283  1
  O  O145  1  0.63384789  0.10080074  0.60245835  1
  O  O146  1  0.61839164  0.64007750  0.10954821  1
  O  O147  1  0.61319248  0.60382395  0.63907031  1
  O  O148  1  0.38042228  0.36554115  0.40236613  1
  O  O149  1  0.40145252  0.36740398  0.90085673  1
  O  O150  1  0.36578019  0.85000964  0.36798240  1
  O  O151  1  0.39096609  0.89035818  0.87080684  1
  O  O152  1  0.87784160  0.38779083  0.37096241  1
  O  O153  1  0.81671235  0.36945920  0.85328992  1
  O  O154  1  0.90409734  0.90045125  0.34765121  1
  O  O155  1  0.87757756  0.88056217  0.88166147  1
  O  O156  1  0.22641253  -0.00100087  0.33514976  1
  O  O157  1  0.26111152  0.00451977  0.89327551  1
  O  O158  1  0.20836488  0.46212345  0.30362243  1
  O  O159  1  0.24844236  0.50751204  0.87807413  1
  O  O160  1  0.77206811  0.00089108  0.35254297  1
  O  O161  1  0.77108466  0.01690366  0.87520265  1
  O  O162  1  0.76070265  0.49938345  0.36161983  1
  O  O163  1  0.73877894  0.52286026  0.87474603  1
  O  O164  1  0.23794407  0.52104567  0.09459313  1
  O  O165  1  0.24071762  0.51760063  0.63482904  1
  O  O166  1  0.23054856  1.02378485  0.12220569  1
  O  O167  1  0.22469115  0.96261347  0.60292028  1
  O  O168  1  0.73733442  0.51654485  0.14511516  1
  O  O169  1  0.72378247  0.49495714  0.61528757  1
  O  O170  1  0.75826898  0.98352096  0.13629358  1
  O  O171  1  0.77496586  1.01993515  0.61811340  1
  O  O172  1  -0.01170129  0.36649328  0.24574757  1
  O  O173  1  -0.02289003  0.39663150  0.77157804  1
  O  O174  1  -0.01057960  0.86052545  0.21627590  1
  O  O175  1  0.00973577  0.86407553  0.75799468  1
  O  O176  1  0.49335939  0.35867437  0.28590431  1
  O  O177  1  0.48198868  0.36827794  0.76663108  1
  O  O178  1  0.49720222  0.86768098  0.25761362  1
  O  O179  1  0.52525625  0.89994481  0.76327861  1
  O  O180  1  0.50187463  0.13698981  0.24910728  1
  O  O181  1  0.49442808  0.09793577  0.71235223  1
  O  O182  1  0.50657548  0.63909328  0.23499679  1
  O  O183  1  0.49003968  0.63677406  0.75466140  1
  O  O184  1  0.98691583  0.14259393  0.23800796  1
  O  O185  1  1.04105055  0.12227784  0.74511043  1
  O  O186  1  0.98967051  0.61406223  0.23844887  1
  O  O187  1  1.00032684  0.63471960  0.77429518  1
  O  O188  1  0.39717925  0.26684127  0.01794723  1
  O  O189  1  0.33425159  0.23211442  0.49035952  1
  O  O190  1  0.39151520  0.74545138  0.00940249  1
  O  O191  1  0.37509151  0.76861571  0.51269843  1
  O  O192  1  0.87291999  0.27959047  0.02057378  1
  O  O193  1  0.86515992  0.20014786  0.51409247  1
  O  O194  1  0.85769557  0.76116798  -0.01226660  1
  O  O195  1  0.88451689  0.73765223  0.50593794  1
  O  O196  1  0.13836510  0.23936414  0.47751942  1
  O  O197  1  0.11579863  0.28518730  0.96856848  1
  O  O198  1  0.13131657  0.72076287  0.50139484  1
  O  O199  1  0.13047404  0.73877542  0.98910177  1
  O  O200  1  0.61584523  0.21817945  0.49807307  1
  O  O201  1  0.63814860  0.25418733  1.00801424  1
  O  O202  1  0.62542758  0.74244293  0.55496924  1
  O  O203  1  0.63532138  0.74502589  0.98818292  1
  O  O204  1  0.49991954  0.24613140  0.14964018  1
  O  O205  1  0.45766299  0.17662039  0.57166419  1
  O  O206  1  0.50053326  0.74795286  0.12847835  1
  O  O207  1  0.48623515  0.77188502  0.62610032  1
  O  O208  1  0.99684696  0.25030320  0.13602839  1
  O  O209  1  1.03117236  0.23503527  0.62215110  1
  O  O210  1  0.97906792  0.73225355  0.11779343  1
  O  O211  1  1.01687495  0.73097979  0.63464237  1
  O  O212  1  -0.00504788  0.26643632  0.36759531  1
  O  O213  1  -0.01687830  0.26938862  0.88324863  1
  O  O214  1  0.06723871  0.80258106  0.35534188  1
  O  O215  1  0.01406155  0.75658400  0.88689626  1
  O  O216  1  0.49247817  0.24308347  0.37342044  1
  O  O217  1  0.50309743  0.24775441  0.86765909  1
  O  O218  1  0.50704367  0.76345245  0.36029567  1
  O  O219  1  0.51781802  0.75917552  0.87645386  1
  O  O220  1  0.22354742  0.12411775  0.50104459  1
  O  O221  1  0.24783481  0.12776161  1.00447093  1
  O  O222  1  0.25591122  0.62005153  0.47811146  1
  O  O223  1  0.27525612  0.62527035  0.97481979  1
  O  O224  1  0.74909220  0.11853134  0.47493485  1
  O  O225  1  0.72437503  0.12830150  1.03082716  1
  O  O226  1  0.74602660  0.68760532  0.57286009  1
  O  O227  1  0.74527264  0.63565151  0.99580474  1
  O  O228  1  0.27762330  0.38400679  -0.00630122  1
  O  O229  1  0.25143451  0.35249604  0.50228583  1
  O  O230  1  0.24266981  0.87734611  0.02941841  1
  O  O231  1  0.23433549  0.85221535  0.46526698  1
  O  O232  1  0.75077347  0.36426577  0.00428170  1
  O  O233  1  0.75558856  0.38306475  0.49490518  1
  O  O234  1  0.75428072  0.87233683  0.01037429  1
  O  O235  1  0.79674628  0.84835678  0.43961384  1
  O  O236  1  0.14659284  0.48573886  0.25514297  1
  O  O237  1  0.13321035  0.49618817  0.74953568  1
  O  O238  1  0.12229099  1.00490270  0.21194474  1
  O  O239  1  0.12449198  0.97635296  0.74032740  1
  O  O240  1  0.63319073  0.51759648  0.26982796  1
  O  O241  1  0.60895797  0.48635499  0.74004783  1
  O  O242  1  0.64574333  1.00071379  0.25312882  1
  O  O243  1  0.65017930  1.00624180  0.72949429  1
  O  O244  1  0.34609887  0.01587442  0.22815362  1
  O  O245  1  0.37211282  0.01229121  0.76885626  1
  O  O246  1  0.42136271  0.51719328  0.24790667  1
  O  O247  1  0.38549222  0.52350642  0.72825289  1
  O  O248  1  0.87573952  0.01814156  0.24661609  1
  O  O249  1  0.88036481  -0.01732376  0.75920234  1
  O  O250  1  0.85534276  0.51125187  0.25567161  1
  O  O251  1  0.87455656  0.52842757  0.74961354  1
  O  O252  1  0.10315054  0.36653485  0.39338382  1
  O  O253  1  0.13539035  0.33564281  0.91983638  1
  O  O254  1  0.10142656  0.86378200  0.33418951  1
  O  O255  1  0.12020389  0.86366802  0.87069974  1
  O  O256  1  0.60041591  0.36679069  0.40920765  1
  O  O257  1  0.61118593  0.37083718  0.86609864  1
  O  O258  1  0.62529973  0.87855744  0.37284354  1
  O  O259  1  0.62273345  0.87542744  0.86746941  1
  O  O260  1  0.39604237  0.14594866  0.11890945  1
  O  O261  1  0.32921778  0.09021745  0.63458447  1
  O  O262  1  0.39855423  0.63249124  0.12644711  1
  O  O263  1  0.37108144  0.65061366  0.63330158  1
  O  O264  1  0.88146877  0.12616094  0.12636767  1
  O  O265  1  0.92759261  0.10120317  0.63188614  1
  O  O266  1  0.87738642  0.61987677  0.14327481  1
  O  O267  1  0.90078746  0.62705275  0.64587649  1
  O  O268  1  0.27596441  0.24803340  0.12585100  1
  O  O269  1  0.22155170  0.24255106  0.62025023  1
  O  O270  1  0.27218556  0.73730587  0.12261373  1
  O  O271  1  0.26186547  0.76757460  0.62882584  1
  O  O272  1  0.75320976  0.24862371  0.12084885  1
  O  O273  1  0.73514334  0.26786854  0.60328983  1
  O  O274  1  0.74638224  0.76381215  0.11413478  1
  O  O275  1  0.70765365  0.75183945  0.57099998  1
  O  O276  1  0.22502535  0.27061120  0.34943076  1
  O  O277  1  0.25453571  0.22785001  0.88431606  1
  O  O278  1  0.22325607  0.74228587  0.31266297  1
  O  O279  1  0.24147731  0.75776002  0.88060954  1
  O  O280  1  0.75335829  0.23464789  0.35861746  1
  O  O281  1  0.78416646  0.21095951  0.92668657  1
  O  O282  1  0.73117640  0.69950454  0.40482721  1
  O  O283  1  0.73647563  0.74519553  0.88015029  1
  O  O284  1  -0.01856504  0.15053061  0.00493312  1
  O  O285  1  0.02314411  0.12803922  0.50637038  1
  O  O286  1  -0.02283735  0.60824169  0.01690793  1
  O  O287  1  0.00967225  0.62361336  0.51341141  1
  O  O288  1  0.51475850  0.12870673  0.02013730  1
  O  O289  1  0.54038798  0.07982169  0.47990230  1
  O  O290  1  0.51047556  0.62238271  0.00377124  1
  O  O291  1  0.48615854  0.62333743  0.48942635  1
  O  O292  1  0.47616028  0.33836306  0.50274389  1
  O  O293  1  0.51774839  0.38485495  0.99155923  1
  O  O294  1  0.50318850  0.88694554  0.47622192  1
  O  O295  1  0.51219030  0.87843323  0.97937138  1
  O  O296  1  0.98046095  0.37729955  0.49394175  1
  O  O297  1  0.97373123  0.39359181  1.01453650  1
  O  O298  1  0.98773463  0.85938581  0.49281268  1
  O  O299  1  0.98404294  0.86342585  0.99637888  1
  O  O300  1  0.49136188  0.47716183  0.40165286  1
  O  O301  1  0.50527713  0.49663567  0.88637727  1
  O  O302  1  0.49608609  0.98237698  0.36871028  1
  O  O303  1  0.48645544  1.00056047  0.88594383  1
  O  O304  1  0.98634789  0.48359711  0.36816683  1
  O  O305  1  0.98241983  0.50878904  0.88900251  1
  O  O306  1  0.99700488  1.02140116  0.35517163  1
  O  O307  1  0.99379311  0.97209214  0.87646810  1
  O  O308  1  0.00750818  0.03503135  0.11591780  1
  O  O309  1  0.02123088  -0.03340728  0.61553510  1
  O  O310  1  0.00020979  0.50659742  0.12148716  1
  O  O311  1  0.02228572  0.52304355  0.64046131  1
  O  O312  1  0.49254742  0.01750105  0.14368218  1
  O  O313  1  0.48206784  0.00699841  0.59035196  1
  O  O314  1  0.51302082  0.52077530  0.11364424  1
  O  O315  1  0.52420424  0.48814248  0.58265572  1
  O  O316  1  0.26153605  0.41680832  0.25781890  1
  O  O317  1  0.28990918  0.35931166  0.75136528  1
  O  O318  1  0.25476346  0.88580633  0.20797648  1
  O  O319  1  0.23936761  0.87268888  0.75384961  1
  O  O320  1  0.73636417  0.39084388  0.24917266  1
  O  O321  1  0.79849331  0.38110265  0.69420975  1
  O  O322  1  0.75570262  0.88041846  0.23927934  1
  O  O323  1  0.73207827  0.87592749  0.76102795  1
  O  O324  1  0.22646588  0.12995836  0.23819405  1
  O  O325  1  0.24205004  0.11669638  0.76813695  1
  O  O326  1  0.28142210  0.60642849  0.23627583  1
  O  O327  1  0.27194356  0.63545276  0.76407232  1
  O  O328  1  0.75645943  0.11477806  0.24963197  1
  O  O329  1  0.74594840  0.19372739  0.76387137  1
  O  O330  1  0.76193833  0.63400714  0.25322382  1
  O  O331  1  0.74958422  0.63051026  0.75670458  1
  O  O332  1  0.39370593  0.07602885  0.45451583  1
  O  O333  1  0.36354198  0.11200585  0.89290762  1
  O  O334  1  0.37565135  0.63868287  0.35180583  1
  O  O335  1  0.37535822  0.62500905  0.85992520  1
  O  O336  1  0.86669860  0.12168203  0.35743486  1
  O  O337  1  0.91114688  0.09830975  0.86974250  1
  O  O338  1  0.88626827  0.61160249  0.35616006  1
  O  O339  1  0.85977949  0.63366049  0.86618421  1
  O  O340  1  0.14432640  0.33755548  0.13064582  1
  O  O341  1  0.12567455  0.40415145  0.60960750  1
  O  O342  1  0.12716766  0.83146644  0.13106878  1
  O  O343  1  0.13132688  0.85976686  0.64415569  1
  O  O344  1  0.57262663  0.39193608  0.15464135  1
  O  O345  1  0.63307609  0.38525004  0.60801343  1
  O  O346  1  0.63640697  0.87624608  0.12098008  1
  O  O347  1  0.63405845  0.89707427  0.63526505  1
  O  O348  1  0.09803045  0.24971345  0.26258218  1
  O  O349  1  0.09976576  0.27753872  0.76432230  1
  O  O350  1  0.16922308  0.72893679  0.26104859  1
  O  O351  1  0.13077091  0.75451629  0.76424025  1
  O  O352  1  0.61433399  0.24848657  0.25904101  1
  O  O353  1  0.56552549  0.22548037  0.66561812  1
  O  O354  1  0.61327449  0.75287044  0.24187043  1
  O  O355  1  0.62170815  0.75871162  0.75808633  1
  O  O356  1  0.38241254  0.26096135  0.24098506  1
  O  O357  1  0.38051701  0.20070407  0.74321179  1
  O  O358  1  0.39413874  0.73671587  0.23184772  1
  O  O359  1  0.37935645  0.75112506  0.74241650  1
  O  O360  1  0.88097693  0.24614550  0.25323327  1
  O  O361  1  0.91948330  0.24864853  0.74051353  1
  O  O362  1  0.87384850  0.74598930  0.25438722  1
  O  O363  1  0.87911017  0.74254940  0.75544184  1
  O  O364  1  0.36450700  0.47484057  0.51771292  1
  O  O365  1  0.40620049  0.48434225  1.01093946  1
  O  O366  1  0.36187037  0.94685591  0.50162969  1
  O  O367  1  0.37589135  0.99618043  1.00215352  1
  O  O368  1  0.86588890  0.52262232  0.47805525  1
  O  O369  1  0.86602951  0.48587045  0.99834244  1
  O  O370  1  0.89041920  1.00678807  0.47186477  1
  O  O371  1  0.86823871  0.98521454  0.99717576  1
  O  O372  1  0.11685633  -0.00813550  0.01868380  1
  O  O373  1  0.11425006  0.00364089  0.47177379  1
  O  O374  1  0.09493258  0.49158759  -0.00776536  1
  O  O375  1  0.13183271  0.52397450  0.51355736  1
  O  O376  1  0.63031821  0.00288174  0.00359937  1
  O  O377  1  0.66360785  -0.01413410  0.51133426  1
  O  O378  1  0.61960364  0.51899477  -0.00618370  1
  O  O379  1  0.62413680  0.53886464  0.46830162  1
  O  O380  1  0.38582302  0.36941248  0.11978228  1
  O  O381  1  0.37471334  0.34767471  0.61233311  1
  O  O382  1  0.38690112  0.85600731  0.12358378  1
  O  O383  1  0.36126712  0.87535085  0.64895726  1
  O  O384  1  0.85518253  0.38789937  0.13276288  1
  O  O385  1  0.85313528  0.38825422  0.63082971  1
  O  O386  1  0.86892035  0.86340721  0.11715206  1
  O  O387  1  0.86612820  0.87101464  0.59903591  1
  O  O388  1  0.11356429  0.14197355  0.37375275  1
  O  O389  1  0.13625566  0.11753932  0.88623146  1
  O  O390  1  0.13798342  0.61038002  0.37617948  1
  O  O391  1  0.14838659  0.63375868  0.86810287  1
  O  O392  1  0.64609963  0.11193163  0.37358677  1
  O  O393  1  0.62636603  0.12362601  0.90359469  1
  O  O394  1  0.65914861  0.69842915  0.40635802  1
  O  O395  1  0.63162360  0.64017760  0.87453667  1
