# generated using pymatgen
data_V35Zn35O128
_symmetry_space_group_name_H-M   'P 1'
_cell_length_a   16.96368287
_cell_length_b   16.93900143
_cell_length_c   16.95042888
_cell_angle_alpha   90.02532565
_cell_angle_beta   89.98434026
_cell_angle_gamma   89.78451663
_symmetry_Int_Tables_number   1
_chemical_formula_structural   V35Zn35O128
_chemical_formula_sum   'V70 Zn70 O256'
_cell_volume   4870.63416390
_cell_formula_units_Z   2
loop_
 _symmetry_equiv_pos_site_id
 _symmetry_equiv_pos_as_xyz
  1  'x, y, z'
loop_
 _atom_site_type_symbol
 _atom_site_label
 _atom_site_symmetry_multiplicity
 _atom_site_fract_x
 _atom_site_fract_y
 _atom_site_fract_z
 _atom_site_occupancy
  V  V0  1  0.74655601  0.87102350  0.62002992  1
  V  V1  1  0.49401235  0.12278220  0.62609652  1
  V  V2  1  0.62353654  0.87423692  0.74699709  1
  V  V3  1  0.74343751  0.01838444  0.75517420  1
  V  V4  1  0.61906913  0.12405258  0.49805871  1
  V  V5  1  0.89492739  0.50617168  0.88690005  1
  V  V6  1  0.61428245  0.00050250  0.61660127  1
  V  V7  1  0.50051952  0.87256097  0.87561749  1
  V  V8  1  0.87325697  0.90057240  -0.00991271  1
  V  V9  1  0.35624482  0.49770493  0.34878477  1
  V  V10  1  0.87674131  0.37709399  0.50977855  1
  V  V11  1  0.62101961  0.01921884  0.11655570  1
  V  V12  1  0.61457504  0.62254494  0.00815113  1
  V  V13  1  0.50631483  0.24303798  0.24477119  1
  V  V14  1  0.09030250  0.75041078  0.36537197  1
  V  V15  1  0.36329774  0.38223589  0.50228983  1
  V  V16  1  0.88664276  0.75369882  0.13506702  1
  V  V17  1  0.76688941  0.50957182  0.24933047  1
  V  V18  1  0.75778906  0.75169645  0.00311459  1
  V  V19  1  0.36692786  0.87217344  0.00565076  1
  V  V20  1  0.37747075  0.73376215  0.11785465  1
  V  V21  1  0.50456011  0.73676878  0.23668554  1
  V  V22  1  0.39711145  0.35929644  -0.00999605  1
  V  V23  1  0.50015001  0.37798912  0.37416532  1
  V  V24  1  0.88022254  0.62656490  0.73475351  1
  V  V25  1  -0.00383826  0.38081293  0.37759257  1
  V  V26  1  0.37184929  0.24098841  0.12544805  1
  V  V27  1  0.36096065  0.86825161  0.49457596  1
  V  V28  1  0.75379514  0.25832726  0.50945520  1
  V  V29  1  0.50947486  0.72376392  0.74015111  1
  V  V30  1  -0.00298278  0.24806297  0.24362803  1
  V  V31  1  0.55844867  0.70235920  0.42417196  1
  V  V32  1  0.36487327  0.24633451  0.62154470  1
  V  V33  1  0.86884451  0.88813514  0.48733276  1
  V  V34  1  0.36809839  0.11651049  0.25132965  1
  V  V35  1  0.12670973  0.23766948  0.37840570  1
  V  V36  1  0.62970246  0.74831505  0.87827751  1
  V  V37  1  0.00269048  0.51677220  0.50145645  1
  V  V38  1  0.76563021  0.62543899  0.37362752  1
  V  V39  1  0.61755786  0.87541576  0.24585797  1
  V  V40  1  0.76151870  0.48259806  0.73719883  1
  V  V41  1  0.36583762  0.61803328  0.75497886  1
  V  V42  1  0.24183815  0.47207387  0.75559887  1
  V  V43  1  0.02642265  0.60971927  0.11981015  1
  V  V44  1  0.24790609  0.22714794  0.49580941  1
  V  V45  1  0.20484867  0.88185441  0.65524662  1
  V  V46  1  0.13655467  0.38502353  0.25127893  1
  V  V47  1  0.13226726  0.00568057  0.14139337  1
  V  V48  1  0.35728789  0.11626957  0.74337630  1
  V  V49  1  0.50375649  0.01371163  0.00124230  1
  V  V50  1  0.37152231  -0.00241663  0.86466141  1
  V  V51  1  0.12828973  0.49838696  0.62647818  1
  V  V52  1  0.62623976  0.25373030  0.37162936  1
  V  V53  1  0.75913843  0.37457528  0.13172381  1
  V  V54  1  0.60015390  0.38495954  0.70883955  1
  V  V55  1  0.88966843  0.37853251  0.00094909  1
  V  V56  1  0.74597795  0.74388779  0.49781305  1
  V  V57  1  0.74805931  0.88191088  0.12339450  1
  V  V58  1  -0.00882079  0.12742870  0.63486185  1
  V  V59  1  0.88084583  0.13180515  0.23921980  1
  V  V60  1  0.35831941  0.00484525  0.37667681  1
  V  V61  1  0.76114833  0.12805002  0.37669726  1
  V  V62  1  0.22808179  0.23894772  -0.01680517  1
  V  V63  1  0.23381376  0.62915100  0.88490904  1
  V  V64  1  0.75613072  0.61713371  0.87835947  1
  V  V65  1  0.75268001  0.00614732  0.25013445  1
  V  V66  1  0.01492890  0.75248181  0.74455454  1
  V  V67  1  0.51069353  0.89564054  0.37651450  1
  V  V68  1  0.61834523  0.50230088  0.13233670  1
  V  V69  1  0.74842786  0.25718756  -0.02412532  1
  Zn  Zn70  1  0.16127315  0.64344946  0.49162604  1
  Zn  Zn71  1  0.62564965  0.28454066  0.86644646  1
  Zn  Zn72  1  0.05396127  0.17702824  0.06672170  1
  Zn  Zn73  1  0.15312059  0.87229676  0.25517947  1
  Zn  Zn74  1  0.25257488  0.37035790  0.12346261  1
  Zn  Zn75  1  0.01700184  0.02130182  0.00659403  1
  Zn  Zn76  1  0.18767476  0.18652518  0.19583811  1
  Zn  Zn77  1  0.15162025  0.07559638  0.77000153  1
  Zn  Zn78  1  0.18423849  0.71142002  0.18013668  1
  Zn  Zn79  1  0.19362143  0.68824967  0.66596499  1
  Zn  Zn80  1  0.69404721  0.19131675  0.18568985  1
  Zn  Zn81  1  0.67665659  0.20179580  0.69171584  1
  Zn  Zn82  1  0.69311694  0.68873475  0.18683682  1
  Zn  Zn83  1  0.73128774  0.71166725  0.71305732  1
  Zn  Zn84  1  0.31429533  0.30683630  0.31642841  1
  Zn  Zn85  1  0.30826329  0.29442870  0.81554377  1
  Zn  Zn86  1  0.33572337  0.80158655  0.32274142  1
  Zn  Zn87  1  0.19670467  0.80099232  0.82026032  1
  Zn  Zn88  1  0.81377629  0.31706881  0.31459560  1
  Zn  Zn89  1  0.87100875  0.32241228  0.79474661  1
  Zn  Zn90  1  0.80309727  0.81030682  0.31327939  1
  Zn  Zn91  1  0.87218737  0.78032992  0.85031297  1
  Zn  Zn92  1  0.18380245  0.43595803  0.43554802  1
  Zn  Zn93  1  0.25116593  0.44362340  0.94355727  1
  Zn  Zn94  1  0.14830845  0.88475654  0.47807002  1
  Zn  Zn95  1  0.17935372  0.95961970  0.93674358  1
  Zn  Zn96  1  0.69072321  0.44024363  0.43301326  1
  Zn  Zn97  1  0.70048782  0.44522602  0.95090927  1
  Zn  Zn98  1  0.69357759  0.94036995  0.43288555  1
  Zn  Zn99  1  0.69066577  0.94366430  0.93566314  1
  Zn  Zn100  1  0.31040388  0.06391647  0.05943744  1
  Zn  Zn101  1  0.30082343  0.04286295  0.56312633  1
  Zn  Zn102  1  0.34643680  0.55275865  0.04456119  1
  Zn  Zn103  1  0.31337046  0.56003244  0.58233422  1
  Zn  Zn104  1  0.86048953  0.10730705  0.03114229  1
  Zn  Zn105  1  0.80109792  0.06234306  0.56767131  1
  Zn  Zn106  1  0.82038285  0.56976059  0.06689838  1
  Zn  Zn107  1  0.81346682  0.55912214  0.55433095  1
  Zn  Zn108  1  0.43886108  0.42548308  0.18633174  1
  Zn  Zn109  1  0.41437950  0.45283817  0.67978824  1
  Zn  Zn110  1  0.31154530  0.93060176  0.18715289  1
  Zn  Zn111  1  0.43277148  0.92405969  0.67752146  1
  Zn  Zn112  1  0.94441313  0.44536540  0.18842434  1
  Zn  Zn113  1  0.94686174  0.44409744  0.68365924  1
  Zn  Zn114  1  0.93248192  0.95268493  0.17400770  1
  Zn  Zn115  1  0.92023981  0.92821447  0.69201083  1
  Zn  Zn116  1  0.14262601  0.02486155  0.35862105  1
  Zn  Zn117  1  0.06654124  -0.08131675  0.81202858  1
  Zn  Zn118  1  0.06402619  0.57657143  0.30331553  1
  Zn  Zn119  1  0.06746576  0.56982535  0.80975920  1
  Zn  Zn120  1  0.56774982  0.06874699  0.30694035  1
  Zn  Zn121  1  0.55675962  0.06009537  0.80653589  1
  Zn  Zn122  1  0.56419287  0.55457887  0.30781480  1
  Zn  Zn123  1  0.58418951  0.54639493  0.81594831  1
  Zn  Zn124  1  0.43768576  0.18657243  0.43471729  1
  Zn  Zn125  1  0.43388576  0.19357697  0.92148444  1
  Zn  Zn126  1  0.36863359  0.66455910  0.45766573  1
  Zn  Zn127  1  0.43202024  0.68734067  0.92837601  1
  Zn  Zn128  1  0.94212915  0.18991629  0.44199993  1
  Zn  Zn129  1  0.93966354  0.20736472  0.91843968  1
  Zn  Zn130  1  0.92796366  0.69817672  0.43707255  1
  Zn  Zn131  1  1.04128660  0.70002983  0.93963769  1
  Zn  Zn132  1  0.07231890  0.41818057  0.06271960  1
  Zn  Zn133  1  0.07099259  0.31365076  0.56214646  1
  Zn  Zn134  1  0.05835861  0.84794200  0.06496866  1
  Zn  Zn135  1  0.03921864  0.79672273  0.55925995  1
  Zn  Zn136  1  0.57560003  0.31501383  0.06883070  1
  Zn  Zn137  1  0.54827956  0.30462974  0.55176307  1
  Zn  Zn138  1  0.56216819  0.81928178  0.06151173  1
  Zn  Zn139  1  0.55493302  0.81100495  0.56294649  1
  O  O140  1  0.12325422  0.11671575  0.13747446  1
  O  O141  1  0.08994167  0.10508310  0.66115420  1
  O  O142  1  0.12302131  0.63977316  0.11961403  1
  O  O143  1  0.13954622  0.60940234  0.60600834  1
  O  O144  1  0.63204668  0.11755987  0.12470439  1
  O  O145  1  0.61321804  0.12234712  0.61761463  1
  O  O146  1  0.62890963  0.62103554  0.11556509  1
  O  O147  1  0.62362598  0.54119632  0.55312013  1
  O  O148  1  0.37898828  0.38290041  0.37995939  1
  O  O149  1  0.39328013  0.31363889  0.89434927  1
  O  O150  1  0.39732935  0.89936038  0.36667874  1
  O  O151  1  0.39113065  0.88485771  0.88034598  1
  O  O152  1  0.89206338  0.37117389  0.38089483  1
  O  O153  1  0.87850178  0.39845055  0.88988536  1
  O  O154  1  0.85124597  0.87810828  0.38762082  1
  O  O155  1  0.85570709  0.88336884  0.89163753  1
  O  O156  1  0.26181060  0.00053092  0.36878375  1
  O  O157  1  0.27468961  -0.00485374  0.87721372  1
  O  O158  1  0.25859388  0.49609212  0.37333914  1
  O  O159  1  0.22265681  0.51154058  0.85652637  1
  O  O160  1  0.73945963  0.01647979  0.35866544  1
  O  O161  1  0.72344693  0.01070681  0.85459595  1
  O  O162  1  0.74330023  0.51271264  0.36070628  1
  O  O163  1  0.75723858  0.50675098  0.87086602  1
  O  O164  1  0.26224245  0.49051987  0.10993609  1
  O  O165  1  0.24055839  0.49180972  0.64476217  1
  O  O166  1  0.24512240  1.00472080  0.12930684  1
  O  O167  1  0.26002742  0.96652646  0.63541065  1
  O  O168  1  0.75156919  0.50333893  0.13743343  1
  O  O169  1  0.76437604  0.49561508  0.63804552  1
  O  O170  1  0.73660035  0.99485089  0.13339898  1
  O  O171  1  0.73027512  0.99187421  0.63094055  1
  O  O172  1  0.00293447  0.36739126  0.26249340  1
  O  O173  1  -0.03198663  0.36271660  0.75265964  1
  O  O174  1  -0.01221226  0.90767750  0.28591573  1
  O  O175  1  -0.00558589  0.86346542  0.74877676  1
  O  O176  1  0.49242432  0.35476314  0.26623646  1
  O  O177  1  0.50290203  0.40071005  0.72572250  1
  O  O178  1  0.51586369  0.87987245  0.25412074  1
  O  O179  1  0.50884025  0.86263128  0.75414158  1
  O  O180  1  0.49212953  0.13801825  0.25452799  1
  O  O181  1  0.48746528  0.11649320  0.72918692  1
  O  O182  1  0.51500762  0.63924375  0.24451513  1
  O  O183  1  0.52350610  0.62486090  0.75943545  1
  O  O184  1  0.98520869  0.13914258  0.25815649  1
  O  O185  1  0.96303527  0.15074122  0.73137364  1
  O  O186  1  1.00095988  0.62307495  0.22024136  1
  O  O187  1  0.98412814  0.63286316  0.75007964  1
  O  O188  1  0.39548835  0.24106249  0.02443984  1
  O  O189  1  0.36089480  0.24737532  0.49718335  1
  O  O190  1  0.38984721  0.76227182  0.00676339  1
  O  O191  1  0.36175253  0.77787516  0.43676181  1
  O  O192  1  0.86800094  0.27537502  -0.01415567  1
  O  O193  1  0.86115573  0.25907519  0.49488289  1
  O  O194  1  0.86074524  0.77285151  0.00700149  1
  O  O195  1  0.84973693  0.75776959  0.49852037  1
  O  O196  1  0.13805756  0.25212834  0.49019722  1
  O  O197  1  0.13243616  0.24277877  1.01494248  1
  O  O198  1  0.11287826  0.75492410  0.48044951  1
  O  O199  1  0.10694681  0.79629099  0.96972925  1
  O  O200  1  0.63388311  0.24418274  0.49030941  1
  O  O201  1  0.64444660  0.26841528  0.99257857  1
  O  O202  1  0.62663397  0.75112220  0.48796584  1
  O  O203  1  0.63345193  0.74349289  0.99557293  1
  O  O204  1  0.50409648  0.25591441  0.14242902  1
  O  O205  1  0.47839922  0.23344617  0.61239844  1
  O  O206  1  0.50044994  0.75476539  0.13109990  1
  O  O207  1  0.52427009  0.73720405  0.64312304  1
  O  O208  1  1.00386053  0.25292065  0.14605425  1
  O  O209  1  1.01398788  0.22988096  0.62127585  1
  O  O210  1  0.98424807  0.77547432  0.12100652  1
  O  O211  1  0.98884480  0.74726532  0.64684439  1
  O  O212  1  0.01141811  0.25763338  0.37754708  1
  O  O213  1  0.04419287  0.25514099  0.87438647  1
  O  O214  1  -0.00980379  0.75587740  0.36416930  1
  O  O215  1  -0.01693373  0.74676866  0.85082860  1
  O  O216  1  0.50948226  0.25185676  0.36795065  1
  O  O217  1  0.53369999  0.21264179  0.86126999  1
  O  O218  1  0.51208214  0.76512191  0.34993458  1
  O  O219  1  0.51283243  0.75376012  0.86732175  1
  O  O220  1  0.24945262  0.12770780  0.50074401  1
  O  O221  1  0.26778061  0.14582629  0.99702966  1
  O  O222  1  0.27501178  0.63919350  0.51559780  1
  O  O223  1  0.26760418  0.60932605  0.97639877  1
  O  O224  1  0.74386469  0.13983295  0.49468799  1
  O  O225  1  0.76679512  0.15980916  0.99611929  1
  O  O226  1  0.75138161  0.62671833  0.48503434  1
  O  O227  1  0.74809601  0.63544252  0.99640779  1
  O  O228  1  0.26898264  0.34269504  0.00227079  1
  O  O229  1  0.26207255  0.36474545  0.49147458  1
  O  O230  1  0.27128234  0.87981519  -0.01148727  1
  O  O231  1  0.26303806  0.87341537  0.50572310  1
  O  O232  1  0.76392623  0.37401403  0.01324833  1
  O  O233  1  0.76344847  0.36905123  0.48989984  1
  O  O234  1  0.74346464  0.87106831  0.00899129  1
  O  O235  1  0.74301098  0.86615263  0.50462977  1
  O  O236  1  0.12205240  0.48310881  0.26265997  1
  O  O237  1  0.12404237  0.50550684  0.73377520  1
  O  O238  1  0.13583842  0.99778871  0.24882993  1
  O  O239  1  0.10722643  1.01330664  0.85069329  1
  O  O240  1  0.64004857  0.50682409  0.23534053  1
  O  O241  1  0.64886175  0.47486337  0.74704473  1
  O  O242  1  0.62985038  0.99949782  0.23495503  1
  O  O243  1  0.62300201  0.99156149  0.73718948  1
  O  O244  1  0.37523322  0.01185555  0.25582039  1
  O  O245  1  0.38541484  -0.00290889  0.75701570  1
  O  O246  1  0.36626262  0.48719389  0.24873281  1
  O  O247  1  0.34361700  0.48794922  0.76752559  1
  O  O248  1  0.86228374  0.01801004  0.24302248  1
  O  O249  1  0.83926959  -0.01085165  0.74338172  1
  O  O250  1  0.86594889  0.50702047  0.24831251  1
  O  O251  1  0.87450019  0.51289641  0.76181993  1
  O  O252  1  0.11499874  0.36464162  0.36927552  1
  O  O253  1  0.16098070  0.48025362  1.01513603  1
  O  O254  1  0.13034062  0.85211027  0.36944621  1
  O  O255  1  0.12485378  0.85039483  0.90540993  1
  O  O256  1  0.61152421  0.36501248  0.38331993  1
  O  O257  1  0.60767980  0.40270606  0.89251820  1
  O  O258  1  0.62350591  0.88617665  0.35576199  1
  O  O259  1  0.61999776  0.86629804  0.86853709  1
  O  O260  1  0.37950296  0.13178517  0.14023216  1
  O  O261  1  0.37418559  0.11823144  0.62815056  1
  O  O262  1  0.39157625  0.63461457  0.10551645  1
  O  O263  1  0.39892269  0.57053647  0.66266204  1
  O  O264  1  0.87193722  0.13798096  0.14187828  1
  O  O265  1  0.88627036  0.13287038  0.61353993  1
  O  O266  1  0.87476033  0.65261013  0.12153214  1
  O  O267  1  0.86903924  0.61887873  0.63664950  1
  O  O268  1  0.26767156  0.24623385  0.12904732  1
  O  O269  1  0.26004684  0.24535764  0.60424759  1
  O  O270  1  0.27838423  0.74177690  0.12678618  1
  O  O271  1  0.24758441  0.78835292  0.65563972  1
  O  O272  1  0.75038344  0.27374954  0.13222934  1
  O  O273  1  0.74196765  0.25287870  0.60710278  1
  O  O274  1  0.75268984  0.76416974  0.11927913  1
  O  O275  1  0.72906279  0.75942897  0.61082946  1
  O  O276  1  0.23900600  0.24706772  0.38377951  1
  O  O277  1  0.23001240  0.24668993  0.88274352  1
  O  O278  1  0.26968604  0.68093066  0.32834304  1
  O  O279  1  0.25963725  0.72722168  0.87290985  1
  O  O280  1  0.74179444  0.24764709  0.37777423  1
  O  O281  1  0.74530286  0.27061602  0.87597920  1
  O  O282  1  0.74394385  0.73219391  0.37814633  1
  O  O283  1  0.74384732  0.74046964  0.88422120  1
  O  O284  1  -0.02733682  0.12958507  -0.00176084  1
  O  O285  1  0.00132492  0.12645541  0.52712171  1
  O  O286  1  -0.00170438  0.64098420  0.02406838  1
  O  O287  1  -0.01317800  0.61379873  0.49233737  1
  O  O288  1  0.49213310  0.11000740  -0.01021465  1
  O  O289  1  0.51350657  0.12827394  0.50209740  1
  O  O290  1  0.51727545  0.62937308  -0.00822188  1
  O  O291  1  0.48555199  0.66921992  0.48264814  1
  O  O292  1  0.47838266  0.35966429  0.47959712  1
  O  O293  1  0.49378108  0.36825292  1.00936553  1
  O  O294  1  0.50820638  0.86879723  0.47422908  1
  O  O295  1  0.50041913  0.88276720  0.98821400  1
  O  O296  1  0.99230898  0.36999064  0.49166978  1
  O  O297  1  0.98895684  0.37069658  1.00552828  1
  O  O298  1  0.96623384  0.86785359  0.50382467  1
  O  O299  1  0.97662733  0.90748917  0.99644802  1
  O  O300  1  0.49757829  0.47836643  0.36158263  1
  O  O301  1  0.54651728  0.45489983  0.88044097  1
  O  O302  1  0.51115148  0.99678455  0.37620803  1
  O  O303  1  0.50090383  0.99069033  0.88216499  1
  O  O304  1  1.00680916  0.48536462  0.38703082  1
  O  O305  1  0.99276690  0.51292626  0.87761906  1
  O  O306  1  0.99251353  0.95470507  0.34205171  1
  O  O307  1  0.94962356  1.04384065  0.85129842  1
  O  O308  1  0.01669267  0.00632886  0.12831053  1
  O  O309  1  -0.02222462  0.02389544  0.64326866  1
  O  O310  1  0.01390178  0.50259735  0.11772162  1
  O  O311  1  0.00891527  0.50481851  0.60996037  1
  O  O312  1  0.51478799  0.00519083  0.10949580  1
  O  O313  1  0.50808449  0.00324840  0.62009111  1
  O  O314  1  0.51976372  0.49006763  0.13472360  1
  O  O315  1  0.56769318  0.56061897  0.59889303  1
  O  O316  1  0.23837033  0.36650475  0.25428092  1
  O  O317  1  0.23925760  0.37353729  0.76594716  1
  O  O318  1  0.26623892  0.85671080  0.25641531  1
  O  O319  1  0.17463922  0.89313276  0.75591935  1
  O  O320  1  0.76082824  0.39180348  0.24111341  1
  O  O321  1  0.78338545  0.38595217  0.75069094  1
  O  O322  1  0.73990142  0.88698211  0.24244327  1
  O  O323  1  0.72788825  0.87119595  0.73603639  1
  O  O324  1  0.27082768  0.13572590  0.25817833  1
  O  O325  1  0.26024151  0.09943475  0.74273959  1
  O  O326  1  0.25497474  0.64049090  0.26795167  1
  O  O327  1  0.26197604  0.62598274  0.75235624  1
  O  O328  1  0.76050224  0.12757696  0.25752395  1
  O  O329  1  0.73690850  0.11746525  0.73559989  1
  O  O330  1  0.74747723  0.62016242  0.26086670  1
  O  O331  1  0.75409167  0.60798801  0.76030422  1
  O  O332  1  0.38434045  0.11044809  0.36713777  1
  O  O333  1  0.38335244  0.11059530  0.85256990  1
  O  O334  1  0.38825240  0.59051503  0.37174966  1
  O  O335  1  0.38079302  0.61115548  0.85799045  1
  O  O336  1  0.86419438  0.13206035  0.37573977  1
  O  O337  1  0.88529207  0.07654298  0.86255786  1
  O  O338  1  0.86344493  0.62384674  0.37241551  1
  O  O339  1  0.86509376  0.61560091  0.87329873  1
  O  O340  1  0.13242329  0.36954772  0.14669692  1
  O  O341  1  0.12306287  0.39718399  0.61398991  1
  O  O342  1  0.12655903  0.89198239  0.14198519  1
  O  O343  1  0.11969242  0.87881412  0.59705673  1
  O  O344  1  0.64785715  0.39580928  0.11793506  1
  O  O345  1  0.61381936  0.37665868  0.61056401  1
  O  O346  1  0.63018466  0.88731297  0.13105046  1
  O  O347  1  0.62128818  0.88352446  0.62675918  1
  O  O348  1  0.11439720  0.25610573  0.26341886  1
  O  O349  1  0.12683941  0.19263050  0.79174710  1
  O  O350  1  0.11971909  0.75303060  0.26202814  1
  O  O351  1  0.11522592  0.73697604  0.74888446  1
  O  O352  1  0.61638241  0.24257468  0.25909419  1
  O  O353  1  0.62914238  0.29073739  0.74694596  1
  O  O354  1  0.62137086  0.76911518  0.23547566  1
  O  O355  1  0.62695413  0.75181152  0.76326564  1
  O  O356  1  0.38672687  0.24186076  0.24498515  1
  O  O357  1  0.35929278  0.22542719  0.73625105  1
  O  O358  1  0.39828129  0.74959140  0.23294449  1
  O  O359  1  0.40148138  0.71828501  0.74305171  1
  O  O360  1  0.88635359  0.24525468  0.25880248  1
  O  O361  1  0.89714095  0.21523741  0.81346386  1
  O  O362  1  0.86892361  0.76785659  0.23314587  1
  O  O363  1  0.84859423  0.72780815  0.75105009  1
  O  O364  1  0.36935993  0.48148261  0.50768656  1
  O  O365  1  0.36615151  0.46060882  0.97808123  1
  O  O366  1  0.36977044  0.98635216  0.48358786  1
  O  O367  1  0.38908405  0.99223831  0.99105217  1
  O  O368  1  0.88953230  0.48641378  0.50066032  1
  O  O369  1  0.87625927  0.49894592  0.99318295  1
  O  O370  1  0.85456012  0.98835317  0.50099073  1
  O  O371  1  0.84642143  0.99670055  1.00376107  1
  O  O372  1  0.12808267  0.00231606  0.02595561  1
  O  O373  1  0.11701879  -0.00835359  0.46080017  1
  O  O374  1  0.19035848  0.52030365  0.08357702  1
  O  O375  1  0.11214329  0.50403024  0.50049400  1
  O  O376  1  0.61793901  0.00162274  0.00728685  1
  O  O377  1  0.63711758  0.01471104  0.50601435  1
  O  O378  1  0.63481215  0.51781648  0.01471566  1
  O  O379  1  0.60324794  0.49069237  0.49207492  1
  O  O380  1  0.37652232  0.35686186  0.11709005  1
  O  O381  1  0.37914230  0.36118102  0.60946806  1
  O  O382  1  0.37825875  0.87380725  0.10783592  1
  O  O383  1  0.40096291  0.85949115  0.58874198  1
  O  O384  1  0.86830013  0.38979718  0.11429315  1
  O  O385  1  0.88235696  0.37224347  0.60730045  1
  O  O386  1  0.86142682  0.87906734  0.11535279  1
  O  O387  1  0.84927822  0.87668518  0.61563205  1
  O  O388  1  0.11972869  0.14014438  0.37105407  1
  O  O389  1  0.07476247  0.18738563  0.84983564  1
  O  O390  1  0.11666161  0.64436605  0.37873054  1
  O  O391  1  0.12853299  0.63498883  0.88429787  1
  O  O392  1  0.63499267  0.13528052  0.38074872  1
  O  O393  1  0.59206155  0.15162105  0.86599020  1
  O  O394  1  0.61236919  0.62706147  0.38179255  1
  O  O395  1  0.63693103  0.62795618  0.88826868  1
