# generated using pymatgen
data_V35Zn35O128
_symmetry_space_group_name_H-M   'P 1'
_cell_length_a   16.87440913
_cell_length_b   16.87353652
_cell_length_c   16.87265567
_cell_angle_alpha   89.83544424
_cell_angle_beta   90.15003493
_cell_angle_gamma   90.05030757
_symmetry_Int_Tables_number   1
_chemical_formula_structural   V35Zn35O128
_chemical_formula_sum   'V70 Zn70 O256'
_cell_volume   4804.12932111
_cell_formula_units_Z   2
loop_
 _symmetry_equiv_pos_site_id
 _symmetry_equiv_pos_as_xyz
  1  'x, y, z'
loop_
 _atom_site_type_symbol
 _atom_site_label
 _atom_site_symmetry_multiplicity
 _atom_site_fract_x
 _atom_site_fract_y
 _atom_site_fract_z
 _atom_site_occupancy
  V  V0  1  0.37641539  0.63429178  0.24913832  1
  V  V1  1  0.50196075  0.12449477  0.63664593  1
  V  V2  1  0.38994738  0.37438381  0.00926415  1
  V  V3  1  0.74583994  0.49457578  0.73705589  1
  V  V4  1  0.88666292  0.62593935  0.24072231  1
  V  V5  1  0.50399608  0.38712810  0.37342371  1
  V  V6  1  -0.01413026  0.48724492  0.00903723  1
  V  V7  1  0.00479516  0.63652399  0.11960925  1
  V  V8  1  0.74268574  0.74660461  0.01493370  1
  V  V9  1  0.63359619  0.74454122  0.38132746  1
  V  V10  1  0.12042237  0.37860046  0.25337760  1
  V  V11  1  -0.02202393  -0.00060056  0.00078567  1
  V  V12  1  0.50820486  0.61013059  0.11732294  1
  V  V13  1  0.49782717  0.64767541  0.63234333  1
  V  V14  1  0.76757821  0.62102581  0.38337248  1
  V  V15  1  0.74153650  0.49565730  0.24747266  1
  V  V16  1  -0.00335609  0.87258653  0.37458313  1
  V  V17  1  0.62311374  0.86630570  0.24965704  1
  V  V18  1  0.61515521  -0.01136383  0.12253669  1
  V  V19  1  0.87861887  0.00540297  0.38450364  1
  V  V20  1  0.75887675  0.36080157  0.61574002  1
  V  V21  1  0.60528841  0.48963606  0.62355368  1
  V  V22  1  0.38411630  0.89735243  0.00184452  1
  V  V23  1  0.50760303  0.86335783  0.86331539  1
  V  V24  1  0.36708794  0.23460734  0.64879790  1
  V  V25  1  0.13226840  0.11522747  0.00257068  1
  V  V26  1  0.50150783  0.13766635  0.13241701  1
  V  V27  1  0.50509679  0.36566617  0.84873482  1
  V  V28  1  0.25212563  0.25631544  -0.00738070  1
  V  V29  1  0.37312946  0.01449023  0.85018294  1
  V  V30  1  0.76128737  0.11323815  0.88065467  1
  V  V31  1  0.61895699  0.62191304  0.50308043  1
  V  V32  1  0.87252831  0.49988910  0.86226829  1
  V  V33  1  0.24894911  0.12807952  0.38782247  1
  V  V34  1  0.38003501  0.64088862  0.75848493  1
  V  V35  1  0.88473658  0.13001616  0.73190165  1
  V  V36  1  0.62096037  0.12789067  0.00034068  1
  V  V37  1  0.01287429  0.37604580  0.86094083  1
  V  V38  1  0.75692812  -0.00931642  0.24770545  1
  V  V39  1  -0.00528431  0.24241441  0.24253962  1
  V  V40  1  0.74226710  -0.00391484  0.74649503  1
  V  V41  1  0.12867501  0.25083290  0.37913487  1
  V  V42  1  0.73721021  0.87736913  0.62279652  1
  V  V43  1  0.37641978  0.14014301  0.24559871  1
  V  V44  1  0.62812602  0.13177667  0.50285010  1
  V  V45  1  0.24682295  0.63862742  0.38633848  1
  V  V46  1  0.24372183  -0.00174312  0.23609211  1
  V  V47  1  -0.01842959  0.88048963  0.86843823  1
  V  V48  1  0.49875117  0.86504811  0.37012819  1
  V  V49  1  0.36380962  0.86667842  0.50672860  1
  V  V50  1  0.12591261  0.74838393  0.89232681  1
  V  V51  1  0.37471821  -0.00269617  0.37163346  1
  V  V52  1  0.87124628  0.86692473  0.50080469  1
  V  V53  1  0.38150384  0.49547441  0.86827885  1
  V  V54  1  0.12709459  0.86926063  0.23966765  1
  V  V55  1  0.87538504  0.74770073  0.63783594  1
  V  V56  1  0.25391855  0.36881940  0.12884763  1
  V  V57  1  0.12549296  0.75513214  0.39401368  1
  V  V58  1  0.36811345  0.74849837  0.10563649  1
  V  V59  1  0.62283486  0.24274808  0.85810089  1
  V  V60  1  0.36791859  0.34666292  0.50060740  1
  V  V61  1  0.13369768  0.50256764  0.11183825  1
  V  V62  1  0.50707444  -0.00173200  0.50316734  1
  V  V63  1  0.35371199  0.50417168  0.38377651  1
  V  V64  1  0.11856907  0.25116095  0.86497751  1
  V  V65  1  0.03684356  0.59598713  0.62459991  1
  V  V66  1  0.61453892  0.25046329  0.36104268  1
  V  V67  1  0.05852055  0.06028259  0.55699273  1
  V  V68  1  0.72705410  0.62781601  0.87479040  1
  V  V69  1  0.75191317  0.13339050  0.37180894  1
  Zn  Zn70  1  0.12382477  0.87244742  0.75297495  1
  Zn  Zn71  1  0.22530451  0.48714194  0.74904626  1
  Zn  Zn72  1  0.86958328  0.85952095  0.01922549  1
  Zn  Zn73  1  0.81301883  0.31402005  0.05883176  1
  Zn  Zn74  1  -0.00539722  0.11528171  0.13217818  1
  Zn  Zn75  1  -0.00346275  0.73893940  0.75243200  1
  Zn  Zn76  1  0.18374335  0.18636212  0.18413512  1
  Zn  Zn77  1  0.15002753  0.22638905  0.65005923  1
  Zn  Zn78  1  0.19327166  0.68545375  0.19076668  1
  Zn  Zn79  1  0.17408233  0.65761914  0.73849340  1
  Zn  Zn80  1  0.69372222  0.18013600  0.18615920  1
  Zn  Zn81  1  0.69473732  0.18090707  0.68948270  1
  Zn  Zn82  1  0.68661430  0.67624292  0.19581768  1
  Zn  Zn83  1  0.69011059  0.68679322  0.69167790  1
  Zn  Zn84  1  0.30903567  0.31858624  0.31701535  1
  Zn  Zn85  1  0.30795152  0.31533384  0.81368275  1
  Zn  Zn86  1  0.31051031  0.81183957  0.30832342  1
  Zn  Zn87  1  0.31707330  0.78412437  0.89973716  1
  Zn  Zn88  1  0.81025279  0.31461253  0.21950483  1
  Zn  Zn89  1  0.84434703  0.28380345  0.85894016  1
  Zn  Zn90  1  0.81872208  0.80352791  0.19467041  1
  Zn  Zn91  1  0.79933984  0.80907865  0.81352937  1
  Zn  Zn92  1  0.21003942  0.39233437  0.60979004  1
  Zn  Zn93  1  0.18754924  0.57282227  0.90994871  1
  Zn  Zn94  1  0.18579096  0.94303203  0.43385300  1
  Zn  Zn95  1  0.19930047  0.92935017  0.93102415  1
  Zn  Zn96  1  0.68715318  0.43632893  0.43701592  1
  Zn  Zn97  1  0.67590141  0.44016448  0.91668586  1
  Zn  Zn98  1  0.69049864  0.93612942  0.43447277  1
  Zn  Zn99  1  0.68827035  0.93089876  0.94195830  1
  Zn  Zn100  1  0.31324426  0.07109022  0.06054365  1
  Zn  Zn101  1  0.31251481  0.05524201  0.57215177  1
  Zn  Zn102  1  0.32028768  0.55748128  0.05519559  1
  Zn  Zn103  1  0.31149068  0.57230918  0.56748191  1
  Zn  Zn104  1  0.80749547  0.06455919  0.07189833  1
  Zn  Zn105  1  0.81292736  0.06318952  0.56408740  1
  Zn  Zn106  1  0.80754283  0.56265654  0.06111532  1
  Zn  Zn107  1  0.81044478  0.56706891  0.55927710  1
  Zn  Zn108  1  0.42995539  0.44168679  0.20223411  1
  Zn  Zn109  1  0.36194443  0.42914950  0.67882023  1
  Zn  Zn110  1  0.43533460  0.93349957  0.18569880  1
  Zn  Zn111  1  0.43485195  0.92899675  0.69141027  1
  Zn  Zn112  1  0.93391914  0.44311175  0.19948457  1
  Zn  Zn113  1  0.93999864  0.43478299  0.67842305  1
  Zn  Zn114  1  0.94580218  0.93879644  0.18851103  1
  Zn  Zn115  1  0.93298086  0.95215756  0.68807374  1
  Zn  Zn116  1  0.06431602  0.06407262  0.31781557  1
  Zn  Zn117  1  0.06110164  0.06845206  0.81977607  1
  Zn  Zn118  1  0.07843894  0.56953078  0.30296235  1
  Zn  Zn119  1  0.03937964  0.57360659  0.81642181  1
  Zn  Zn120  1  0.56386031  0.05801481  0.31128969  1
  Zn  Zn121  1  0.55952969  0.04040894  0.81906668  1
  Zn  Zn122  1  0.55847921  0.56240512  0.30410801  1
  Zn  Zn123  1  0.55537297  0.55335990  0.80625922  1
  Zn  Zn124  1  0.44114777  0.18125140  0.43326222  1
  Zn  Zn125  1  0.43909291  0.18507174  0.93773452  1
  Zn  Zn126  1  0.43616217  0.68547821  0.44396125  1
  Zn  Zn127  1  0.46207236  0.67820580  0.94045204  1
  Zn  Zn128  1  0.94562572  0.19788846  0.44157503  1
  Zn  Zn129  1  0.91980928  0.17901342  0.99223133  1
  Zn  Zn130  1  0.95007570  0.68588820  0.45106587  1
  Zn  Zn131  1  0.93617403  0.68684288  0.94002396  1
  Zn  Zn132  1  0.06553888  0.31090314  0.06166151  1
  Zn  Zn133  1  0.03698329  0.31719684  0.54892191  1
  Zn  Zn134  1  0.06094735  0.82545424  0.05887176  1
  Zn  Zn135  1  0.05484784  0.82609658  0.56651224  1
  Zn  Zn136  1  0.57892652  0.30638027  0.06951622  1
  Zn  Zn137  1  0.55216216  0.31147342  0.56094006  1
  Zn  Zn138  1  0.55197285  0.79587951  0.05845973  1
  Zn  Zn139  1  0.55912995  0.81366232  0.55733773  1
  O  O140  1  0.11713043  0.13059767  0.10606648  1
  O  O141  1  0.11152339  0.12747247  0.61395488  1
  O  O142  1  0.11623135  0.61013386  0.13746056  1
  O  O143  1  0.13583140  0.61829082  0.63236564  1
  O  O144  1  0.61727559  0.11356976  0.12273390  1
  O  O145  1  0.61763682  0.12549133  0.60905317  1
  O  O146  1  0.60587678  0.62658454  0.13786282  1
  O  O147  1  0.61745602  0.62305397  0.62014538  1
  O  O148  1  0.37148190  0.38852543  0.38579520  1
  O  O149  1  0.39396275  0.37289456  0.88439944  1
  O  O150  1  0.38171985  0.88061753  0.37659028  1
  O  O151  1  0.38826518  0.87831379  0.88845420  1
  O  O152  1  0.86787118  0.45676301  0.44898703  1
  O  O153  1  0.88953200  0.39223623  0.86898279  1
  O  O154  1  0.87973147  0.88708613  0.38526547  1
  O  O155  1  0.88091859  0.87648686  0.87115332  1
  O  O156  1  0.25808301  0.01363475  0.36423795  1
  O  O157  1  0.27593233  -0.00558366  0.87687539  1
  O  O158  1  0.25308250  0.51991680  0.38164144  1
  O  O159  1  0.28201827  0.48946863  0.87152834  1
  O  O160  1  0.75846616  0.00191128  0.36612066  1
  O  O161  1  0.74305854  0.00617579  0.86582160  1
  O  O162  1  0.74193641  0.51917472  0.37514465  1
  O  O163  1  0.75860044  0.50237437  0.86739959  1
  O  O164  1  0.23882740  0.48814287  0.11523256  1
  O  O165  1  0.26825169  0.49050662  0.63195612  1
  O  O166  1  0.25401834  1.00452130  0.13762787  1
  O  O167  1  0.23345545  0.99999599  0.65136096  1
  O  O168  1  0.75589526  0.51063539  0.14686954  1
  O  O169  1  0.74573847  0.50134538  0.63125177  1
  O  O170  1  0.73559207  1.00733027  0.14252716  1
  O  O171  1  0.75120218  0.98994576  0.63253414  1
  O  O172  1  0.01614850  0.36694946  0.25077812  1
  O  O173  1  0.00686327  0.38840459  0.76225765  1
  O  O174  1  0.01660641  0.88472945  0.26389490  1
  O  O175  1  -0.00030593  0.88775882  0.76368784  1
  O  O176  1  0.48187805  0.36971732  0.27584008  1
  O  O177  1  0.49663635  0.36227219  0.75358045  1
  O  O178  1  0.50988965  0.88062737  0.26098838  1
  O  O179  1  0.49751290  0.86895205  0.76098059  1
  O  O180  1  0.48665192  0.11926056  0.24583276  1
  O  O181  1  0.51127387  0.11017797  0.73293525  1
  O  O182  1  0.48117314  0.62877267  0.25319433  1
  O  O183  1  0.49898762  0.62728604  0.73870376  1
  O  O184  1  1.00892722  0.13500513  0.24619413  1
  O  O185  1  0.98434411  0.11478102  0.75004612  1
  O  O186  1  0.99483366  0.61956624  0.23832755  1
  O  O187  1  0.99701237  0.62318371  0.72192232  1
  O  O188  1  0.36266629  0.25823595  -0.00745078  1
  O  O189  1  0.36575019  0.24632299  0.48845346  1
  O  O190  1  0.37306098  0.73621630  0.00090470  1
  O  O191  1  0.37701258  0.76701440  0.49785114  1
  O  O192  1  0.86282056  0.26981436  -0.02970889  1
  O  O193  1  0.89904489  0.39110223  0.43305584  1
  O  O194  1  0.85570596  0.74515419  -0.00517108  1
  O  O195  1  0.87328220  0.76469060  0.50345089  1
  O  O196  1  0.12500353  0.25946685  0.47619297  1
  O  O197  1  0.13562703  0.24807336  0.99274191  1
  O  O198  1  0.12487482  0.76059506  0.49245509  1
  O  O199  1  0.13055568  0.76993680  0.99120234  1
  O  O200  1  0.62019245  0.23401417  0.49057711  1
  O  O201  1  0.63188644  0.22953070  1.00283764  1
  O  O202  1  0.62323684  0.74352194  0.48839221  1
  O  O203  1  0.64097853  0.74556995  1.00761480  1
  O  O204  1  0.51770372  0.23603614  0.13884978  1
  O  O205  1  0.49525074  0.22889816  0.62205563  1
  O  O206  1  0.47948155  0.72738940  0.11959716  1
  O  O207  1  0.50481004  0.74700950  0.63176719  1
  O  O208  1  1.00390426  0.25147109  0.13831954  1
  O  O209  1  0.93876795  0.28240133  0.51472928  1
  O  O210  1  1.01133730  0.73483402  0.11585226  1
  O  O211  1  0.98083606  0.76384048  0.62913159  1
  O  O212  1  0.02340813  0.23984962  0.35949844  1
  O  O213  1  0.00986975  0.26722203  0.87628876  1
  O  O214  1  0.01372443  0.75764793  0.37945640  1
  O  O215  1  -0.00234245  0.77059357  0.87852463  1
  O  O216  1  0.51186650  0.24726639  0.37192320  1
  O  O217  1  0.51366763  0.25618873  0.88395802  1
  O  O218  1  0.50581883  0.76142937  0.38081127  1
  O  O219  1  0.50625798  0.76177162  0.88197349  1
  O  O220  1  0.25933650  0.11722269  0.48569509  1
  O  O221  1  0.24323892  0.14386053  1.00758829  1
  O  O222  1  0.25735444  0.63551041  0.48620093  1
  O  O223  1  0.24794668  0.61208558  0.99216789  1
  O  O224  1  0.73320829  0.11144103  0.48750300  1
  O  O225  1  0.73112362  0.10738713  0.98920859  1
  O  O226  1  0.73648273  0.62413639  0.48853602  1
  O  O227  1  0.75347440  0.62900024  0.98317971  1
  O  O228  1  0.26293954  0.36415720  0.01149467  1
  O  O229  1  0.27206607  0.37495841  0.50892185  1
  O  O230  1  0.28163107  0.86808334  -0.00902063  1
  O  O231  1  0.26582599  0.88629406  0.49027945  1
  O  O232  1  0.72459359  0.38403103  0.01249249  1
  O  O233  1  0.74667182  0.38090499  0.51628949  1
  O  O234  1  0.75186103  0.85413851  -0.00447822  1
  O  O235  1  0.75966530  0.88143275  0.50960128  1
  O  O236  1  0.12347147  0.48501232  0.23834700  1
  O  O237  1  0.15154276  0.55191332  0.80208908  1
  O  O238  1  0.13900537  0.99579999  0.25615559  1
  O  O239  1  0.14794240  1.00176321  0.75506581  1
  O  O240  1  0.63993448  0.50401915  0.25502427  1
  O  O241  1  0.63287021  0.50438680  0.73182808  1
  O  O242  1  0.63286306  0.98702139  0.24848099  1
  O  O243  1  0.64217781  1.00803617  0.74621739  1
  O  O244  1  0.36494317  -0.00174778  0.25692519  1
  O  O245  1  0.37197317  0.00450560  0.74850451  1
  O  O246  1  0.37369002  0.51486503  0.27426667  1
  O  O247  1  0.39670454  0.49568199  0.76498753  1
  O  O248  1  0.86172751  -0.00513813  0.25970748  1
  O  O249  1  0.85893221  0.01727534  0.74690096  1
  O  O250  1  0.87088004  0.51946704  0.26112033  1
  O  O251  1  0.86313123  0.49944264  0.75526368  1
  O  O252  1  0.14567108  0.36084240  0.35332475  1
  O  O253  1  0.11649845  0.36661920  0.87394933  1
  O  O254  1  0.11841999  0.86733932  0.37245877  1
  O  O255  1  0.12124751  0.86790114  0.87047655  1
  O  O256  1  0.61293432  0.36196136  0.38303318  1
  O  O257  1  0.61978567  0.35347142  0.86759964  1
  O  O258  1  0.62091635  0.86320842  0.37214215  1
  O  O259  1  0.60490681  0.89220944  0.87877359  1
  O  O260  1  0.38906523  0.12651371  0.13530490  1
  O  O261  1  0.38970940  0.12662011  0.62274897  1
  O  O262  1  0.37543480  0.62346243  0.13718205  1
  O  O263  1  0.39201709  0.63136223  0.63680904  1
  O  O264  1  0.88624813  0.13852353  0.09661281  1
  O  O265  1  0.86768861  0.13505977  0.63075991  1
  O  O266  1  0.88880428  0.62306249  0.13405408  1
  O  O267  1  0.86055371  0.64966044  0.62016689  1
  O  O268  1  0.24426312  0.26312224  0.11474579  1
  O  O269  1  0.26866810  0.22907250  0.63199055  1
  O  O270  1  0.26847777  0.73951779  0.12300251  1
  O  O271  1  0.21297667  0.81893553  0.62632423  1
  O  O272  1  0.74169267  0.26703136  0.13926713  1
  O  O273  1  0.73687626  0.26300553  0.62669819  1
  O  O274  1  0.75154757  0.73813913  0.12095064  1
  O  O275  1  0.76084449  0.77066312  0.63274072  1
  O  O276  1  0.24666596  0.23482732  0.36811276  1
  O  O277  1  0.23759872  0.26128235  0.88715169  1
  O  O278  1  0.23871276  0.74992518  0.37703458  1
  O  O279  1  0.22494740  0.72948198  0.86825631  1
  O  O280  1  0.73883048  0.23234802  0.37397651  1
  O  O281  1  0.72918401  0.22313067  0.87299517  1
  O  O282  1  0.73459822  0.73264020  0.37611336  1
  O  O283  1  0.73901500  0.73165371  0.87251894  1
  O  O284  1  0.01155300  0.10641793  -0.00774275  1
  O  O285  1  -0.00703712  0.11037456  0.49672109  1
  O  O286  1  -0.00774238  0.61048976  0.01794655  1
  O  O287  1  0.00253123  0.63010294  0.53316337  1
  O  O288  1  0.50875503  0.12793223  0.02045486  1
  O  O289  1  0.50996838  0.11240492  0.49740632  1
  O  O290  1  0.50086206  0.60549280  0.01588082  1
  O  O291  1  0.50810153  0.63216186  0.51806387  1
  O  O292  1  0.48118068  0.36350502  0.48275177  1
  O  O293  1  0.48837663  0.35795545  1.02091422  1
  O  O294  1  0.49406309  0.88643508  0.49067085  1
  O  O295  1  0.48808655  0.86976690  0.99745610  1
  O  O296  1  1.03429835  0.40354597  0.45017237  1
  O  O297  1  1.00452483  0.38645706  0.99546656  1
  O  O298  1  0.98566862  0.87690132  0.48702232  1
  O  O299  1  0.99005204  0.88632264  0.99158244  1
  O  O300  1  0.50403797  0.48849226  0.37875314  1
  O  O301  1  0.50945750  0.47037245  0.87432364  1
  O  O302  1  0.49204306  0.99181310  0.37923265  1
  O  O303  1  0.47934729  0.98497259  0.87361303  1
  O  O304  1  1.01163095  0.51634568  0.38507081  1
  O  O305  1  0.99370930  0.49255711  0.88802666  1
  O  O306  1  0.98276081  0.99643921  0.36742130  1
  O  O307  1  1.00718570  0.98826552  0.88962938  1
  O  O308  1  0.00202107  -0.00265575  0.10475128  1
  O  O309  1  0.01128203  -0.01064145  0.61656833  1
  O  O310  1  0.00757472  0.49731748  0.11727958  1
  O  O311  1  0.02144876  0.49431092  0.62548254  1
  O  O312  1  0.51316997  0.00908620  0.13707710  1
  O  O313  1  0.49677873  0.00701620  0.60689813  1
  O  O314  1  0.49378700  0.51119017  0.14231620  1
  O  O315  1  0.50846854  0.50420690  0.62667050  1
  O  O316  1  0.24671345  0.36997927  0.23362765  1
  O  O317  1  0.26353324  0.37960130  0.73258612  1
  O  O318  1  0.24034815  0.88895657  0.25499402  1
  O  O319  1  0.24965641  0.81151894  0.69075573  1
  O  O320  1  0.75890971  0.39861201  0.27445292  1
  O  O321  1  0.74252618  0.39342427  0.73802982  1
  O  O322  1  0.73942379  0.88351831  0.24927429  1
  O  O323  1  0.75458727  0.88848748  0.73973382  1
  O  O324  1  0.26280257  0.11682739  0.24747268  1
  O  O325  1  0.20729460  0.04079464  0.71287728  1
  O  O326  1  0.26228990  0.63045966  0.26793813  1
  O  O327  1  0.28257793  0.61383921  0.74474713  1
  O  O328  1  0.74190589  0.10836941  0.26620762  1
  O  O329  1  0.75616288  0.11435356  0.76215506  1
  O  O330  1  0.76082230  0.61928469  0.26753931  1
  O  O331  1  0.74517116  0.61063048  0.76568277  1
  O  O332  1  0.36946619  0.11774925  0.36171444  1
  O  O333  1  0.38398318  0.11425575  0.87185388  1
  O  O334  1  0.36636486  0.62719453  0.37124513  1
  O  O335  1  0.40209896  0.60389163  0.86687656  1
  O  O336  1  0.86100413  0.11738385  0.38612154  1
  O  O337  1  0.85862657  0.11979094  0.89050639  1
  O  O338  1  0.86870106  0.62744222  0.38826512  1
  O  O339  1  0.88526379  0.60240604  0.87535043  1
  O  O340  1  0.13532222  0.38404119  0.12896725  1
  O  O341  1  0.11642175  0.33316437  0.62314185  1
  O  O342  1  0.11967472  0.87766221  0.14132110  1
  O  O343  1  0.13916026  0.86997677  0.63439635  1
  O  O344  1  0.65836636  0.40954969  0.06348041  1
  O  O345  1  0.62216631  0.38732566  0.61584047  1
  O  O346  1  0.61257900  0.88222368  0.13418477  1
  O  O347  1  0.63840121  0.87372138  0.61475652  1
  O  O348  1  0.12206529  0.25997617  0.24825285  1
  O  O349  1  0.13244102  0.23797141  0.76819637  1
  O  O350  1  0.13401093  0.76685829  0.25505044  1
  O  O351  1  0.11157393  0.75064507  0.76563723  1
  O  O352  1  0.62625559  0.24352762  0.26339195  1
  O  O353  1  0.61678512  0.23056158  0.76080580  1
  O  O354  1  0.62932728  0.75884757  0.26329026  1
  O  O355  1  0.64221253  0.76176289  0.75972846  1
  O  O356  1  0.37113809  0.23773910  0.25444873  1
  O  O357  1  0.37512697  0.24371070  0.74736495  1
  O  O358  1  0.37227030  0.74112155  0.24206580  1
  O  O359  1  0.37353809  0.73533518  0.78052214  1
  O  O360  1  0.89737923  0.25355722  0.26520647  1
  O  O361  1  0.86672171  0.22598295  0.76539154  1
  O  O362  1  0.87197050  0.72576868  0.25916335  1
  O  O363  1  0.87599019  0.75591937  0.74216884  1
  O  O364  1  0.37782544  0.51410196  0.48303078  1
  O  O365  1  0.38345372  0.47876333  0.99056922  1
  O  O366  1  0.38510828  0.99923151  0.48614121  1
  O  O367  1  0.38371009  0.99798607  1.01091977  1
  O  O368  1  0.89415446  0.49600188  0.51744218  1
  O  O369  1  0.88276301  0.49550851  0.99642914  1
  O  O370  1  0.86801494  0.99304780  0.48762280  1
  O  O371  1  0.87751558  0.99697639  0.99958284  1
  O  O372  1  0.14336657  0.01594746  -0.00684954  1
  O  O373  1  0.12136623  0.00827622  0.49476886  1
  O  O374  1  0.11213732  0.50377726  0.01207364  1
  O  O375  1  0.05198223  0.47803897  0.44442067  1
  O  O376  1  0.62631833  0.00159318  0.02003733  1
  O  O377  1  0.61113044  0.00475275  0.48819281  1
  O  O378  1  0.62040968  0.46765436  0.02193121  1
  O  O379  1  0.62608634  0.51232038  0.51299182  1
  O  O380  1  0.36377312  0.38298042  0.12035125  1
  O  O381  1  0.39053247  0.34123921  0.61004803  1
  O  O382  1  0.38380820  0.85853227  0.11335937  1
  O  O383  1  0.37611639  0.88742763  0.60494185  1
  O  O384  1  0.87343923  0.37199142  0.13767203  1
  O  O385  1  0.85839781  0.37210445  0.63202967  1
  O  O386  1  0.87553900  0.87475191  0.13175513  1
  O  O387  1  0.87008513  0.87483702  0.61088933  1
  O  O388  1  0.14297136  0.13318987  0.36925519  1
  O  O389  1  0.11962689  0.14176047  0.89043887  1
  O  O390  1  0.13547158  0.64412391  0.37117144  1
  O  O391  1  0.08593739  0.65024410  0.89609885  1
  O  O392  1  0.62848156  0.13028783  0.38019085  1
  O  O393  1  0.60997542  0.12509987  0.89133967  1
  O  O394  1  0.61285129  0.63670673  0.38293130  1
  O  O395  1  0.62930969  0.60676758  0.87983162  1
