# generated using pymatgen
data_V35Zn35O128
_symmetry_space_group_name_H-M   'P 1'
_cell_length_a   16.83155422
_cell_length_b   16.87421538
_cell_length_c   16.88650450
_cell_angle_alpha   89.77087997
_cell_angle_beta   89.94013146
_cell_angle_gamma   90.20834371
_symmetry_Int_Tables_number   1
_chemical_formula_structural   V35Zn35O128
_chemical_formula_sum   'V70 Zn70 O256'
_cell_volume   4796.01995065
_cell_formula_units_Z   2
loop_
 _symmetry_equiv_pos_site_id
 _symmetry_equiv_pos_as_xyz
  1  'x, y, z'
loop_
 _atom_site_type_symbol
 _atom_site_label
 _atom_site_symmetry_multiplicity
 _atom_site_fract_x
 _atom_site_fract_y
 _atom_site_fract_z
 _atom_site_occupancy
  V  V0  1  0.86544143  0.62335563  0.74272988  1
  V  V1  1  0.64990058  0.00374640  0.11926763  1
  V  V2  1  0.11691422  0.12475832  0.50914375  1
  V  V3  1  0.49900926  0.60402090  0.13349149  1
  V  V4  1  0.74406520  0.38270646  0.64242875  1
  V  V5  1  0.10739219  0.86342073  0.25950216  1
  V  V6  1  0.01710566  0.87343925  0.87546580  1
  V  V7  1  0.74771165  0.25692082  0.49189189  1
  V  V8  1  0.25088417  0.00765562  0.73943520  1
  V  V9  1  0.87620551  0.63530694  0.25395439  1
  V  V10  1  -0.00602089  0.23667120  0.74621413  1
  V  V11  1  0.25209107  0.26308060  0.50753349  1
  V  V12  1  0.51218232  0.25685616  0.75837410  1
  V  V13  1  0.23971188  0.50282814  0.72761895  1
  V  V14  1  0.76255104  0.84754293  0.11375652  1
  V  V15  1  0.00734014  0.50228542  0.00021888  1
  V  V16  1  0.87509489  0.37292603  0.00171011  1
  V  V17  1  0.61323898  0.64257810  -0.00516438  1
  V  V18  1  0.12548055  0.37214253  0.72187588  1
  V  V19  1  0.37334626  0.49574224  0.39266703  1
  V  V20  1  0.00595760  0.25652337  0.26819544  1
  V  V21  1  0.13478315  0.85993985  0.74343927  1
  V  V22  1  0.87336309  0.11737122  0.25234776  1
  V  V23  1  0.25379833  0.87628246  0.11065714  1
  V  V24  1  -0.00543408  0.47565993  0.50604383  1
  V  V25  1  0.49964313  0.88400390  0.89161074  1
  V  V26  1  0.74053271  0.50152346  0.25759858  1
  V  V27  1  0.63094664  0.73937759  0.38175461  1
  V  V28  1  0.00459734  0.12890322  0.12297472  1
  V  V29  1  0.24216438  0.13277209  0.38023177  1
  V  V30  1  0.73834533  0.11613216  0.36813886  1
  V  V31  1  0.00223165  0.63675438  0.12982431  1
  V  V32  1  0.71448499  0.26389201  -0.01893475  1
  V  V33  1  0.50197792  0.63775483  0.62119255  1
  V  V34  1  0.63086277  -0.01168650  0.63482083  1
  V  V35  1  0.75207574  0.09338008  0.85593707  1
  V  V36  1  0.51012285  0.37121029  0.37973400  1
  V  V37  1  0.88530976  0.48227936  0.37110932  1
  V  V38  1  0.25629554  0.49960896  0.25256202  1
  V  V39  1  0.36185273  0.25761035  0.11923264  1
  V  V40  1  0.37886962  0.12605104  0.26200233  1
  V  V41  1  0.12399411  0.49576756  0.12640662  1
  V  V42  1  0.49986116  0.86847984  0.35539489  1
  V  V43  1  0.62028495  0.12100065  0.51185767  1
  V  V44  1  0.25091024  -0.00681453  0.26133716  1
  V  V45  1  0.73148320  0.37666237  0.13765706  1
  V  V46  1  0.11755004  0.00456583  0.12406908  1
  V  V47  1  0.38194002  0.74679213  0.12877473  1
  V  V48  1  0.38527273  0.25512849  0.62050685  1
  V  V49  1  0.49013486  0.75264277  0.76828502  1
  V  V50  1  0.87928311  0.25921253  0.13048486  1
  V  V51  1  0.49431062  -0.01480224  0.49763584  1
  V  V52  1  0.25280625  0.75765629  0.50647821  1
  V  V53  1  0.10441013  0.62744452  0.50654963  1
  V  V54  1  0.86437380  0.50273086  0.87244167  1
  V  V55  1  0.51468957  0.50140726  0.51150046  1
  V  V56  1  0.01298609  0.36993561  0.87146406  1
  V  V57  1  0.37585304  0.00530167  0.88965456  1
  V  V58  1  0.86920116  0.24003887  0.62669308  1
  V  V59  1  0.24427013  0.62927835  0.37945310  1
  V  V60  1  0.39750879  0.11840769  0.73978220  1
  V  V61  1  0.24501335  0.72972296  -0.01076476  1
  V  V62  1  0.12502832  0.37595654  0.27144061  1
  V  V63  1  0.88503868  0.90157378  -0.00500410  1
  V  V64  1  -0.00963361  -0.01796212  0.50404213  1
  V  V65  1  -0.00481852  0.74514525  0.74324233  1
  V  V66  1  0.51323495  0.25161925  0.25405777  1
  V  V67  1  0.75825688  0.77140008  0.51306364  1
  V  V68  1  0.49838538  0.11804120  0.10346176  1
  V  V69  1  0.63260952  0.86602736  0.75636158  1
  Zn  Zn70  1  0.17435912  0.19729239  -0.04919400  1
  Zn  Zn71  1  0.87624116  -0.00274132  0.38136638  1
  Zn  Zn72  1  0.36972821  0.75436175  0.62950117  1
  Zn  Zn73  1  0.35509369  0.49269297  0.90222183  1
  Zn  Zn74  1  0.32801040  0.65553499  0.80767775  1
  Zn  Zn75  1  0.02241374  0.03929735  -0.03737503  1
  Zn  Zn76  1  0.18647144  0.18932244  0.19390369  1
  Zn  Zn77  1  0.18859721  0.19083788  0.68914286  1
  Zn  Zn78  1  0.18883378  0.68752815  0.18771776  1
  Zn  Zn79  1  0.17925015  0.67990268  0.67925475  1
  Zn  Zn80  1  0.69197778  0.18084234  0.16676138  1
  Zn  Zn81  1  0.69294906  0.18251918  0.68997907  1
  Zn  Zn82  1  0.67939484  0.67800809  0.18980917  1
  Zn  Zn83  1  0.68359070  0.68780647  0.68503621  1
  Zn  Zn84  1  0.31637945  0.31446815  0.31400483  1
  Zn  Zn85  1  0.37549990  0.37864849  0.75351533  1
  Zn  Zn86  1  0.31828727  0.80793402  0.31255508  1
  Zn  Zn87  1  0.30973520  0.82628097  0.82787471  1
  Zn  Zn88  1  0.80597811  0.30850146  0.30935904  1
  Zn  Zn89  1  0.81181639  0.31556701  0.81121349  1
  Zn  Zn90  1  0.76575052  0.80109675  0.29165965  1
  Zn  Zn91  1  0.82432222  0.81398733  0.81905862  1
  Zn  Zn92  1  0.18087001  0.44409473  0.44860969  1
  Zn  Zn93  1  0.23509199  0.37690964  1.01129956  1
  Zn  Zn94  1  0.17991694  0.93631178  0.43647851  1
  Zn  Zn95  1  0.19705728  1.03452527  0.93344011  1
  Zn  Zn96  1  0.68930669  0.44467674  0.43293268  1
  Zn  Zn97  1  0.68414635  0.55898942  0.81906253  1
  Zn  Zn98  1  0.68206114  0.93308134  0.43182057  1
  Zn  Zn99  1  0.68656999  0.94041678  0.94202579  1
  Zn  Zn100  1  0.30845848  0.07424847  0.07356918  1
  Zn  Zn101  1  0.31574158  0.06005769  0.56275608  1
  Zn  Zn102  1  0.31264673  0.55493273  0.06466593  1
  Zn  Zn103  1  0.32122946  0.57400841  0.56345981  1
  Zn  Zn104  1  0.81371127  0.08782128  0.03569030  1
  Zn  Zn105  1  0.80959875  0.05647799  0.56136432  1
  Zn  Zn106  1  0.81922948  0.55672759  0.07401277  1
  Zn  Zn107  1  0.80774381  0.55890427  0.55815486  1
  Zn  Zn108  1  0.43873354  0.43240273  0.19243391  1
  Zn  Zn109  1  0.57049768  0.43870313  0.69721001  1
  Zn  Zn110  1  0.43410101  0.93914775  0.18446817  1
  Zn  Zn111  1  0.44473076  0.93357852  0.68142484  1
  Zn  Zn112  1  0.94180343  0.44050714  0.19385443  1
  Zn  Zn113  1  0.92485884  0.42889604  0.68459369  1
  Zn  Zn114  1  0.90990504  0.90946654  0.19709175  1
  Zn  Zn115  1  1.11856058  0.99509916  0.62399823  1
  Zn  Zn116  1  0.06123042  0.05654906  0.31749675  1
  Zn  Zn117  1  0.06568383  0.05839416  0.80395409  1
  Zn  Zn118  1  0.05951826  0.56777246  0.31616317  1
  Zn  Zn119  1  0.04928482  0.54792607  0.79345378  1
  Zn  Zn120  1  0.56367783  0.04487458  0.30369660  1
  Zn  Zn121  1  0.57100870  0.06274301  0.82524558  1
  Zn  Zn122  1  0.55455008  0.56786789  0.31619637  1
  Zn  Zn123  1  0.51222889  0.57065054  0.83516767  1
  Zn  Zn124  1  0.43791039  0.18548032  0.43943994  1
  Zn  Zn125  1  0.41774953  0.19925451  0.92739657  1
  Zn  Zn126  1  0.43657317  0.68816889  0.43151030  1
  Zn  Zn127  1  0.42735975  0.68665970  0.95424961  1
  Zn  Zn128  1  0.92930969  0.18822904  0.44007035  1
  Zn  Zn129  1  0.92503788  0.19107313  0.93156409  1
  Zn  Zn130  1  0.89431312  0.66674110  0.45727901  1
  Zn  Zn131  1  0.95462851  0.68118303  0.92897012  1
  Zn  Zn132  1  0.06879211  0.31499771  0.06932808  1
  Zn  Zn133  1  0.05678178  0.29706649  0.55386961  1
  Zn  Zn134  1  0.07325300  0.81897092  0.05888853  1
  Zn  Zn135  1  0.06460782  0.80455040  0.56104029  1
  Zn  Zn136  1  0.54632546  0.31148169  0.06625074  1
  Zn  Zn137  1  0.56700675  0.31121501  0.56021147  1
  Zn  Zn138  1  0.57361930  0.81681621  0.07166867  1
  Zn  Zn139  1  0.57169549  0.81168172  0.55816961  1
  O  O140  1  0.11925811  0.11628315  0.13437391  1
  O  O141  1  0.13192915  0.12063339  0.61144950  1
  O  O142  1  0.11193903  0.60930868  0.14030624  1
  O  O143  1  0.11487624  0.61866446  0.60679509  1
  O  O144  1  0.60550481  0.11686182  0.12254328  1
  O  O145  1  0.62555150  0.11371802  0.61496729  1
  O  O146  1  0.60491033  0.63188187  0.11826462  1
  O  O147  1  0.60222507  0.62238025  0.63541193  1
  O  O148  1  0.38441184  0.38975911  0.37069478  1
  O  O149  1  0.35440812  0.33169515  0.86658386  1
  O  O150  1  0.39750418  0.86266512  0.37151028  1
  O  O151  1  0.38928991  0.89207259  0.87703045  1
  O  O152  1  0.87312222  0.38266099  0.36953476  1
  O  O153  1  0.87943452  0.38318899  0.88516746  1
  O  O154  1  0.87023648  0.87042502  0.35688282  1
  O  O155  1  0.88653918  0.87319006  0.89232321  1
  O  O156  1  0.24718299  0.01017223  0.36526386  1
  O  O157  1  0.27073973  -0.00906457  0.85650661  1
  O  O158  1  0.25803438  0.50112623  0.37468198  1
  O  O159  1  0.19149767  0.54329816  0.88861894  1
  O  O160  1  0.75628501  0.01267345  0.37580235  1
  O  O161  1  0.75494625  -0.00851433  0.86321865  1
  O  O162  1  0.76348359  0.49843171  0.36358658  1
  O  O163  1  0.76513659  0.49611572  0.87444132  1
  O  O164  1  0.23569856  0.50875438  0.14613317  1
  O  O165  1  0.26009312  0.49981393  0.63085877  1
  O  O166  1  0.24198293  0.99517269  0.13844084  1
  O  O167  1  0.25075416  0.99697128  0.63618358  1
  O  O168  1  0.75652350  0.48107054  0.13841937  1
  O  O169  1  0.75506151  0.48100448  0.61828887  1
  O  O170  1  0.74912373  1.02784861  0.11384159  1
  O  O171  1  0.73063749  1.00000573  0.62233261  1
  O  O172  1  0.01007197  0.36497306  0.25337434  1
  O  O173  1  0.00407812  0.37456711  0.75834884  1
  O  O174  1  0.00810955  0.87569135  0.24086693  1
  O  O175  1  0.01221594  0.85836607  0.76097943  1
  O  O176  1  0.49964722  0.35893849  0.25946346  1
  O  O177  1  0.49424260  0.36013285  0.74700022  1
  O  O178  1  0.50165716  0.88030325  0.25465037  1
  O  O179  1  0.50496102  0.86557638  0.75946750  1
  O  O180  1  0.48737918  0.13127123  0.26180110  1
  O  O181  1  0.49954362  0.12093816  0.74601796  1
  O  O182  1  0.49606788  0.61959413  0.23352435  1
  O  O183  1  0.49639583  0.65089031  0.74451545  1
  O  O184  1  0.99421659  0.13763844  0.24671614  1
  O  O185  1  1.00005642  0.13829804  0.75270364  1
  O  O186  1  0.99213652  0.62696874  0.24027032  1
  O  O187  1  0.99168105  0.63696287  0.75907977  1
  O  O188  1  0.37124308  0.25017300  0.01775121  1
  O  O189  1  0.36673244  0.24362458  0.51005635  1
  O  O190  1  0.35598896  0.75260849  0.01568135  1
  O  O191  1  0.35623296  0.73930750  0.49898817  1
  O  O192  1  0.88369217  0.26339794  0.01585268  1
  O  O193  1  0.85761969  0.24507743  0.51015026  1
  O  O194  1  0.84148477  0.72663811  -0.02768313  1
  O  O195  1  0.86763738  0.76792278  0.50089337  1
  O  O196  1  0.14353249  0.23688576  0.50460736  1
  O  O197  1  0.16000931  0.29580453  1.00578086  1
  O  O198  1  0.13528091  0.73431075  0.50012182  1
  O  O199  1  0.14785452  0.76034794  0.99446488  1
  O  O200  1  0.63578690  0.23179392  0.50478704  1
  O  O201  1  0.61507342  0.27887800  0.98129312  1
  O  O202  1  0.64038120  0.74925160  0.49348698  1
  O  O203  1  0.62887127  0.74234331  1.00113028  1
  O  O204  1  0.49102973  0.23882781  0.14077082  1
  O  O205  1  0.49038261  0.24916280  0.62176524  1
  O  O206  1  0.48259134  0.76338849  0.12319053  1
  O  O207  1  0.49790978  0.74417382  0.62115948  1
  O  O208  1  0.99846728  0.24737073  0.13610159  1
  O  O209  1  0.98053926  0.25284142  0.63251992  1
  O  O210  1  1.01151566  0.73405177  0.11286875  1
  O  O211  1  0.99866805  0.75346772  0.64378059  1
  O  O212  1  -0.00127253  0.24706546  0.36594253  1
  O  O213  1  -0.01344644  0.26043938  0.86088399  1
  O  O214  1  -0.08081704  0.82526696  0.39044488  1
  O  O215  1  0.00073154  0.76108882  0.86644672  1
  O  O216  1  0.49611939  0.26167249  0.36943396  1
  O  O217  1  0.49911557  0.24230108  0.85694563  1
  O  O218  1  0.51348106  0.75677793  0.37899566  1
  O  O219  1  0.48910505  0.76289558  0.87239061  1
  O  O220  1  0.24570605  0.12103841  0.48836802  1
  O  O221  1  0.24526721  0.11900504  0.99433461  1
  O  O222  1  0.24016065  0.62203351  0.49075369  1
  O  O223  1  0.24273391  0.63227237  1.01182236  1
  O  O224  1  0.73791511  0.12649923  0.48605492  1
  O  O225  1  0.73385409  0.18096432  1.03935648  1
  O  O226  1  0.78451568  0.64801378  0.49626949  1
  O  O227  1  0.72500201  0.59606934  1.00960088  1
  O  O228  1  0.27467477  0.31630720  -0.12355977  1
  O  O229  1  0.24514021  0.36162832  0.49779909  1
  O  O230  1  0.24953262  0.88719141  0.01475646  1
  O  O231  1  0.24045006  0.85637592  0.49113870  1
  O  O232  1  0.75838599  0.35908675  0.02321577  1
  O  O233  1  0.73741444  0.35753177  0.49399903  1
  O  O234  1  0.77343096  0.88625624  0.00539709  1
  O  O235  1  0.74820586  0.87308995  0.50297927  1
  O  O236  1  0.12619624  0.48924645  0.25326539  1
  O  O237  1  0.12934903  0.48601175  0.74267652  1
  O  O238  1  0.13577332  0.99700230  0.24594639  1
  O  O239  1  0.13924163  0.99100923  0.74625732  1
  O  O240  1  0.64146725  0.51152665  0.26045020  1
  O  O241  1  0.59189786  0.51168217  0.77685054  1
  O  O242  1  0.62071372  0.99848235  0.21943595  1
  O  O243  1  0.61748989  0.98766332  0.74055000  1
  O  O244  1  0.35992258  0.01568418  0.24499004  1
  O  O245  1  0.37171292  0.00862396  0.74330841  1
  O  O246  1  0.35824896  0.49549836  0.25438913  1
  O  O247  1  0.32664488  0.47986925  0.78659022  1
  O  O248  1  0.88390314  0.01722853  0.24857980  1
  O  O249  1  0.87167894  -0.07133924  0.70579949  1
  O  O250  1  0.87189704  0.50141842  0.25913460  1
  O  O251  1  0.88478720  0.50860737  0.76372176  1
  O  O252  1  0.12311316  0.37740723  0.36989873  1
  O  O253  1  0.11047864  0.36829906  0.86619054  1
  O  O254  1  0.11905472  0.88025851  0.35817405  1
  O  O255  1  0.11881175  0.87608792  0.86286069  1
  O  O256  1  0.60876409  0.38284026  0.37072313  1
  O  O257  1  0.51897797  0.41862232  0.94670339  1
  O  O258  1  0.61329427  0.86183044  0.37586812  1
  O  O259  1  0.61005592  0.88576371  0.86531143  1
  O  O260  1  0.38258849  0.13596798  0.13975054  1
  O  O261  1  0.37519348  0.12899248  0.63592333  1
  O  O262  1  0.38837524  0.63239284  0.11300676  1
  O  O263  1  0.39115798  0.63007747  0.63314308  1
  O  O264  1  0.88240152  0.14033784  0.13815229  1
  O  O265  1  0.85961835  0.14023168  0.62505955  1
  O  O266  1  0.89281782  0.61931603  0.13425990  1
  O  O267  1  0.87328299  0.61356763  0.64570723  1
  O  O268  1  0.26166242  0.24811833  0.13506812  1
  O  O269  1  0.26072801  0.24164132  0.61217497  1
  O  O270  1  0.24863728  0.76308615  0.11506247  1
  O  O271  1  0.24979481  0.74140117  0.61111895  1
  O  O272  1  0.76931850  0.27163270  0.15608801  1
  O  O273  1  0.75189482  0.25635713  0.61641417  1
  O  O274  1  0.75060952  0.74954815  0.11885468  1
  O  O275  1  0.74315814  0.75173976  0.61334210  1
  O  O276  1  0.25882325  0.23920587  0.38875167  1
  O  O277  1  0.25541060  0.24040716  0.86299655  1
  O  O278  1  0.25585030  0.73239272  0.38005469  1
  O  O279  1  0.27037176  0.73307056  0.88462299  1
  O  O280  1  0.75324903  0.23725226  0.38556852  1
  O  O281  1  0.74968934  0.25636892  0.88630651  1
  O  O282  1  0.74194110  0.75571349  0.39469375  1
  O  O283  1  0.78835526  0.73385873  0.91862707  1
  O  O284  1  -0.00798333  0.13676809  0.01884088  1
  O  O285  1  0.01747430  0.14114583  0.49745433  1
  O  O286  1  -0.00153008  0.61044815  0.01077631  1
  O  O287  1  0.00432391  0.63581573  0.48858279  1
  O  O288  1  0.48869763  0.13647667  0.00710847  1
  O  O289  1  0.51891259  0.11695299  0.48528242  1
  O  O290  1  0.50817935  0.62618926  0.01225067  1
  O  O291  1  0.49345277  0.61230204  0.51096158  1
  O  O292  1  0.50401183  0.38414870  0.48826407  1
  O  O293  1  0.47478391  0.38549347  1.00414159  1
  O  O294  1  0.50116639  0.88262380  0.49846310  1
  O  O295  1  0.50811199  0.87138866  0.98898067  1
  O  O296  1  1.00035706  0.37662545  0.49398949  1
  O  O297  1  0.99603806  0.37960507  0.99023365  1
  O  O298  1  1.00952051  0.88327348  0.50182189  1
  O  O299  1  0.99906924  0.87283277  0.98761960  1
  O  O300  1  0.48874084  0.49437141  0.38180846  1
  O  O301  1  0.47416494  0.45802742  0.89285723  1
  O  O302  1  0.51087971  0.98175397  0.38483111  1
  O  O303  1  0.49125865  0.99341133  0.87618428  1
  O  O304  1  0.99018053  0.49426413  0.37529013  1
  O  O305  1  0.99864142  0.48589279  0.88249228  1
  O  O306  1  0.99357493  1.00930100  0.39355346  1
  O  O307  1  1.00036969  0.98050084  0.86551786  1
  O  O308  1  0.01344600  0.01209598  0.13698856  1
  O  O309  1  0.00364909  0.00932432  0.60100456  1
  O  O310  1  0.00817106  0.50394100  0.12006960  1
  O  O311  1  -0.01733156  0.48927119  0.60512016  1
  O  O312  1  0.48270670  0.01817622  0.11807386  1
  O  O313  1  0.51671249  -0.00556127  0.60921500  1
  O  O314  1  0.49524806  0.50364239  0.12457252  1
  O  O315  1  0.50252431  0.49819818  0.61292164  1
  O  O316  1  0.23742990  0.38674199  0.26099973  1
  O  O317  1  0.22622952  0.37611606  0.73526300  1
  O  O318  1  0.24906392  0.88864728  0.25435983  1
  O  O319  1  0.23865209  0.87674897  0.75337169  1
  O  O320  1  0.74543059  0.38666688  0.24766348  1
  O  O321  1  0.74455587  0.37817038  0.74340919  1
  O  O322  1  0.79188979  0.87999638  0.21128362  1
  O  O323  1  0.73125953  0.85330536  0.76749408  1
  O  O324  1  0.25518809  0.12205563  0.26386491  1
  O  O325  1  0.25090003  0.11054742  0.74829524  1
  O  O326  1  0.23935083  0.60895481  0.26700445  1
  O  O327  1  0.24053866  0.60801758  0.74757446  1
  O  O328  1  0.76325617  0.13408209  0.25689668  1
  O  O329  1  0.76125091  0.12306566  0.75862488  1
  O  O330  1  0.76683317  0.60682463  0.23250061  1
  O  O331  1  0.75924771  0.62884744  0.75736147  1
  O  O332  1  0.36514176  0.12530532  0.36688417  1
  O  O333  1  0.38218948  0.11124563  0.85551930  1
  O  O334  1  0.36290461  0.60637430  0.37957878  1
  O  O335  1  0.40204044  0.60106175  0.87793276  1
  O  O336  1  0.86804093  0.12721374  0.36142052  1
  O  O337  1  0.83555685  0.12129886  0.92194613  1
  O  O338  1  0.88269999  0.61232191  0.35587325  1
  O  O339  1  0.88274200  0.60552543  0.87488865  1
  O  O340  1  0.12229199  0.39135154  0.14392797  1
  O  O341  1  0.11393271  0.37261395  0.62357925  1
  O  O342  1  0.13483054  0.88756080  0.13781464  1
  O  O343  1  0.12061225  0.87524537  0.64132274  1
  O  O344  1  0.63335969  0.36679719  0.12746242  1
  O  O345  1  0.63557864  0.37404243  0.62617236  1
  O  O346  1  0.65966758  0.88220653  0.11808629  1
  O  O347  1  0.62399910  0.87959364  0.64126480  1
  O  O348  1  0.11701456  0.26272603  0.25210741  1
  O  O349  1  0.10502104  0.25924965  0.73666078  1
  O  O350  1  0.13006339  0.76558089  0.24675353  1
  O  O351  1  0.12007013  0.75379743  0.74762468  1
  O  O352  1  0.61048651  0.23729672  0.24509046  1
  O  O353  1  0.61009185  0.24236201  0.73970830  1
  O  O354  1  0.65783145  0.75118071  0.27306526  1
  O  O355  1  0.60760241  0.76073341  0.74949461  1
  O  O356  1  0.37866594  0.23756268  0.24968188  1
  O  O357  1  0.39181102  0.23109628  0.73715486  1
  O  O358  1  0.35679392  0.74192325  0.22722367  1
  O  O359  1  0.37995284  0.75439776  0.75587605  1
  O  O360  1  0.89133514  0.24948161  0.24783651  1
  O  O361  1  0.88254528  0.25226660  0.74105526  1
  O  O362  1  0.86251178  0.73291484  0.25545134  1
  O  O363  1  0.88289087  0.73591278  0.75721060  1
  O  O364  1  0.38024742  0.49482168  0.49414605  1
  O  O365  1  0.30468479  0.46149711  0.99814615  1
  O  O366  1  0.39640873  1.00860905  0.50179852  1
  O  O367  1  0.36762637  1.01197534  0.98697980  1
  O  O368  1  0.88612390  0.50397095  0.48120421  1
  O  O369  1  0.88352271  0.49042661  0.99441762  1
  O  O370  1  0.88315958  0.99723773  0.50020721  1
  O  O371  1  0.89792961  1.00070787  1.00857154  1
  O  O372  1  0.11993489  -0.00464485  0.02184729  1
  O  O373  1  0.11843194  0.01359964  0.49693940  1
  O  O374  1  0.11962427  0.48980117  0.02157507  1
  O  O375  1  0.09999401  0.51031661  0.49246409  1
  O  O376  1  0.62054189  -0.00766642  0.02027707  1
  O  O377  1  0.62119813  0.00715951  0.50616119  1
  O  O378  1  0.66714978  0.53765813  0.01074793  1
  O  O379  1  0.61342060  0.50349678  0.49516736  1
  O  O380  1  0.37774024  0.35703775  0.13478333  1
  O  O381  1  0.36920653  0.35185651  0.63891215  1
  O  O382  1  0.35891978  0.86910295  0.13085613  1
  O  O383  1  0.37341482  0.86726728  0.62844940  1
  O  O384  1  0.88409710  0.37223829  0.11838074  1
  O  O385  1  0.85402401  0.35833762  0.62720683  1
  O  O386  1  0.88243261  0.85827415  0.09419976  1
  O  O387  1  0.86871632  0.89040684  0.64452557  1
  O  O388  1  0.13805060  0.12729922  0.38010493  1
  O  O389  1  0.10946972  0.10782913  0.89926802  1
  O  O390  1  0.13718098  0.61886798  0.38481860  1
  O  O391  1  0.13738916  0.59390023  0.88236740  1
  O  O392  1  0.63685808  0.11653287  0.36850168  1
  O  O393  1  0.65425530  0.11312476  0.88366225  1
  O  O394  1  0.61519413  0.63874264  0.38007328  1
  O  O395  1  0.61099233  0.62286886  0.89172016  1
