# generated using pymatgen
data_V35Zn35O128
_symmetry_space_group_name_H-M   'P 1'
_cell_length_a   16.84800491
_cell_length_b   16.89989294
_cell_length_c   16.85113886
_cell_angle_alpha   90.06725480
_cell_angle_beta   89.86333677
_cell_angle_gamma   90.13206534
_symmetry_Int_Tables_number   1
_chemical_formula_structural   V35Zn35O128
_chemical_formula_sum   'V70 Zn70 O256'
_cell_volume   4797.98632161
_cell_formula_units_Z   2
loop_
 _symmetry_equiv_pos_site_id
 _symmetry_equiv_pos_as_xyz
  1  'x, y, z'
loop_
 _atom_site_type_symbol
 _atom_site_label
 _atom_site_symmetry_multiplicity
 _atom_site_fract_x
 _atom_site_fract_y
 _atom_site_fract_z
 _atom_site_occupancy
  V  V0  1  0.50658384  0.85594295  0.38118967  1
  V  V1  1  0.12170348  0.49711426  0.12685011  1
  V  V2  1  0.75881823  0.37925756  0.11562632  1
  V  V3  1  0.24328889  0.62519423  0.38839166  1
  V  V4  1  -0.00528540  0.50759982  0.00284235  1
  V  V5  1  0.25252405  0.48979065  0.24069285  1
  V  V6  1  0.38237623  0.49499225  0.37380260  1
  V  V7  1  0.13041408  0.63536773  0.00691767  1
  V  V8  1  0.13448022  0.86182407  0.23560837  1
  V  V9  1  0.87050363  0.88338363  0.48851509  1
  V  V10  1  0.62229138  0.02133570  0.62544473  1
  V  V11  1  0.75931280  0.87653656  0.13755621  1
  V  V12  1  0.49883808  0.63798498  0.61699638  1
  V  V13  1  0.87734283  0.49850363  0.87836868  1
  V  V14  1  0.24523581  0.11879703  0.86289184  1
  V  V15  1  0.00502365  0.00502318  0.51998212  1
  V  V16  1  0.13256605  0.10759557  0.00511370  1
  V  V17  1  0.87796996  0.63098999  0.75343214  1
  V  V18  1  0.00991479  0.60946461  0.61040018  1
  V  V19  1  0.49986155  0.01528041  0.51072802  1
  V  V20  1  0.00991876  0.75677751  0.74957487  1
  V  V21  1  0.75665147  0.50138345  0.24945456  1
  V  V22  1  0.62943520  0.38006031  0.24439705  1
  V  V23  1  0.63204662  0.64493825  0.49448739  1
  V  V24  1  0.11659670  0.14339638  0.51960757  1
  V  V25  1  -0.01404590  -0.01560390  -0.00929221  1
  V  V26  1  0.88707457  0.37840945  0.49872160  1
  V  V27  1  0.38046368  0.63831225  0.25357201  1
  V  V28  1  0.88918799  0.63876665  0.23793377  1
  V  V29  1  0.02455710  0.87707094  0.37691532  1
  V  V30  1  0.74918057  0.24822291  0.49924159  1
  V  V31  1  0.37359478  0.75443525  0.10648580  1
  V  V32  1  0.23514505  0.13393556  0.37917594  1
  V  V33  1  0.75481315  0.00936517  0.75126616  1
  V  V34  1  0.75766474  0.11416805  0.37370135  1
  V  V35  1  0.61533636  -0.00465522  0.14804024  1
  V  V36  1  0.50943239  0.37689341  0.38042859  1
  V  V37  1  0.24609958  0.60103183  0.86605246  1
  V  V38  1  0.61886883  0.10556456  0.00287036  1
  V  V39  1  0.75684164  0.63990607  0.38031323  1
  V  V40  1  0.37031956  0.86603508  0.51084463  1
  V  V41  1  0.11179152  0.25384344  0.89243915  1
  V  V42  1  0.62804487  0.24409106  0.36845221  1
  V  V43  1  0.36136427  0.36215718  0.48986275  1
  V  V44  1  0.75897921  0.75852043  -0.01146561  1
  V  V45  1  0.13182550  0.75624155  0.87239652  1
  V  V46  1  0.88535949  0.24966843  0.13025690  1
  V  V47  1  0.24531338  0.36741513  0.65591266  1
  V  V48  1  0.38337217  0.12476523  0.75696993  1
  V  V49  1  0.74517905  0.24274984  0.00334579  1
  V  V50  1  0.38612621  0.24931669  0.62393948  1
  V  V51  1  0.61517813  0.86606646  0.75509803  1
  V  V52  1  0.49789026  0.49758753  -0.01659091  1
  V  V53  1  0.87251937  0.10907587  0.25465750  1
  V  V54  1  0.75291711  0.12344158  0.87267806  1
  V  V55  1  0.87954961  0.24898433  0.64509435  1
  V  V56  1  0.62455079  0.63683185  -0.03112885  1
  V  V57  1  0.00571411  0.10805301  0.13117697  1
  V  V58  1  0.24489133  0.91297584  0.62798741  1
  V  V59  1  0.09493071  0.37663709  0.77103559  1
  V  V60  1  0.24780829  -0.00663918  0.25112374  1
  V  V61  1  0.01047333  0.36279232  0.35296455  1
  V  V62  1  0.38862325  0.02256920  0.37012808  1
  V  V63  1  0.74698812  0.38116411  0.62385730  1
  V  V64  1  0.74048232  0.51098193  0.75464739  1
  V  V65  1  0.51662364  0.62368198  0.13058245  1
  V  V66  1  0.88562514  0.50171432  0.37787287  1
  V  V67  1  0.50411670  0.27670420  0.77654473  1
  V  V68  1  0.75350330  0.86939250  0.62541722  1
  V  V69  1  0.62142674  0.49845173  0.60680888  1
  Zn  Zn70  1  0.92432334  0.33130847  -0.04402773  1
  Zn  Zn71  1  0.25637395  0.24673326  0.00568916  1
  Zn  Zn72  1  0.13220299  0.91430580  0.75618066  1
  Zn  Zn73  1  0.35828884  0.61604661  0.73213843  1
  Zn  Zn74  1  0.87649324  0.74515002  0.61613481  1
  Zn  Zn75  1  0.38929627  0.93619506  -0.08669340  1
  Zn  Zn76  1  0.19777179  0.16980555  0.19327588  1
  Zn  Zn77  1  0.17646197  0.19866284  0.69904243  1
  Zn  Zn78  1  0.19764021  0.68615734  0.19309630  1
  Zn  Zn79  1  0.19239606  0.67052897  0.68274230  1
  Zn  Zn80  1  0.60178112  0.21277287  0.15679527  1
  Zn  Zn81  1  0.68144084  0.20002552  0.69429453  1
  Zn  Zn82  1  0.69854726  0.69984599  0.19759370  1
  Zn  Zn83  1  0.68415690  0.68846335  0.68739576  1
  Zn  Zn84  1  0.30870544  0.31189542  0.30520096  1
  Zn  Zn85  1  0.31317832  0.30129167  0.82662621  1
  Zn  Zn86  1  0.31300957  0.81520727  0.33228726  1
  Zn  Zn87  1  0.29710698  0.78922206  0.77083355  1
  Zn  Zn88  1  0.81896206  0.30843369  0.30980892  1
  Zn  Zn89  1  0.77842090  0.32540487  0.82003716  1
  Zn  Zn90  1  0.81549122  0.81786929  0.30804790  1
  Zn  Zn91  1  0.81757453  0.82481601  0.81438636  1
  Zn  Zn92  1  0.18787649  0.43798218  0.42901192  1
  Zn  Zn93  1  0.18394629  0.43484363  0.95234479  1
  Zn  Zn94  1  0.19080959  0.95353759  0.44557583  1
  Zn  Zn95  1  0.19102913  0.93548637  0.93517481  1
  Zn  Zn96  1  0.69746425  0.43832377  0.43291193  1
  Zn  Zn97  1  0.67381812  0.44330918  0.93493208  1
  Zn  Zn98  1  0.68199031  0.93557591  0.44314276  1
  Zn  Zn99  1  0.68513285  0.93004211  0.93918614  1
  Zn  Zn100  1  0.31572147  -0.06191060  0.06998689  1
  Zn  Zn101  1  0.31163340  0.07757832  0.55285532  1
  Zn  Zn102  1  0.31236616  0.56975747  0.06392700  1
  Zn  Zn103  1  0.31706205  0.54618664  0.56879318  1
  Zn  Zn104  1  0.80926936  0.05474519  0.06952518  1
  Zn  Zn105  1  0.81823166  0.06524568  0.56750959  1
  Zn  Zn106  1  0.80386360  0.57734139  0.05874846  1
  Zn  Zn107  1  0.81808552  0.56508998  0.56317193  1
  Zn  Zn108  1  0.45099992  0.44649790  0.18587719  1
  Zn  Zn109  1  0.43122012  0.44612651  0.68211248  1
  Zn  Zn110  1  0.44619518  0.92651790  0.19714466  1
  Zn  Zn111  1  0.43444491  0.93769785  0.69023102  1
  Zn  Zn112  1  0.93972037  0.44345034  0.18526597  1
  Zn  Zn113  1  0.93391652  0.43878229  0.68998655  1
  Zn  Zn114  1  0.94448235  0.92666523  0.19268074  1
  Zn  Zn115  1  0.93628642  0.93902498  0.70821710  1
  Zn  Zn116  1  0.06041804  0.05302376  0.31856369  1
  Zn  Zn117  1  0.03733716  0.07434287  0.81278824  1
  Zn  Zn118  1  0.06492127  0.56205426  0.31359750  1
  Zn  Zn119  1  0.06216364  0.56756808  0.81235334  1
  Zn  Zn120  1  0.56254640  0.05274569  0.32342112  1
  Zn  Zn121  1  0.55930274  0.05591977  0.82056504  1
  Zn  Zn122  1  0.56912341  0.56976921  0.31467097  1
  Zn  Zn123  1  0.55020706  0.56948398  0.79911402  1
  Zn  Zn124  1  0.44281137  0.18543156  0.42338770  1
  Zn  Zn125  1  0.42834285  0.09189924  0.95617081  1
  Zn  Zn126  1  0.42589732  0.67803912  0.45828602  1
  Zn  Zn127  1  0.41259049  0.64192097  0.94709014  1
  Zn  Zn128  1  0.94048400  0.19024278  0.44221704  1
  Zn  Zn129  1  0.93767918  0.16372947  0.93503375  1
  Zn  Zn130  1  0.94058159  0.69737707  0.43718334  1
  Zn  Zn131  1  0.94168280  0.69139227  0.93927334  1
  Zn  Zn132  1  0.09403338  0.29002363  0.10821549  1
  Zn  Zn133  1  0.06691507  0.32603153  0.57360129  1
  Zn  Zn134  1  0.05746455  0.80918941  0.06731989  1
  Zn  Zn135  1  0.05114784  0.82713531  0.58136324  1
  Zn  Zn136  1  0.52066418  0.27984863  -0.00833013  1
  Zn  Zn137  1  0.56509664  0.30927059  0.55942441  1
  Zn  Zn138  1  0.58639357  0.79207523  0.08995474  1
  Zn  Zn139  1  0.56708622  0.82279699  0.56260066  1
  O  O140  1  0.11484687  0.12089075  0.11726484  1
  O  O141  1  0.12172726  0.13982945  0.61958852  1
  O  O142  1  0.13620698  0.62339359  0.11261663  1
  O  O143  1  0.11077970  0.62210635  0.62319001  1
  O  O144  1  0.63118745  0.11038431  0.11473473  1
  O  O145  1  0.62920310  0.12024965  0.62511878  1
  O  O146  1  0.61610902  0.62875341  0.13760005  1
  O  O147  1  0.62498897  0.61867299  0.61120941  1
  O  O148  1  0.38918024  0.37051081  0.37366290  1
  O  O149  1  0.34125582  0.36723368  0.92815420  1
  O  O150  1  0.38014550  0.88674919  0.39767061  1
  O  O151  1  0.38348849  0.84654376  0.82778455  1
  O  O152  1  0.88130057  0.37990044  0.38372521  1
  O  O153  1  0.86404614  0.39488058  0.87869670  1
  O  O154  1  0.86632141  0.88421841  0.38743321  1
  O  O155  1  0.90146561  0.89611666  0.81025061  1
  O  O156  1  0.26475084  0.01087779  0.37476397  1
  O  O157  1  0.23134802  0.01989552  0.86119783  1
  O  O158  1  0.26185855  0.50091938  0.36097990  1
  O  O159  1  0.25083485  0.50448588  0.89205103  1
  O  O160  1  0.74296803  0.01774385  0.38849880  1
  O  O161  1  0.74176698  0.00287715  0.85672287  1
  O  O162  1  0.76617619  0.50461037  0.36608118  1
  O  O163  1  0.75589308  0.50936408  0.85824252  1
  O  O164  1  0.24746997  0.50702532  0.13463346  1
  O  O165  1  0.21875283  0.45274961  0.58788605  1
  O  O166  1  0.26401908  0.99696859  0.15167249  1
  O  O167  1  0.24640836  1.01230071  0.62555750  1
  O  O168  1  0.76638664  0.48570001  0.13165857  1
  O  O169  1  0.74155683  0.49941545  0.62561319  1
  O  O170  1  0.73723142  0.98375005  0.12152896  1
  O  O171  1  0.73690803  1.00379582  0.63053409  1
  O  O172  1  -0.00196672  0.37188553  0.25252650  1
  O  O173  1  -0.00428524  0.37254914  0.76278439  1
  O  O174  1  0.02470885  0.88458846  0.26427210  1
  O  O175  1  0.02435850  0.85674257  0.72875025  1
  O  O176  1  0.52458947  0.38452702  0.25480857  1
  O  O177  1  0.48491123  0.37497973  0.75085076  1
  O  O178  1  0.49567086  0.86925027  0.28144106  1
  O  O179  1  0.51644857  0.87645420  0.73352018  1
  O  O180  1  0.45523737  0.09595606  0.32570113  1
  O  O181  1  0.48516842  0.14532467  0.76846130  1
  O  O182  1  0.48984393  0.61417987  0.24308667  1
  O  O183  1  0.48156663  0.61775303  0.72054971  1
  O  O184  1  0.99621110  0.11667850  0.23859135  1
  O  O185  1  0.96102319  0.15311702  0.81963799  1
  O  O186  1  0.98702643  0.62088580  0.25805057  1
  O  O187  1  0.99071033  0.62768870  0.74013744  1
  O  O188  1  0.37343149  0.19606904  0.02375673  1
  O  O189  1  0.38800269  0.25539565  0.51013579  1
  O  O190  1  0.37784004  0.73572267  0.00757251  1
  O  O191  1  0.36375766  0.76826388  0.50744676  1
  O  O192  1  0.87017727  0.24197092  0.01008736  1
  O  O193  1  0.86734390  0.26521312  0.50529061  1
  O  O194  1  0.85779720  0.73661245  0.00183543  1
  O  O195  1  0.88102599  0.77801911  0.50477987  1
  O  O196  1  0.10753538  0.24231330  0.50326170  1
  O  O197  1  0.13589920  0.24022301  1.00748212  1
  O  O198  1  0.12984890  0.74980979  0.49832705  1
  O  O199  1  0.11983835  0.74266982  0.98473239  1
  O  O200  1  0.63744023  0.25622567  0.48370450  1
  O  O201  1  0.64437014  0.24651343  1.00358819  1
  O  O202  1  0.63677816  0.74276691  0.50511660  1
  O  O203  1  0.62662046  0.74159786  0.99353966  1
  O  O204  1  0.51990632  0.26656491  0.10518967  1
  O  O205  1  0.48784840  0.26075153  0.63064873  1
  O  O206  1  0.49194929  0.73187544  0.12547489  1
  O  O207  1  0.51330069  0.73643927  0.61898286  1
  O  O208  1  0.98830809  0.23664187  0.11783268  1
  O  O209  1  0.97858643  0.26849229  0.63281110  1
  O  O210  1  1.00528327  0.72859894  0.12184358  1
  O  O211  1  0.99901817  0.73806195  0.63619016  1
  O  O212  1  -0.00755244  0.26523717  0.37362234  1
  O  O213  1  0.01133767  0.26079092  0.91499010  1
  O  O214  1  -0.00428628  0.77959652  0.38255364  1
  O  O215  1  0.00914305  0.74553484  0.85873887  1
  O  O216  1  0.52104837  0.25686857  0.37253935  1
  O  O217  1  0.49656056  0.27350602  0.87800910  1
  O  O218  1  0.48539552  0.75830323  0.39888141  1
  O  O219  1  0.44888433  0.79577218  0.85818042  1
  O  O220  1  0.22452898  0.12838009  0.49411318  1
  O  O221  1  0.23426664  0.11333762  0.99103207  1
  O  O222  1  0.26015232  0.60136289  0.48665148  1
  O  O223  1  0.23577730  0.62540572  0.98978049  1
  O  O224  1  0.76427267  0.13956785  0.48643877  1
  O  O225  1  0.74161458  0.13013214  1.00190428  1
  O  O226  1  0.75032799  0.62439180  0.48850228  1
  O  O227  1  0.73042860  0.63834287  0.99770644  1
  O  O228  1  0.28516116  0.36607383  -0.01443566  1
  O  O229  1  0.26588341  0.35136952  0.46901982  1
  O  O230  1  0.29098815  0.89587799  -0.03272905  1
  O  O231  1  0.26321024  0.89329463  0.51303442  1
  O  O232  1  0.75120583  0.37029387  0.01270441  1
  O  O233  1  0.75836283  0.36835305  0.50439548  1
  O  O234  1  0.74880282  0.86464259  0.00741061  1
  O  O235  1  0.76125969  0.88891853  0.51462295  1
  O  O236  1  0.13906551  0.50869170  0.23561590  1
  O  O237  1  0.11327639  0.47480633  0.76734069  1
  O  O238  1  0.14181960  0.98758270  0.25913612  1
  O  O239  1  0.10031208  1.01980878  0.74385237  1
  O  O240  1  0.64415004  0.49094782  0.25839739  1
  O  O241  1  0.63787712  0.51685276  0.73642302  1
  O  O242  1  0.63102642  1.00740966  0.24784640  1
  O  O243  1  0.62554177  1.00165853  0.73589067  1
  O  O244  1  0.36670157  -0.01630802  0.27267785  1
  O  O245  1  0.38043941  0.02719288  0.73919067  1
  O  O246  1  0.36867838  0.50033315  0.25363444  1
  O  O247  1  0.34355988  0.51602905  0.67540613  1
  O  O248  1  0.88053570  0.01050948  0.25038182  1
  O  O249  1  0.85187683  0.01937631  0.73419705  1
  O  O250  1  0.87123405  0.50692573  0.25838836  1
  O  O251  1  0.86923901  0.51099535  0.75924644  1
  O  O252  1  0.10828604  0.38207904  0.37213984  1
  O  O253  1  0.12732353  0.36386568  0.88091050  1
  O  O254  1  0.12560797  0.87383445  0.38767282  1
  O  O255  1  0.13223577  0.85982255  0.86730070  1
  O  O256  1  0.62818770  0.36908574  0.36648181  1
  O  O257  1  0.67678859  0.36097365  0.86377652  1
  O  O258  1  0.60739136  0.86588487  0.39953095  1
  O  O259  1  0.62228529  0.88758304  0.85436539  1
  O  O260  1  0.35697432  0.17765742  0.10009822  1
  O  O261  1  0.36820252  0.14633685  0.63491913  1
  O  O262  1  0.38129810  0.63453072  0.14193770  1
  O  O263  1  0.40689829  0.62838908  0.57201125  1
  O  O264  1  0.88278038  0.12757303  0.13575390  1
  O  O265  1  0.86597720  0.15013375  0.62662097  1
  O  O266  1  0.87134315  0.61934970  0.13997928  1
  O  O267  1  0.88389907  0.62678764  0.63379996  1
  O  O268  1  0.28513478  0.21538327  0.12057284  1
  O  O269  1  0.26069677  0.26490190  0.63759624  1
  O  O270  1  0.27484986  0.74523358  0.12969137  1
  O  O271  1  0.19025949  0.73211108  0.53576168  1
  O  O272  1  0.76387015  0.25889897  0.11350939  1
  O  O273  1  0.74731924  0.26386710  0.61745208  1
  O  O274  1  0.73265989  0.76738475  0.11345510  1
  O  O275  1  0.75376921  0.76668064  0.63028643  1
  O  O276  1  0.25423503  0.23090509  0.35799962  1
  O  O277  1  0.23691319  0.23774555  0.88805489  1
  O  O278  1  0.25909868  0.72511223  0.38029429  1
  O  O279  1  0.23179659  0.73646692  0.86173214  1
  O  O280  1  0.74594053  0.24694278  0.37977993  1
  O  O281  1  0.76328389  0.23248731  0.89266060  1
  O  O282  1  0.75864883  0.73779717  0.37503652  1
  O  O283  1  0.75497765  0.76536934  0.88589523  1
  O  O284  1  0.00744050  0.11004970  0.01343346  1
  O  O285  1  0.00425322  0.11501865  0.50067169  1
  O  O286  1  0.01420109  0.62031844  -0.00315225  1
  O  O287  1  -0.00779909  0.62865357  0.51128198  1
  O  O288  1  0.52419347  0.14292725  -0.00576964  1
  O  O289  1  0.50298645  0.11375010  0.49542587  1
  O  O290  1  0.51746644  0.62722218  0.00799852  1
  O  O291  1  0.53010003  0.62382889  0.49489927  1
  O  O292  1  0.49886956  0.37133554  0.48376330  1
  O  O293  1  0.50299047  0.39921087  0.99798732  1
  O  O294  1  0.48340698  0.88337041  0.51096831  1
  O  O295  1  0.48452171  0.82963465  0.91515210  1
  O  O296  1  0.98756163  0.37675888  0.50007801  1
  O  O297  1  0.99041240  0.40560816  1.01116611  1
  O  O298  1  0.99308681  0.88804521  0.49896187  1
  O  O299  1  1.00437842  0.88571593  1.00684503  1
  O  O300  1  0.49287659  0.49038855  0.36588945  1
  O  O301  1  0.49904207  0.51065270  0.88134513  1
  O  O302  1  0.49906078  0.98170138  0.39899964  1
  O  O303  1  0.47117618  1.01122363  0.87620815  1
  O  O304  1  0.98941709  0.48743117  0.36896616  1
  O  O305  1  0.98337483  0.50593129  0.88185167  1
  O  O306  1  1.00159615  0.98379156  0.39024326  1
  O  O307  1  0.99866119  0.99724748  0.89131742  1
  O  O308  1  -0.00124096  0.00646224  0.12221295  1
  O  O309  1  -0.00469304  -0.00708738  0.61986068  1
  O  O310  1  0.01563831  0.50834840  0.12494331  1
  O  O311  1  -0.00542065  0.50926522  0.62421405  1
  O  O312  1  0.51321825  0.00228110  0.14365580  1
  O  O313  1  0.50911065  0.00602814  0.62006329  1
  O  O314  1  0.49855541  0.51824820  0.11280160  1
  O  O315  1  0.51964453  0.50430602  0.61925991  1
  O  O316  1  0.25154055  0.39063655  0.24692981  1
  O  O317  1  0.26578765  0.38188759  0.75287626  1
  O  O318  1  0.24222345  0.87989936  0.26548061  1
  O  O319  1  0.24563898  0.88630859  0.73321798  1
  O  O320  1  0.75247432  0.38395819  0.24765811  1
  O  O321  1  0.75553634  0.40209024  0.73132432  1
  O  O322  1  0.74296291  0.86825712  0.23843887  1
  O  O323  1  0.74144856  0.89278978  0.73898915  1
  O  O324  1  0.25002931  0.10471857  0.26780909  1
  O  O325  1  0.25736618  0.14146741  0.76004520  1
  O  O326  1  0.26766288  0.61567674  0.26092798  1
  O  O327  1  0.21894247  0.59280001  0.76903654  1
  O  O328  1  0.76607849  0.11979136  0.26425927  1
  O  O329  1  0.73845504  0.12385706  0.76434769  1
  O  O330  1  0.76278696  0.61848931  0.26169488  1
  O  O331  1  0.76535045  0.61823814  0.73639932  1
  O  O332  1  0.34753094  0.11898538  0.41034440  1
  O  O333  1  0.35535907  0.13058311  0.86753335  1
  O  O334  1  0.37884211  0.61048506  0.36883513  1
  O  O335  1  0.35023941  0.63030072  0.85237643  1
  O  O336  1  0.87031971  0.13036575  0.36512864  1
  O  O337  1  0.84857113  0.10145852  0.89178853  1
  O  O338  1  0.87024927  0.61986021  0.37476319  1
  O  O339  1  0.87804178  0.62139695  0.85811416  1
  O  O340  1  0.13377773  0.40033110  0.10535290  1
  O  O341  1  0.13503776  0.35036209  0.66731014  1
  O  O342  1  0.13194646  0.87054074  0.13589394  1
  O  O343  1  0.14689885  0.87702829  0.61637105  1
  O  O344  1  0.64947646  0.37175007  0.14152583  1
  O  O345  1  0.63329235  0.38929814  0.61386760  1
  O  O346  1  0.62352680  0.88982864  0.12920967  1
  O  O347  1  0.64015172  0.88543187  0.62929457  1
  O  O348  1  0.14687846  0.26554474  0.20369698  1
  O  O349  1  0.11501673  0.25264058  0.78463523  1
  O  O350  1  0.13406857  0.76205104  0.25099311  1
  O  O351  1  0.11530162  0.73409350  0.75830536  1
  O  O352  1  0.63583167  0.26456296  0.25903366  1
  O  O353  1  0.60152997  0.25771805  0.75010317  1
  O  O354  1  0.62210736  0.72703238  0.27527160  1
  O  O355  1  0.63122120  0.76589754  0.74876157  1
  O  O356  1  0.39031415  0.29130627  0.21345946  1
  O  O357  1  0.38546467  0.25220759  0.74472322  1
  O  O358  1  0.37805485  0.73708697  0.26135898  1
  O  O359  1  0.29868850  0.70815303  0.69192318  1
  O  O360  1  0.87222468  0.23691486  0.23500338  1
  O  O361  1  0.84933931  0.26969053  0.74038962  1
  O  O362  1  0.87553526  0.73778301  0.25253008  1
  O  O363  1  0.88601000  0.73968682  0.74992763  1
  O  O364  1  0.37023691  0.47318963  0.48318292  1
  O  O365  1  0.39484452  0.53169747  0.99578509  1
  O  O366  1  0.38877435  1.00459555  0.49839242  1
  O  O367  1  0.39338421  1.00007245  1.01265850  1
  O  O368  1  0.86791962  0.48629721  0.49109538  1
  O  O369  1  0.87505867  0.52146610  0.98367905  1
  O  O370  1  0.88631183  0.99259109  0.50790498  1
  O  O371  1  0.88615527  0.99816835  1.00789333  1
  O  O372  1  0.11851556  0.00535747  -0.00260688  1
  O  O373  1  0.11053398  0.01239194  0.50713057  1
  O  O374  1  0.11769994  0.51512988  0.00859940  1
  O  O375  1  0.15057092  0.44285949  0.53983845  1
  O  O376  1  0.61808742  0.00385044  0.00549434  1
  O  O377  1  0.61293421  -0.00165753  0.51613944  1
  O  O378  1  0.61695154  0.52224479  -0.01009924  1
  O  O379  1  0.63591619  0.50657712  0.50520254  1
  O  O380  1  0.39244290  0.34067826  0.15555357  1
  O  O381  1  0.35954236  0.36681602  0.60554109  1
  O  O382  1  0.38844641  0.85849602  0.12366760  1
  O  O383  1  0.35820645  0.88634773  0.62115656  1
  O  O384  1  0.87089676  0.36077617  0.13100161  1
  O  O385  1  0.86502500  0.37699840  0.61252373  1
  O  O386  1  0.86118290  0.87660390  0.13482619  1
  O  O387  1  0.86021545  0.88043551  0.62848312  1
  O  O388  1  0.13076231  0.12302486  0.37947817  1
  O  O389  1  0.12367610  0.13637046  0.89158568  1
  O  O390  1  0.14329457  0.61017948  0.37776758  1
  O  O391  1  0.12893711  0.62775660  0.88755160  1
  O  O392  1  0.63957930  0.13903793  0.36483025  1
  O  O393  1  0.63936815  0.11346401  0.89253349  1
  O  O394  1  0.64524291  0.62104204  0.38423382  1
  O  O395  1  0.61611586  0.63762244  0.86940365  1
