# generated using pymatgen
data_V35Zn35O128
_symmetry_space_group_name_H-M   'P 1'
_cell_length_a   16.84098636
_cell_length_b   16.84457202
_cell_length_c   16.86473980
_cell_angle_alpha   90.03058125
_cell_angle_beta   90.27156303
_cell_angle_gamma   90.07274598
_symmetry_Int_Tables_number   1
_chemical_formula_structural   V35Zn35O128
_chemical_formula_sum   'V70 Zn70 O256'
_cell_volume   4784.11773416
_cell_formula_units_Z   2
loop_
 _symmetry_equiv_pos_site_id
 _symmetry_equiv_pos_as_xyz
  1  'x, y, z'
loop_
 _atom_site_type_symbol
 _atom_site_label
 _atom_site_symmetry_multiplicity
 _atom_site_fract_x
 _atom_site_fract_y
 _atom_site_fract_z
 _atom_site_occupancy
  V  V0  1  0.23829310  0.12259712  0.86024245  1
  V  V1  1  0.23900105  0.23727675  0.00095785  1
  V  V2  1  0.12041463  0.03704930  0.58678307  1
  V  V3  1  0.01194208  0.87383074  0.37463410  1
  V  V4  1  0.75365648  0.36215734  0.63095532  1
  V  V5  1  0.37759241  0.50005469  0.38529682  1
  V  V6  1  0.62674117  0.75232762  0.36552961  1
  V  V7  1  0.24415766  0.50383596  0.24896271  1
  V  V8  1  0.52383899  0.36367977  0.85102503  1
  V  V9  1  0.76042621  -0.00369945  0.74112441  1
  V  V10  1  0.63001643  0.14452509  0.49380232  1
  V  V11  1  0.63134428  0.62164560  0.50161478  1
  V  V12  1  0.36847584  0.38241567  -0.01609139  1
  V  V13  1  0.51304136  0.49410088  -0.00116496  1
  V  V14  1  0.50440675  0.00524746  -0.00188975  1
  V  V15  1  0.38760137  0.63058211  0.25306797  1
  V  V16  1  -0.00656284  0.23138226  0.24774399  1
  V  V17  1  0.75122129  0.59099185  0.86957097  1
  V  V18  1  0.51012793  0.87355233  0.87266510  1
  V  V19  1  0.24703214  0.76254428  0.50710971  1
  V  V20  1  0.36986809  0.36072043  0.50643902  1
  V  V21  1  0.63254532  0.87690792  0.73263631  1
  V  V22  1  -0.00563697  0.38989596  0.38093657  1
  V  V23  1  0.37761387  0.11739855  0.24779438  1
  V  V24  1  0.87545963  0.36995580  -0.01570385  1
  V  V25  1  0.14481061  0.88152497  0.74435000  1
  V  V26  1  0.01237630  0.24859111  0.74722470  1
  V  V27  1  0.14268324  0.74428420  0.88103267  1
  V  V28  1  0.24380920  0.62957517  0.37985298  1
  V  V29  1  -0.00727829  0.88396458  0.89011328  1
  V  V30  1  -0.01755091  0.62959263  0.11692552  1
  V  V31  1  0.50833124  0.12464104  0.12406804  1
  V  V32  1  0.62333111  0.14437170  -0.01239355  1
  V  V33  1  0.23807087  0.38388772  0.62809153  1
  V  V34  1  0.63547741  0.63814288  -0.00734603  1
  V  V35  1  0.14579616  0.62520342  0.00685800  1
  V  V36  1  0.76708504  0.12785981  0.88248882  1
  V  V37  1  0.49938660  0.24899304  0.25890644  1
  V  V38  1  0.02339505  0.37283529  0.87105153  1
  V  V39  1  0.37420522  0.61642698  0.76566465  1
  V  V40  1  0.49921175  0.86623948  0.36908704  1
  V  V41  1  0.12489679  0.61126925  0.50599389  1
  V  V42  1  0.36855888  0.00735141  0.86385990  1
  V  V43  1  0.37845959  -0.00619052  0.38747356  1
  V  V44  1  0.24602440  0.37938285  0.12612230  1
  V  V45  1  0.49660708  0.61410639  0.62264915  1
  V  V46  1  0.50391447  0.37648960  0.38379869  1
  V  V47  1  0.63906852  0.49909962  0.63925186  1
  V  V48  1  0.86318017  0.00521372  0.37194157  1
  V  V49  1  0.85445390  0.39003297  0.48283954  1
  V  V50  1  0.61630819  0.38374937  0.23232918  1
  V  V51  1  0.23513859  -0.00304927  0.24904949  1
  V  V52  1  0.00124893  0.75578491  0.75248965  1
  V  V53  1  0.24873776  0.14026322  0.38556440  1
  V  V54  1  0.23650360  0.50413330  0.76033761  1
  V  V55  1  0.88190523  0.87832260  0.50474316  1
  V  V56  1  0.23849157  0.87266409  0.12836833  1
  V  V57  1  0.86755339  0.62790711  0.27454767  1
  V  V58  1  0.49309664  0.13980552  0.63135239  1
  V  V59  1  0.88360524  0.12687441  0.72346197  1
  V  V60  1  0.74671705  0.76037331  0.51312678  1
  V  V61  1  0.84532994  0.12041983  0.23015053  1
  V  V62  1  0.87512126  0.60813238  0.75295240  1
  V  V63  1  0.12056505  0.36995886  0.25598555  1
  V  V64  1  0.01104780  0.75404028  0.24964123  1
  V  V65  1  0.00552985  0.61149315  0.62562990  1
  V  V66  1  0.51723858  -0.00633162  0.50935883  1
  V  V67  1  0.37489884  0.76145536  0.62689359  1
  V  V68  1  0.76290630  0.37428707  0.13007126  1
  V  V69  1  0.37081401  0.87086136  0.00614125  1
  Zn  Zn70  1  0.51403910  0.74101275  0.75551278  1
  Zn  Zn71  1  0.37292637  0.25228579  0.12383842  1
  Zn  Zn72  1  0.38556622  0.75412382  0.13634199  1
  Zn  Zn73  1  0.52792048  0.62361484  0.14121444  1
  Zn  Zn74  1  0.00101914  0.50314301  -0.00302443  1
  Zn  Zn75  1  0.87632154  0.75320207  0.62939858  1
  Zn  Zn76  1  0.18553471  0.18717418  0.18651480  1
  Zn  Zn77  1  0.18307527  0.18692647  0.67846777  1
  Zn  Zn78  1  0.19219553  0.69093078  0.18554574  1
  Zn  Zn79  1  0.19014465  0.68826364  0.69022407  1
  Zn  Zn80  1  0.67839475  0.19436109  0.19265990  1
  Zn  Zn81  1  0.68231456  0.17830190  0.68083279  1
  Zn  Zn82  1  0.74948739  0.51718015  0.24708587  1
  Zn  Zn83  1  0.68911298  0.68858268  0.69389143  1
  Zn  Zn84  1  0.31633562  0.31450367  0.31059260  1
  Zn  Zn85  1  0.29221998  0.31036170  0.81029717  1
  Zn  Zn86  1  0.30983826  0.81392098  0.31656771  1
  Zn  Zn87  1  0.32399838  0.80887853  0.81503245  1
  Zn  Zn88  1  0.81508699  0.31271139  0.30489180  1
  Zn  Zn89  1  0.80996012  0.30220863  0.80494949  1
  Zn  Zn90  1  0.82500624  0.79410738  0.32740838  1
  Zn  Zn91  1  0.81966175  0.81653471  0.81067164  1
  Zn  Zn92  1  0.18843564  0.43297870  0.43893804  1
  Zn  Zn93  1  0.18775168  0.44590529  0.94186940  1
  Zn  Zn94  1  0.19117900  0.94671594  0.44221918  1
  Zn  Zn95  1  0.17914059  0.93847390  0.93489259  1
  Zn  Zn96  1  0.68570987  0.44532251  0.42504060  1
  Zn  Zn97  1  0.69125245  0.41725257  0.93893681  1
  Zn  Zn98  1  0.68834895  0.93243255  0.43416653  1
  Zn  Zn99  1  0.68416760  0.95849231  0.92518947  1
  Zn  Zn100  1  0.31510043  0.05359290  0.06382771  1
  Zn  Zn101  1  0.30573557  0.06431394  0.57461347  1
  Zn  Zn102  1  0.32219998  0.55829621  0.06654621  1
  Zn  Zn103  1  0.31068868  0.55956105  0.56714223  1
  Zn  Zn104  1  0.80692863  0.19841380  0.06108215  1
  Zn  Zn105  1  0.80855235  0.05765534  0.55908336  1
  Zn  Zn106  1  0.80877917  0.55128695  0.06229071  1
  Zn  Zn107  1  0.81691674  0.56674555  0.55961304  1
  Zn  Zn108  1  0.43365210  0.44650595  0.18294866  1
  Zn  Zn109  1  0.43614974  0.43718248  0.69001645  1
  Zn  Zn110  1  0.47663810  0.95027869  0.20175265  1
  Zn  Zn111  1  0.44101154  0.94506254  0.68894863  1
  Zn  Zn112  1  0.93815891  0.45580811  0.18620614  1
  Zn  Zn113  1  0.93821357  0.42333746  0.68077933  1
  Zn  Zn114  1  0.95512046  0.95435110  0.19658992  1
  Zn  Zn115  1  0.95306425  0.94638687  0.68370612  1
  Zn  Zn116  1  0.05917338  0.06304211  0.34463213  1
  Zn  Zn117  1  0.06125159  0.05885609  0.81159608  1
  Zn  Zn118  1  0.05986532  0.56820596  0.30966132  1
  Zn  Zn119  1  0.06116875  0.56171838  0.82095541  1
  Zn  Zn120  1  0.58201715  0.05512697  0.31502430  1
  Zn  Zn121  1  0.56674590  0.06146585  0.80543011  1
  Zn  Zn122  1  0.57853819  0.55598206  0.32137990  1
  Zn  Zn123  1  0.55697182  0.55181902  0.81884957  1
  Zn  Zn124  1  0.43657729  0.17966270  0.44390011  1
  Zn  Zn125  1  0.42774688  0.19530196  0.93324141  1
  Zn  Zn126  1  0.43471647  0.68719184  0.44431122  1
  Zn  Zn127  1  0.44462777  0.68799970  0.94677825  1
  Zn  Zn128  1  0.79880450  0.19838412  0.43642075  1
  Zn  Zn129  1  0.95312265  0.19151984  0.94306970  1
  Zn  Zn130  1  0.94386252  0.69326356  0.44052560  1
  Zn  Zn131  1  0.93360618  0.68915614  0.93040503  1
  Zn  Zn132  1  0.05817770  0.30993366  0.06759166  1
  Zn  Zn133  1  -0.03505761  0.26968950  0.54340603  1
  Zn  Zn134  1  0.06163710  0.80357911  0.06187704  1
  Zn  Zn135  1  0.06604041  0.80925521  0.56549710  1
  Zn  Zn136  1  0.55118511  0.30866735  0.05942734  1
  Zn  Zn137  1  0.56625939  0.31431910  0.57017590  1
  Zn  Zn138  1  0.55282338  0.80013525  0.04992702  1
  Zn  Zn139  1  0.55302097  0.80945063  0.56249969  1
  O  O140  1  0.11058064  0.11540194  0.14544150  1
  O  O141  1  0.12193111  0.14004234  0.59813341  1
  O  O142  1  0.12128978  0.64024216  0.10830922  1
  O  O143  1  0.11641350  0.62545222  0.61966304  1
  O  O144  1  0.61416653  0.13366824  0.11034606  1
  O  O145  1  0.61187005  0.12660030  0.60546570  1
  O  O146  1  0.63316428  0.61995344  0.09157320  1
  O  O147  1  0.61941897  0.62083834  0.62320013  1
  O  O148  1  0.37870020  0.38152065  0.38532210  1
  O  O149  1  0.36211212  0.37178236  0.88461714  1
  O  O150  1  0.38185996  0.88542077  0.37852299  1
  O  O151  1  0.38254162  0.88667524  0.88264971  1
  O  O152  1  0.87853441  0.38692399  0.37178176  1
  O  O153  1  0.86452373  0.36956447  0.88486839  1
  O  O154  1  0.88244952  0.87698483  0.38654563  1
  O  O155  1  0.89300498  0.87897698  0.87104267  1
  O  O156  1  0.26559640  -0.00173588  0.36352312  1
  O  O157  1  0.26080579  0.00958588  0.88046022  1
  O  O158  1  0.25722902  0.50938523  0.37181487  1
  O  O159  1  0.24833252  0.49903861  0.86027561  1
  O  O160  1  0.76504691  -0.02013009  0.36435179  1
  O  O161  1  0.75320346  0.01888406  0.86124425  1
  O  O162  1  0.68934779  0.51964206  0.34306456  1
  O  O163  1  0.75211389  0.49281743  0.86835440  1
  O  O164  1  0.25612239  0.49353749  0.13949888  1
  O  O165  1  0.24984501  0.49090735  0.63361203  1
  O  O166  1  0.25535727  0.98941628  0.14097120  1
  O  O167  1  0.21705643  1.00726253  0.61406108  1
  O  O168  1  0.74679711  0.48240135  0.13191044  1
  O  O169  1  0.74107547  0.50488334  0.62506512  1
  O  O170  1  0.76342413  0.96249338  0.07134009  1
  O  O171  1  0.75141180  1.00031586  0.64145872  1
  O  O172  1  0.02123464  0.39552180  0.24240902  1
  O  O173  1  -0.00536062  0.36356674  0.76272200  1
  O  O174  1  -0.00129703  0.86533977  0.25695043  1
  O  O175  1  0.00729779  0.86204761  0.75520895  1
  O  O176  1  0.49480694  0.36372850  0.25160703  1
  O  O177  1  0.50653406  0.37509326  0.75169043  1
  O  O178  1  0.48718668  0.85836632  0.26970599  1
  O  O179  1  0.51683598  0.88402212  0.76029235  1
  O  O180  1  0.49713699  0.13676780  0.24627200  1
  O  O181  1  0.50716157  0.11794069  0.73042948  1
  O  O182  1  0.49101556  0.61505199  0.25527210  1
  O  O183  1  0.49394795  0.62338695  0.74449691  1
  O  O184  1  1.00871659  0.13209167  0.26146368  1
  O  O185  1  0.98936090  0.13203842  0.75871651  1
  O  O186  1  0.99344536  0.63479291  0.24102783  1
  O  O187  1  0.99306931  0.62944919  0.74547569  1
  O  O188  1  0.36152597  0.26488865  0.00401176  1
  O  O189  1  0.37595509  0.26201699  0.49809710  1
  O  O190  1  0.37491005  0.76949791  -0.00887968  1
  O  O191  1  0.36566303  0.74432863  0.51780958  1
  O  O192  1  0.88508288  0.26398405  0.00901249  1
  O  O193  1  0.86797128  0.27427289  0.48760756  1
  O  O194  1  0.83355704  0.75279106  -0.03654245  1
  O  O195  1  0.86257362  0.75822009  0.50029203  1
  O  O196  1  0.04274841  0.19937667  0.47163301  1
  O  O197  1  0.13948802  0.25239070  1.00621887  1
  O  O198  1  0.14315332  0.73940902  0.51028836  1
  O  O199  1  0.12995129  0.74282344  0.98809790  1
  O  O200  1  0.61977607  0.24463751  0.49390984  1
  O  O201  1  0.61711932  0.24375104  0.99165266  1
  O  O202  1  0.63665927  0.74889100  0.50710286  1
  O  O203  1  0.62875091  0.73803243  0.98645162  1
  O  O204  1  0.49246139  0.24061230  0.13468850  1
  O  O205  1  0.49893838  0.24173205  0.62439416  1
  O  O206  1  0.48938180  0.72449403  0.10150234  1
  O  O207  1  0.49005829  0.74004811  0.63263550  1
  O  O208  1  0.99880475  0.25614812  0.14846110  1
  O  O209  1  0.99964406  0.25969162  0.64698697  1
  O  O210  1  0.99899562  0.74414893  0.13810889  1
  O  O211  1  1.00274328  0.74020493  0.64169039  1
  O  O212  1  -0.00770463  0.28443596  0.33998170  1
  O  O213  1  -0.00121258  0.26225599  0.86662106  1
  O  O214  1  0.00140033  0.76146794  0.36451168  1
  O  O215  1  0.00488050  0.75325590  0.86348821  1
  O  O216  1  0.48734540  0.26047558  0.36445697  1
  O  O217  1  0.48807649  0.27099065  0.87568324  1
  O  O218  1  0.50681296  0.76244659  0.39425163  1
  O  O219  1  0.49281906  0.77015080  0.87052602  1
  O  O220  1  0.26272102  0.12495201  0.48382106  1
  O  O221  1  0.25427674  0.13617193  1.00705100  1
  O  O222  1  0.24051627  0.62621871  0.49886810  1
  O  O223  1  0.24569204  0.62265697  1.00842333  1
  O  O224  1  0.73707311  0.12765232  0.50526102  1
  O  O225  1  0.73575728  0.13199348  0.99074274  1
  O  O226  1  0.73816434  0.63999915  0.50506969  1
  O  O227  1  0.74608754  0.60937953  0.97998594  1
  O  O228  1  0.25444629  0.37366110  0.00684636  1
  O  O229  1  0.26134425  0.37723503  0.51113539  1
  O  O230  1  0.26282300  0.88579811  0.01634054  1
  O  O231  1  0.24680705  0.86148636  0.49731344  1
  O  O232  1  0.76680624  0.37364534  0.01554212  1
  O  O233  1  0.75075851  0.38218790  0.49187898  1
  O  O234  1  0.75927302  0.91120435  0.01753818  1
  O  O235  1  0.76115371  0.86667815  0.50359234  1
  O  O236  1  0.14046745  0.49890589  0.25716208  1
  O  O237  1  0.13716498  0.51532897  0.74876342  1
  O  O238  1  0.13770991  0.99926091  0.25748726  1
  O  O239  1  0.12942638  0.98026587  0.76012220  1
  O  O240  1  0.59332596  0.48171017  0.22805583  1
  O  O241  1  0.62822490  0.50451077  0.73764232  1
  O  O242  1  0.58206419  0.99022140  0.23000486  1
  O  O243  1  0.64267921  0.98720500  0.75491952  1
  O  O244  1  0.38632913  0.00912777  0.26100245  1
  O  O245  1  0.37425312  -0.00451791  0.76468872  1
  O  O246  1  0.36593321  0.50882113  0.26334048  1
  O  O247  1  0.37440691  0.51309264  0.75141856  1
  O  O248  1  0.88100412  0.01975948  0.25735293  1
  O  O249  1  0.87362023  0.00918772  0.74383233  1
  O  O250  1  0.87216905  0.52227466  0.24990818  1
  O  O251  1  0.87970576  0.51060328  0.74113975  1
  O  O252  1  0.11717063  0.38005930  0.36456716  1
  O  O253  1  0.12279124  0.37147818  0.87641739  1
  O  O254  1  0.11073537  0.88209067  0.38150344  1
  O  O255  1  0.12044229  0.85916874  0.86917648  1
  O  O256  1  0.60451817  0.37701962  0.36302486  1
  O  O257  1  0.62424063  0.36296867  0.86695298  1
  O  O258  1  0.61097642  0.86587323  0.37533799  1
  O  O259  1  0.61235391  0.87950338  0.88149412  1
  O  O260  1  0.38351139  0.12380346  0.13523570  1
  O  O261  1  0.39266976  0.12030666  0.61699734  1
  O  O262  1  0.36737270  0.62467334  0.15051439  1
  O  O263  1  0.38966118  0.62292899  0.62895757  1
  O  O264  1  0.85529982  0.11830752  0.13038016  1
  O  O265  1  0.88346696  0.12351919  0.62349158  1
  O  O266  1  0.88095223  0.62926822  0.11665485  1
  O  O267  1  0.88804768  0.62880714  0.63303752  1
  O  O268  1  0.25149688  0.25769084  0.11839893  1
  O  O269  1  0.27012604  0.26825492  0.65170394  1
  O  O270  1  0.26517658  0.77030401  0.13811898  1
  O  O271  1  0.26350739  0.74453061  0.61872213  1
  O  O272  1  0.74382084  0.26588845  0.13002045  1
  O  O273  1  0.74174956  0.26336522  0.62223920  1
  O  O274  1  0.68869889  0.80751759  0.14397592  1
  O  O275  1  0.75529257  0.74974887  0.61715203  1
  O  O276  1  0.25794165  0.24018190  0.37163132  1
  O  O277  1  0.25364425  0.23293336  0.88808404  1
  O  O278  1  0.26133864  0.73879059  0.39411777  1
  O  O279  1  0.24144055  0.74701181  0.87209008  1
  O  O280  1  0.74015704  0.24760114  0.35486764  1
  O  O281  1  0.74345323  0.22572087  0.85782232  1
  O  O282  1  0.73339104  0.76005323  0.38858180  1
  O  O283  1  0.78015320  0.75306446  0.90649663  1
  O  O284  1  0.01125796  0.10960193  0.01928666  1
  O  O285  1  0.00580706  0.13800672  0.45151507  1
  O  O286  1  -0.00257967  0.63467106  0.00866709  1
  O  O287  1  0.01311847  0.63367463  0.51460734  1
  O  O288  1  0.50388386  0.12618597  0.00285119  1
  O  O289  1  0.50857408  0.11272305  0.50441094  1
  O  O290  1  0.52370920  0.60517792  -0.02866270  1
  O  O291  1  0.51152403  0.63325540  0.51865391  1
  O  O292  1  0.49340003  0.37030832  0.48722902  1
  O  O293  1  0.48143244  0.38115773  1.00208309  1
  O  O294  1  0.50165454  0.88797223  0.49491680  1
  O  O295  1  0.49534217  0.88429336  0.98979881  1
  O  O296  1  0.99017717  0.37338376  0.48239818  1
  O  O297  1  0.99611229  0.37022655  0.98612511  1
  O  O298  1  0.99083916  0.85930164  0.48836129  1
  O  O299  1  0.99893671  0.86340401  0.98971640  1
  O  O300  1  0.49029966  0.48475487  0.36976564  1
  O  O301  1  0.50294820  0.47244736  0.88470706  1
  O  O302  1  0.49220520  0.98823281  0.38537530  1
  O  O303  1  0.49068478  0.99488639  0.87875194  1
  O  O304  1  1.00310018  0.49035049  0.37169191  1
  O  O305  1  1.00255684  0.47927405  0.87547103  1
  O  O306  1  0.98331211  0.98092127  0.36783223  1
  O  O307  1  1.01169942  0.98305630  0.88192706  1
  O  O308  1  0.00816409  0.00645741  0.10268809  1
  O  O309  1  0.03278409  0.00292463  0.63009474  1
  O  O310  1  0.00426753  0.52675094  0.12254962  1
  O  O311  1  -0.00064914  0.51269972  0.62998795  1
  O  O312  1  0.48816553  0.01507840  0.10671204  1
  O  O313  1  0.50003144  0.00103326  0.61046747  1
  O  O314  1  0.48795509  0.51376213  0.10196072  1
  O  O315  1  0.51312177  0.51109817  0.62688206  1
  O  O316  1  0.24239684  0.38288052  0.24838988  1
  O  O317  1  0.25245887  0.39379570  0.74063956  1
  O  O318  1  0.25622986  0.88698771  0.24336690  1
  O  O319  1  0.24400301  0.86693023  0.75624477  1
  O  O320  1  0.72741413  0.37845266  0.24305824  1
  O  O321  1  0.76483903  0.37522568  0.72962758  1
  O  O322  1  0.80107547  0.87264169  0.20886063  1
  O  O323  1  0.74618065  0.88413703  0.75534335  1
  O  O324  1  0.26194303  0.11173345  0.25309931  1
  O  O325  1  0.24333820  0.12887493  0.76126432  1
  O  O326  1  0.25303600  0.62222893  0.26354496  1
  O  O327  1  0.26523444  0.61532799  0.74281365  1
  O  O328  1  0.74638125  0.12055771  0.24742262  1
  O  O329  1  0.77089704  0.11423193  0.75068361  1
  O  O330  1  0.76965696  0.63936906  0.25274749  1
  O  O331  1  0.76482656  0.62810118  0.75959138  1
  O  O332  1  0.37256772  0.11334693  0.36764225  1
  O  O333  1  0.36821300  0.11259321  0.87810511  1
  O  O334  1  0.37026939  0.61850345  0.37285735  1
  O  O335  1  0.38211165  0.63154782  0.86375456  1
  O  O336  1  0.86307018  0.10556560  0.38552564  1
  O  O337  1  0.86701380  0.12858149  0.89474782  1
  O  O338  1  0.87669517  0.62772059  0.37603380  1
  O  O339  1  0.86856552  0.61650626  0.86271288  1
  O  O340  1  0.13829426  0.37509602  0.13526981  1
  O  O341  1  0.14418804  0.36496040  0.61898243  1
  O  O342  1  0.13970675  0.86864308  0.12189250  1
  O  O343  1  0.12711110  0.86359798  0.64489141  1
  O  O344  1  0.62240318  0.36548762  0.13130523  1
  O  O345  1  0.63989874  0.39157406  0.61558958  1
  O  O346  1  0.63382918  0.85518735  0.12930142  1
  O  O347  1  0.62194040  0.87623907  0.63459785  1
  O  O348  1  0.11935385  0.26601808  0.25059753  1
  O  O349  1  0.11215540  0.24066423  0.75419881  1
  O  O350  1  0.11173845  0.74286091  0.25201683  1
  O  O351  1  0.11756902  0.74712926  0.76188693  1
  O  O352  1  0.60340827  0.26010177  0.25066322  1
  O  O353  1  0.63632477  0.22223795  0.77295750  1
  O  O354  1  0.62074263  0.73838552  0.27123641  1
  O  O355  1  0.63018883  0.76929458  0.75213133  1
  O  O356  1  0.38175382  0.23818192  0.24826991  1
  O  O357  1  0.32954577  0.26020198  0.70761555  1
  O  O358  1  0.37593507  0.73385274  0.26178343  1
  O  O359  1  0.37552198  0.73459599  0.73854883  1
  O  O360  1  0.87981641  0.22208745  0.25391120  1
  O  O361  1  0.88031834  0.22914189  0.74826124  1
  O  O362  1  0.89176559  0.73742277  0.25506466  1
  O  O363  1  0.88871975  0.74312988  0.75053963  1
  O  O364  1  0.37278687  0.49681919  0.48876595  1
  O  O365  1  0.37576205  0.48762846  0.99434964  1
  O  O366  1  0.37980301  1.00434467  0.48801550  1
  O  O367  1  0.38380835  0.99211711  0.98918398  1
  O  O368  1  0.86889451  0.49122636  0.49258724  1
  O  O369  1  0.88548255  0.47405939  1.01321319  1
  O  O370  1  0.87043176  0.98488505  0.49064589  1
  O  O371  1  0.96697191  1.05202558  1.05027505  1
  O  O372  1  0.13438575  0.01119395  0.00719447  1
  O  O373  1  0.11285476  0.01462387  0.48566031  1
  O  O374  1  0.12019175  0.52144188  -0.00414855  1
  O  O375  1  0.12797054  0.51215044  0.50305341  1
  O  O376  1  0.60925059  0.01155336  -0.00338041  1
  O  O377  1  0.61906087  -0.00091604  0.49854211  1
  O  O378  1  0.61274487  0.47929995  0.00325677  1
  O  O379  1  0.62925679  0.51932491  0.50714485  1
  O  O380  1  0.36043047  0.37614767  0.12233947  1
  O  O381  1  0.38028198  0.38298538  0.60658859  1
  O  O382  1  0.38750178  0.87672263  0.10996919  1
  O  O383  1  0.38188309  0.86002114  0.63493371  1
  O  O384  1  0.86259793  0.37218211  0.14907522  1
  O  O385  1  0.86055035  0.38143837  0.60327100  1
  O  O386  1  0.85576195  0.87373088  0.15821259  1
  O  O387  1  0.89128480  0.87535228  0.60920334  1
  O  O388  1  0.15097175  0.12315856  0.36686978  1
  O  O389  1  0.13966799  0.11483318  0.87854743  1
  O  O390  1  0.13296966  0.62286927  0.39111345  1
  O  O391  1  0.12066864  0.63738721  0.88763833  1
  O  O392  1  0.61740358  0.12194738  0.39273291  1
  O  O393  1  0.62349171  0.12117312  0.88752816  1
  O  O394  1  0.60729588  0.64377648  0.39882776  1
  O  O395  1  0.64594469  0.61412715  0.87133534  1
