# generated using pymatgen
data_V35Zn35O128
_symmetry_space_group_name_H-M   'P 1'
_cell_length_a   16.95088730
_cell_length_b   16.99208969
_cell_length_c   16.87310501
_cell_angle_alpha   90.34427161
_cell_angle_beta   89.45470533
_cell_angle_gamma   89.95083453
_symmetry_Int_Tables_number   1
_chemical_formula_structural   V35Zn35O128
_chemical_formula_sum   'V70 Zn70 O256'
_cell_volume   4859.66740008
_cell_formula_units_Z   2
loop_
 _symmetry_equiv_pos_site_id
 _symmetry_equiv_pos_as_xyz
  1  'x, y, z'
loop_
 _atom_site_type_symbol
 _atom_site_label
 _atom_site_symmetry_multiplicity
 _atom_site_fract_x
 _atom_site_fract_y
 _atom_site_fract_z
 _atom_site_occupancy
  V  V0  1  -0.00181812  0.12122135  0.12601027  1
  V  V1  1  0.00474335  0.49947341  -0.00132290  1
  V  V2  1  0.03611136  0.00301335  0.51145471  1
  V  V3  1  0.74861195  0.38001830  0.12789840  1
  V  V4  1  0.88541001  0.49542632  0.86672958  1
  V  V5  1  0.25735408  0.00872911  0.25169127  1
  V  V6  1  0.49741735  0.25841919  0.74293163  1
  V  V7  1  0.62169635  -0.01695537  0.63427349  1
  V  V8  1  0.21763445  -0.03614854  0.74447540  1
  V  V9  1  0.12264239  0.38759776  0.24427210  1
  V  V10  1  0.88121152  0.25355094  0.61984109  1
  V  V11  1  0.62111372  0.48027071  0.62148210  1
  V  V12  1  0.50793842  0.87518398  0.86002159  1
  V  V13  1  0.87561059  0.24861516  0.12633369  1
  V  V14  1  0.48325810  0.76023311  0.25953954  1
  V  V15  1  0.63633302  0.12102125  -0.00005898  1
  V  V16  1  0.12563454  0.75255215  0.86944261  1
  V  V17  1  0.37391614  0.88116135  -0.01352082  1
  V  V18  1  0.87831239  0.50190270  0.35786178  1
  V  V19  1  0.38967795  0.62555127  0.76110394  1
  V  V20  1  0.13402252  0.74124399  0.37574657  1
  V  V21  1  0.87549495  0.75202959  0.12190950  1
  V  V22  1  0.12283562  0.87607483  0.25785385  1
  V  V23  1  0.25332204  0.87886802  0.11874086  1
  V  V24  1  0.13434828  0.27770920  0.87806404  1
  V  V25  1  -0.01738657  0.50587873  0.50388178  1
  V  V26  1  0.86987743  0.62513096  0.73283987  1
  V  V27  1  0.25340578  0.12908931  0.39311243  1
  V  V28  1  0.25101273  0.74718121  -0.00272437  1
  V  V29  1  0.74145506  0.60860280  0.89377572  1
  V  V30  1  0.61742815  0.13270065  0.51413540  1
  V  V31  1  0.87001128  0.11209811  0.26189581  1
  V  V32  1  0.12202972  0.00052322  0.12551919  1
  V  V33  1  0.12037881  0.24459090  0.38824981  1
  V  V34  1  0.37860216  0.86169046  0.51861495  1
  V  V35  1  0.37113948  0.12710291  0.77628971  1
  V  V36  1  0.76231436  0.74357257  0.49663540  1
  V  V37  1  0.50735001  0.62468015  0.62926749  1
  V  V38  1  0.87403018  0.89631784  0.49160739  1
  V  V39  1  0.00260735  0.25230569  0.25511856  1
  V  V40  1  0.62234727  0.25317601  0.87128293  1
  V  V41  1  0.74944660  0.48017831  0.73652131  1
  V  V42  1  0.61734054  0.61420746  0.47789646  1
  V  V43  1  0.25740408  0.49940393  0.78446425  1
  V  V44  1  -0.00575555  0.87228705  0.86742342  1
  V  V45  1  0.13244388  0.12158272  -0.01673291  1
  V  V46  1  0.62581110  0.74692936  0.85237721  1
  V  V47  1  0.49848174  0.00575640  -0.00155766  1
  V  V48  1  0.63394075  -0.02151690  0.12514174  1
  V  V49  1  0.40122043  0.50622265  0.90161381  1
  V  V50  1  0.49321852  0.00103086  0.49176635  1
  V  V51  1  0.24586065  0.38314750  0.12235913  1
  V  V52  1  0.75123739  -0.00558360  0.77135290  1
  V  V53  1  0.88770991  0.37227427  -0.00852929  1
  V  V54  1  0.74223445  0.75675562  0.00418744  1
  V  V55  1  0.74803377  0.52234867  0.24641664  1
  V  V56  1  0.73334164  0.11387120  0.36850746  1
  V  V57  1  0.61501890  0.26524796  0.35676661  1
  V  V58  1  0.87523816  0.87715232  -0.00003213  1
  V  V59  1  0.37870611  0.14132061  0.23492324  1
  V  V60  1  0.13243405  0.49939061  0.61358040  1
  V  V61  1  -0.00452395  0.74908010  0.25266662  1
  V  V62  1  0.37200267  0.24915829  0.60882535  1
  V  V63  1  -0.00437696  0.62407254  0.12272359  1
  V  V64  1  0.12146455  0.62797473  -0.00127508  1
  V  V65  1  -0.00762286  0.74394387  0.73996211  1
  V  V66  1  -0.00316587  -0.00256790  -0.01138479  1
  V  V67  1  0.38823964  0.37043891  0.01060453  1
  V  V68  1  0.76274106  0.23965405  -0.01525170  1
  V  V69  1  0.75061803  0.26606220  0.49786383  1
  Zn  Zn70  1  0.26659120  0.38254668  0.61856245  1
  Zn  Zn71  1  0.26743752  0.23918339  0.00476846  1
  Zn  Zn72  1  0.09778695  0.39479428  0.75930198  1
  Zn  Zn73  1  -0.06147304  0.32673474  0.43667576  1
  Zn  Zn74  1  0.12016157  0.64239732  0.50701263  1
  Zn  Zn75  1  0.01105440  0.24376734  0.73841468  1
  Zn  Zn76  1  0.19003034  0.19317299  0.17990950  1
  Zn  Zn77  1  0.19672922  0.20548751  0.70156786  1
  Zn  Zn78  1  0.19087131  0.68467142  0.18268241  1
  Zn  Zn79  1  0.17588796  0.66644742  0.69341597  1
  Zn  Zn80  1  0.68753316  0.18394090  0.18163247  1
  Zn  Zn81  1  0.69656305  0.19066502  0.69170038  1
  Zn  Zn82  1  0.69284932  0.71592284  0.20130650  1
  Zn  Zn83  1  0.69649354  0.67391378  0.67938833  1
  Zn  Zn84  1  0.29102891  0.30935373  0.31338393  1
  Zn  Zn85  1  0.31764427  0.31929250  0.82669459  1
  Zn  Zn86  1  0.30531171  0.82996928  0.33246587  1
  Zn  Zn87  1  0.31625208  0.81526450  0.80481141  1
  Zn  Zn88  1  0.80489406  0.31375076  0.31622127  1
  Zn  Zn89  1  0.82757969  0.30692452  0.80326303  1
  Zn  Zn90  1  0.82482117  0.79475095  0.33340178  1
  Zn  Zn91  1  0.80766443  0.81154018  0.81025502  1
  Zn  Zn92  1  0.13319510  0.42203139  0.43982003  1
  Zn  Zn93  1  0.19952254  0.44646671  0.95322469  1
  Zn  Zn94  1  0.20380576  0.93904847  0.43802298  1
  Zn  Zn95  1  0.18458217  0.94025559  0.92403586  1
  Zn  Zn96  1  0.68396722  0.44289180  0.42409501  1
  Zn  Zn97  1  0.70844822  0.43216952  0.93177747  1
  Zn  Zn98  1  0.72762016  0.97350644  0.49054643  1
  Zn  Zn99  1  0.68585754  0.93309900  0.93368292  1
  Zn  Zn100  1  0.31605065  0.06152759  0.05855409  1
  Zn  Zn101  1  0.31647651  0.06648175  0.58755659  1
  Zn  Zn102  1  0.30992396  0.56757442  0.08566891  1
  Zn  Zn103  1  0.29568572  0.60315944  0.60082436  1
  Zn  Zn104  1  0.80972487  0.05642170  0.06708900  1
  Zn  Zn105  1  0.81500613  0.06827716  0.64491028  1
  Zn  Zn106  1  0.80511374  0.56097042  0.05479096  1
  Zn  Zn107  1  0.79912902  0.56116279  0.55000102  1
  Zn  Zn108  1  0.42119801  0.33415963  0.20060683  1
  Zn  Zn109  1  0.43867052  0.43284267  0.69914402  1
  Zn  Zn110  1  0.43705069  0.94573363  0.17822067  1
  Zn  Zn111  1  0.43878590  0.95383836  0.68346506  1
  Zn  Zn112  1  0.93927106  0.43507921  0.18258733  1
  Zn  Zn113  1  0.93062990  0.42431372  0.67735319  1
  Zn  Zn114  1  0.93650618  0.93184101  0.18835567  1
  Zn  Zn115  1  0.93284171  0.92755699  0.67372102  1
  Zn  Zn116  1  0.06711660  0.07078760  0.31336759  1
  Zn  Zn117  1  0.07819144  0.06103117  0.68699591  1
  Zn  Zn118  1  0.05626094  0.56879494  0.31616427  1
  Zn  Zn119  1  0.06497437  0.56922045  0.80646529  1
  Zn  Zn120  1  0.55717154  0.06207189  0.30461698  1
  Zn  Zn121  1  0.56457965  0.07100877  0.81095143  1
  Zn  Zn122  1  0.57328305  0.58416519  0.26131534  1
  Zn  Zn123  1  0.57002471  0.55181899  0.81280178  1
  Zn  Zn124  1  0.43872615  0.18452548  0.42498563  1
  Zn  Zn125  1  0.44622697  0.18856117  0.94013910  1
  Zn  Zn126  1  0.47502503  0.70577068  0.46824144  1
  Zn  Zn127  1  0.44492926  0.69261167  0.93955812  1
  Zn  Zn128  1  0.88154926  0.12215768  0.48144967  1
  Zn  Zn129  1  0.96460309  0.19811326  0.93739576  1
  Zn  Zn130  1  0.93665453  0.67384990  0.43252822  1
  Zn  Zn131  1  0.93142038  0.68418736  0.93137660  1
  Zn  Zn132  1  0.06843914  0.30813089  0.06385589  1
  Zn  Zn133  1  0.05903509  0.32524029  0.57094514  1
  Zn  Zn134  1  0.06194767  0.81395796  0.06237738  1
  Zn  Zn135  1  0.02166562  0.81127724  0.54766334  1
  Zn  Zn136  1  0.58643292  0.33957138  0.01635642  1
  Zn  Zn137  1  0.55093450  0.31489890  0.54776004  1
  Zn  Zn138  1  0.54836686  0.80084115  0.05733786  1
  Zn  Zn139  1  0.60181024  0.78328708  0.58262959  1
  O  O140  1  0.11202698  0.11498495  0.12672634  1
  O  O141  1  0.09005794  0.16834009  0.69468664  1
  O  O142  1  0.11016980  0.63670612  0.10805223  1
  O  O143  1  0.10175433  0.57262160  0.67771163  1
  O  O144  1  0.63255166  0.11943331  0.10505198  1
  O  O145  1  0.62343592  0.14025856  0.61303948  1
  O  O146  1  0.60485859  0.65387731  0.17504678  1
  O  O147  1  0.61587639  0.60757275  0.62817467  1
  O  O148  1  0.38045226  0.38677671  0.35613181  1
  O  O149  1  0.37942245  0.39444665  0.90290864  1
  O  O150  1  0.35071790  0.89527604  0.41047693  1
  O  O151  1  0.39138912  0.86591573  0.87830879  1
  O  O152  1  0.87519746  0.38821573  0.36671773  1
  O  O153  1  0.87672403  0.38219661  0.88081370  1
  O  O154  1  0.88944794  0.86356587  0.39494001  1
  O  O155  1  0.88630326  0.86520382  0.88544286  1
  O  O156  1  0.23831914  0.01793501  0.35742575  1
  O  O157  1  0.24448475  -0.01173274  0.84222344  1
  O  O158  1  0.24913721  0.49059463  0.40393398  1
  O  O159  1  0.27198140  0.50769312  0.88617558  1
  O  O160  1  0.73447674  0.01508951  0.37830107  1
  O  O161  1  0.75134222  0.00528926  0.87184840  1
  O  O162  1  0.76163957  0.49467104  0.35339505  1
  O  O163  1  0.76570397  0.49704437  0.84840682  1
  O  O164  1  0.23445802  0.48290426  0.11495785  1
  O  O165  1  0.23768115  0.49913794  0.62222364  1
  O  O166  1  0.23871198  0.99724218  0.13157678  1
  O  O167  1  0.24795456  1.01501397  0.65964833  1
  O  O168  1  0.77140986  0.48707748  0.13624749  1
  O  O169  1  0.74238696  0.50121948  0.63188323  1
  O  O170  1  0.73555418  0.98955149  0.11831780  1
  O  O171  1  0.72405788  1.00345664  0.60629718  1
  O  O172  1  0.01168602  0.36222657  0.23796734  1
  O  O173  1  -0.00659964  0.36102841  0.74517022  1
  O  O174  1  0.01199135  0.85974649  0.24026766  1
  O  O175  1  -0.01595559  0.85391790  0.75477646  1
  O  O176  1  0.52480268  0.29156155  0.16781999  1
  O  O177  1  0.50392358  0.35787110  0.76057587  1
  O  O178  1  0.47366023  0.86703240  0.25605105  1
  O  O179  1  0.49689512  0.88422381  0.76290703  1
  O  O180  1  0.47457522  0.12323297  0.25240217  1
  O  O181  1  0.49321958  0.14824842  0.76664035  1
  O  O182  1  0.47788862  0.65690498  0.25436882  1
  O  O183  1  0.49672480  0.61638861  0.74893038  1
  O  O184  1  0.98859064  0.13055005  0.24545430  1
  O  O185  1  0.93134749  0.10726652  0.79161451  1
  O  O186  1  1.00942944  0.63906265  0.23429937  1
  O  O187  1  0.97891527  0.63410552  0.76036393  1
  O  O188  1  0.38463219  0.26694617  0.00137166  1
  O  O189  1  0.37895121  0.23931233  0.50973405  1
  O  O190  1  0.35318784  0.76195950  -0.01029097  1
  O  O191  1  0.38747970  0.76160512  0.51119810  1
  O  O192  1  0.88274531  0.25100874  0.00233971  1
  O  O193  1  0.85889761  0.25144563  0.48496165  1
  O  O194  1  0.88016030  0.76241002  0.00582299  1
  O  O195  1  0.86110522  0.72609617  0.50302421  1
  O  O196  1  0.11680131  0.26193837  0.48574013  1
  O  O197  1  0.11484222  0.22985658  0.99119964  1
  O  O198  1  0.09603152  0.75718561  0.47468943  1
  O  O199  1  0.12658025  0.74806712  0.98920017  1
  O  O200  1  0.62863485  0.24517228  0.48891537  1
  O  O201  1  0.64717761  0.23844545  0.99320747  1
  O  O202  1  0.59478744  0.71950761  0.48405228  1
  O  O203  1  0.64366850  0.75511242  0.99981298  1
  O  O204  1  0.52087352  0.24854522  0.10505064  1
  O  O205  1  0.49217319  0.25456615  0.63826924  1
  O  O206  1  0.48110835  0.76426778  0.15481647  1
  O  O207  1  0.51138449  0.72400167  0.63110138  1
  O  O208  1  0.99367347  0.23754791  0.12915566  1
  O  O209  1  0.98450120  0.25030528  0.60508502  1
  O  O210  1  0.99473051  0.74442546  0.12879356  1
  O  O211  1  1.01332534  0.74122414  0.64269259  1
  O  O212  1  0.00939416  0.25017330  0.36683472  1
  O  O213  1  0.03226710  0.23956154  0.85883818  1
  O  O214  1  -0.00016677  0.73972009  0.35432736  1
  O  O215  1  0.00483357  0.75444874  0.86844830  1
  O  O216  1  0.51501192  0.24823674  0.36973457  1
  O  O217  1  0.52151709  0.25570285  0.88445677  1
  O  O218  1  0.48611983  0.75850039  0.36397311  1
  O  O219  1  0.51781123  0.75792624  0.86993010  1
  O  O220  1  0.25827652  0.11533448  0.48995840  1
  O  O221  1  0.23386788  0.12223978  1.00911441  1
  O  O222  1  0.20431164  0.66221842  0.58197906  1
  O  O223  1  0.24060227  0.64460111  1.00523883  1
  O  O224  1  0.73182542  0.13410567  0.47940289  1
  O  O225  1  0.75459090  0.13201438  0.99924678  1
  O  O226  1  0.72600515  0.63047768  0.49382013  1
  O  O227  1  0.77553867  0.65626525  0.99268741  1
  O  O228  1  0.26551898  0.37509746  0.01155437  1
  O  O229  1  0.24336126  0.39010019  0.49120563  1
  O  O230  1  0.25404634  0.87917912  -0.00106603  1
  O  O231  1  0.26826810  0.87643920  0.50365716  1
  O  O232  1  0.77417333  0.36248420  0.00634469  1
  O  O233  1  0.74160936  0.36358196  0.49048795  1
  O  O234  1  0.76405942  0.86359593  -0.01200727  1
  O  O235  1  0.77251057  0.86327187  0.50243188  1
  O  O236  1  0.11448359  0.48477187  0.25879878  1
  O  O237  1  0.15069852  0.48962056  0.79341303  1
  O  O238  1  0.12437418  0.99561675  0.24244314  1
  O  O239  1  0.11491688  0.97128542  0.74235185  1
  O  O240  1  0.64997720  0.50205302  0.24479377  1
  O  O241  1  0.64337990  0.49233977  0.74272837  1
  O  O242  1  0.60932423  1.00471866  0.22161688  1
  O  O243  1  0.63400464  1.00357819  0.74052034  1
  O  O244  1  0.35880441  0.00686650  0.24312797  1
  O  O245  1  0.38894958  0.02949865  0.75192581  1
  O  O246  1  0.43788024  0.39583265  0.30613579  1
  O  O247  1  0.38094610  0.50581183  0.77917246  1
  O  O248  1  0.88254970  0.01391866  0.24755305  1
  O  O249  1  0.85311711  -0.00926376  0.72542305  1
  O  O250  1  0.87603920  0.50064509  0.25238360  1
  O  O251  1  0.87345811  0.50762985  0.74664824  1
  O  O252  1  0.13260206  0.35245067  0.35065443  1
  O  O253  1  0.12075653  0.37139802  0.91040192  1
  O  O254  1  0.13264852  0.87259409  0.36065500  1
  O  O255  1  0.10804401  0.85989105  0.87848527  1
  O  O256  1  0.62175060  0.36542812  0.36945899  1
  O  O257  1  0.63284201  0.35615443  0.90206209  1
  O  O258  1  0.68626111  0.87700897  0.28189334  1
  O  O259  1  0.61776506  0.85841523  0.87580756  1
  O  O260  1  0.37021979  0.12677755  0.13432165  1
  O  O261  1  0.37490041  0.15186038  0.64343972  1
  O  O262  1  0.44844094  0.53984050  0.15127726  1
  O  O263  1  0.39599881  0.60524123  0.64560135  1
  O  O264  1  0.88251706  0.12897137  0.13205773  1
  O  O265  1  0.87439653  0.14365812  0.59282358  1
  O  O266  1  0.88637752  0.63945483  0.11375055  1
  O  O267  1  0.86486630  0.62000892  0.63456567  1
  O  O268  1  0.24006876  0.26738902  0.11374740  1
  O  O269  1  0.26675669  0.26616033  0.62925302  1
  O  O270  1  0.23330473  0.77097581  0.10437578  1
  O  O271  1  0.19534386  0.82484433  0.59453140  1
  O  O272  1  0.76537646  0.25272399  0.11287123  1
  O  O273  1  0.75402510  0.24671876  0.60320755  1
  O  O274  1  0.76140115  0.75096446  0.11272337  1
  O  O275  1  0.71488546  0.74884042  0.59485522  1
  O  O276  1  0.23491971  0.23835837  0.37948339  1
  O  O277  1  0.23972206  0.26044963  0.89383376  1
  O  O278  1  0.23287498  0.75241036  0.37589628  1
  O  O279  1  0.23216307  0.76080239  0.88360303  1
  O  O280  1  0.73661692  0.24496023  0.37974641  1
  O  O281  1  0.75678276  0.25324015  0.88095788  1
  O  O282  1  0.74108186  0.75183621  0.39673793  1
  O  O283  1  0.73898098  0.74180828  0.88062264  1
  O  O284  1  0.00808913  0.11410505  0.00806999  1
  O  O285  1  0.00189493  0.10327830  0.47011240  1
  O  O286  1  0.00240503  0.61895825  0.00200779  1
  O  O287  1  0.00372750  0.61027412  0.49981861  1
  O  O288  1  0.51240927  0.10891186  -0.00749936  1
  O  O289  1  0.51635053  0.12883188  0.49418238  1
  O  O290  1  0.50396539  0.69915146  0.03122879  1
  O  O291  1  0.50605675  0.60452424  0.52078128  1
  O  O292  1  0.46532325  0.37858287  0.51622861  1
  O  O293  1  0.48531924  0.38739030  1.02646447  1
  O  O294  1  0.48325785  0.89568942  0.49776119  1
  O  O295  1  0.48745773  0.88008191  0.99125280  1
  O  O296  1  1.01954128  0.39585882  0.48494192  1
  O  O297  1  0.99356957  0.38305004  1.00984532  1
  O  O298  1  1.00848010  0.90944625  0.48247448  1
  O  O299  1  0.99475557  0.88057430  0.99331528  1
  O  O300  1  0.40834858  0.55349760  0.36138822  1
  O  O301  1  0.50134109  0.50404885  0.89222747  1
  O  O302  1  0.50288630  1.01117180  0.39124313  1
  O  O303  1  0.51871185  0.98272307  0.88617356  1
  O  O304  1  0.98798592  0.50231066  0.38109072  1
  O  O305  1  0.99157929  0.50731876  0.88041687  1
  O  O306  1  0.99966331  1.04238487  0.40754300  1
  O  O307  1  1.00365520  0.98622631  0.88669770  1
  O  O308  1  0.00616865  0.00422946  0.11896011  1
  O  O309  1  0.00523438  0.00599949  0.61433892  1
  O  O310  1  -0.00923777  0.51148252  0.10971239  1
  O  O311  1  -0.00343515  0.49013672  0.60528249  1
  O  O312  1  0.50762057  -0.00633805  0.10265132  1
  O  O313  1  0.51949200  0.00826209  0.61819271  1
  O  O314  1  0.48263558  0.50901514  0.20878419  1
  O  O315  1  0.51931827  0.49686033  0.64162380  1
  O  O316  1  0.23486678  0.37339009  0.23659945  1
  O  O317  1  0.27474406  0.40167432  0.75243972  1
  O  O318  1  0.24399407  0.89043331  0.24203975  1
  O  O319  1  0.24384358  0.86443668  0.73800059  1
  O  O320  1  0.75255689  0.36597405  0.22778956  1
  O  O321  1  0.76391772  0.38275074  0.74168181  1
  O  O322  1  0.73109824  0.82549414  0.25111425  1
  O  O323  1  0.74475850  0.89126953  0.76265374  1
  O  O324  1  0.25187518  0.11622360  0.24314473  1
  O  O325  1  0.27228897  0.14491981  0.76138929  1
  O  O326  1  0.28724326  0.63035501  0.17539949  1
  O  O327  1  0.26913521  0.60104734  0.74484149  1
  O  O328  1  0.76249523  0.12707487  0.25419319  1
  O  O329  1  0.75012147  0.10301055  0.73924898  1
  O  O330  1  0.75249543  0.62176558  0.24046535  1
  O  O331  1  0.76239684  0.61692267  0.75661743  1
  O  O332  1  0.35386474  0.13464005  0.35898621  1
  O  O333  1  0.37321950  0.13114790  0.87938921  1
  O  O334  1  0.38473662  0.60752301  0.40548194  1
  O  O335  1  0.39111322  0.61693304  0.87453222  1
  O  O336  1  0.85782206  0.12481140  0.36514766  1
  O  O337  1  0.89807701  0.11884583  0.85712059  1
  O  O338  1  0.87110222  0.60270742  0.37259526  1
  O  O339  1  0.86110297  0.60875529  0.87327586  1
  O  O340  1  0.12779852  0.37438625  0.13433358  1
  O  O341  1  0.12596006  0.39585158  0.63510316  1
  O  O342  1  0.12976306  0.88674243  0.12945899  1
  O  O343  1  0.13313459  0.86005839  0.61097054  1
  O  O344  1  0.65248357  0.38039565  0.10211379  1
  O  O345  1  0.62392330  0.38217562  0.61423493  1
  O  O346  1  0.61666859  0.87876567  0.11307597  1
  O  O347  1  0.61618832  0.88509805  0.62414195  1
  O  O348  1  0.11078815  0.24360184  0.25107708  1
  O  O349  1  0.15318655  0.29295864  0.77552226  1
  O  O350  1  0.12158188  0.75516173  0.25559691  1
  O  O351  1  0.11198473  0.73437483  0.76293934  1
  O  O352  1  0.63390242  0.24819910  0.25734090  1
  O  O353  1  0.62330323  0.24806303  0.76535835  1
  O  O354  1  0.58682508  0.77233025  0.26276152  1
  O  O355  1  0.63585005  0.74683531  0.75439042  1
  O  O356  1  0.36582930  0.24614240  0.24716762  1
  O  O357  1  0.38995204  0.25245914  0.76357155  1
  O  O358  1  0.37677123  0.76303532  0.26758527  1
  O  O359  1  0.36935684  0.72276337  0.76249801  1
  O  O360  1  0.88372763  0.24257071  0.24173802  1
  O  O361  1  0.87859338  0.24187572  0.72547158  1
  O  O362  1  0.88862227  0.75773905  0.24103116  1
  O  O363  1  0.87865355  0.73618625  0.75063195  1
  O  O364  1  0.28743227  0.45581609  0.45989512  1
  O  O365  1  0.37733978  0.51526751  1.00409100  1
  O  O366  1  0.39682280  1.02434253  0.51613334  1
  O  O367  1  0.38928693  0.99649109  0.99506005  1
  O  O368  1  0.87978547  0.50047989  0.49242997  1
  O  O369  1  0.88469766  0.49053502  0.98774399  1
  O  O370  1  0.85890219  0.99727632  0.49743369  1
  O  O371  1  0.88617807  0.98841707  1.00965021  1
  O  O372  1  0.11826304  0.00500590  0.00691134  1
  O  O373  1  0.13552437  0.00262610  0.50772825  1
  O  O374  1  0.11316193  0.51501760  -0.00965213  1
  O  O375  1  0.11915312  0.51588155  0.50939354  1
  O  O376  1  0.62056708  0.00173972  0.00448850  1
  O  O377  1  0.61481531  0.01768816  0.50835668  1
  O  O378  1  0.71144622  0.53784286  -0.02684040  1
  O  O379  1  0.63311431  0.50496055  0.51275120  1
  O  O380  1  0.35956020  0.38390244  0.12258855  1
  O  O381  1  0.38476051  0.36525490  0.62122291  1
  O  O382  1  0.35995406  0.88723243  0.10773955  1
  O  O383  1  0.37817541  0.88581725  0.61761195  1
  O  O384  1  0.87558929  0.36138415  0.11564933  1
  O  O385  1  0.86992685  0.35504135  0.60837375  1
  O  O386  1  0.88189128  0.86376402  0.11423428  1
  O  O387  1  0.91471584  0.85687061  0.58282441  1
  O  O388  1  0.13640398  0.13771306  0.37524541  1
  O  O389  1  0.13166819  0.11280578  0.88753676  1
  O  O390  1  0.12704062  0.63767884  0.37567876  1
  O  O391  1  0.11704633  0.64175776  0.88685085  1
  O  O392  1  0.62995293  0.13346424  0.36494281  1
  O  O393  1  0.62868152  0.13908459  0.88701058  1
  O  O394  1  0.59889004  0.59485960  0.38108784  1
  O  O395  1  0.63445554  0.63531802  0.86864161  1
