# generated using pymatgen
data_V35Zn35O128
_symmetry_space_group_name_H-M   'P 1'
_cell_length_a   16.88326661
_cell_length_b   16.93511085
_cell_length_c   16.94955721
_cell_angle_alpha   90.09879501
_cell_angle_beta   89.98897545
_cell_angle_gamma   89.61145267
_symmetry_Int_Tables_number   1
_chemical_formula_structural   V35Zn35O128
_chemical_formula_sum   'V70 Zn70 O256'
_cell_volume   4846.09851627
_cell_formula_units_Z   2
loop_
 _symmetry_equiv_pos_site_id
 _symmetry_equiv_pos_as_xyz
  1  'x, y, z'
loop_
 _atom_site_type_symbol
 _atom_site_label
 _atom_site_symmetry_multiplicity
 _atom_site_fract_x
 _atom_site_fract_y
 _atom_site_fract_z
 _atom_site_occupancy
  V  V0  1  0.87989933  0.13484005  0.25133713  1
  V  V1  1  0.87137016  0.62274526  0.76433193  1
  V  V2  1  0.36936511  0.77846323  0.61601113  1
  V  V3  1  0.51000948  0.36321820  0.88743568  1
  V  V4  1  0.51206294  0.00052425  0.01014308  1
  V  V5  1  0.38042063  0.13190461  0.24675192  1
  V  V6  1  0.76646805  0.01360365  0.78343609  1
  V  V7  1  0.75637861  0.90407383  0.62111634  1
  V  V8  1  0.86928075  0.14865747  0.75221149  1
  V  V9  1  0.62141032  0.88615991  0.25027529  1
  V  V10  1  0.63073924  0.11435954  0.49902262  1
  V  V11  1  0.00248623  0.75601714  0.25643799  1
  V  V12  1  0.37569654  0.87325292  0.00231527  1
  V  V13  1  0.74322991  0.74384185  0.50393890  1
  V  V14  1  0.34912270  0.24566463  0.10870744  1
  V  V15  1  0.24406890  0.49409287  0.74170925  1
  V  V16  1  0.24869652  0.87263204  0.12279520  1
  V  V17  1  0.13598450  0.62928162  -0.01414771  1
  V  V18  1  0.63547377  0.14164251  -0.00571669  1
  V  V19  1  0.37875933  0.50391460  0.86883420  1
  V  V20  1  0.50842391  0.14031773  0.12485551  1
  V  V21  1  0.52915235  0.57800343  0.11567837  1
  V  V22  1  0.61323620  0.74598366  0.36647194  1
  V  V23  1  0.38190231  0.74651652  0.12915343  1
  V  V24  1  0.38100007  0.25391563  0.63002848  1
  V  V25  1  0.74510548  0.61220763  0.37138883  1
  V  V26  1  0.49363833  0.74856212  0.75303393  1
  V  V27  1  0.87542545  0.37288512  0.50420389  1
  V  V28  1  0.25818087  0.64604966  0.86376317  1
  V  V29  1  0.74828344  0.89052223  0.13007075  1
  V  V30  1  0.48426304  0.49258919  0.48321024  1
  V  V31  1  0.86874463  0.41292878  -0.02544263  1
  V  V32  1  0.00421591  0.50862066  0.51010377  1
  V  V33  1  0.24995036  0.11925675  0.38603103  1
  V  V34  1  0.00265693  0.74683306  0.76418293  1
  V  V35  1  0.37194129  0.00805295  0.87446859  1
  V  V36  1  0.01117826  0.88066326  0.37965644  1
  V  V37  1  0.61369378  0.36345596  0.75576153  1
  V  V38  1  -0.00767399  0.00847403  0.50875880  1
  V  V39  1  0.11309744  0.00520053  0.13099764  1
  V  V40  1  0.50404447  0.86894838  0.87890521  1
  V  V41  1  0.74125767  0.51039836  0.76498057  1
  V  V42  1  -0.00246618  0.00076382  -0.01242081  1
  V  V43  1  0.24655031  0.77266074  0.47914572  1
  V  V44  1  0.13125967  0.25927787  0.36559343  1
  V  V45  1  0.86869654  0.74860659  0.12728954  1
  V  V46  1  0.87471677  0.62436393  0.25732478  1
  V  V47  1  0.25115490  0.62826797  0.35853908  1
  V  V48  1  0.25448345  0.00581755  0.24882753  1
  V  V49  1  0.38702814  -0.01107692  0.37634892  1
  V  V50  1  0.13470951  0.12905756  -0.00238195  1
  V  V51  1  0.88110026  0.24356587  0.09966927  1
  V  V52  1  0.87977153  0.48899598  0.37016685  1
  V  V53  1  0.86642480  0.87979469  0.48726061  1
  V  V54  1  0.68585554  0.41848648  0.19229731  1
  V  V55  1  0.61498990  0.62338462  0.49571444  1
  V  V56  1  0.74347347  0.37123412  0.62558365  1
  V  V57  1  0.48416318  0.63193508  0.62409957  1
  V  V58  1  0.61077670  0.25522302  0.37005605  1
  V  V59  1  0.26482462  0.27389037  0.50748262  1
  V  V60  1  0.88188235  0.87397860  -0.00427447  1
  V  V61  1  0.74659370  0.24880234  0.49151432  1
  V  V62  1  0.50716869  0.12072833  0.63566919  1
  V  V63  1  0.88278655  0.73358189  0.61283487  1
  V  V64  1  0.50290872  -0.01121982  0.50187083  1
  V  V65  1  0.34185066  0.37109138  -0.01027577  1
  V  V66  1  0.64519627  0.86058648  0.76942482  1
  V  V67  1  0.61655890  0.50043771  0.62050470  1
  V  V68  1  -0.00824127  0.59043686  0.10240612  1
  V  V69  1  0.20230214  -0.00716925  0.71186511  1
  Zn  Zn70  1  0.50241598  0.73645269  0.24402597  1
  Zn  Zn71  1  0.14225214  0.86958204  0.26840345  1
  Zn  Zn72  1  0.75683369  0.02338496  0.26888305  1
  Zn  Zn73  1  0.12487971  0.64040718  0.49906976  1
  Zn  Zn74  1  0.24134838  0.47404880  0.27228068  1
  Zn  Zn75  1  0.00554269  0.38775065  0.86329645  1
  Zn  Zn76  1  0.05101839  0.19895472  0.18236632  1
  Zn  Zn77  1  0.34920948  0.12064414  0.75403457  1
  Zn  Zn78  1  0.16686429  0.68649411  0.17032196  1
  Zn  Zn79  1  0.19633652  0.68202517  0.68511283  1
  Zn  Zn80  1  0.69494020  0.21272089  0.18446233  1
  Zn  Zn81  1  0.68721244  0.18585427  0.68485725  1
  Zn  Zn82  1  0.68332549  0.66894798  0.17955339  1
  Zn  Zn83  1  0.68011704  0.68580247  0.68899877  1
  Zn  Zn84  1  0.30305837  0.30067400  0.30151071  1
  Zn  Zn85  1  0.33261208  0.32754449  0.79005025  1
  Zn  Zn86  1  0.32064179  0.81138905  0.30821214  1
  Zn  Zn87  1  0.31247502  0.83512446  0.80076394  1
  Zn  Zn88  1  0.81852100  0.29670506  0.30701760  1
  Zn  Zn89  1  0.80852691  0.33744140  0.82663515  1
  Zn  Zn90  1  0.79640364  0.80286819  0.31060575  1
  Zn  Zn91  1  0.85916443  0.84689756  0.78342567  1
  Zn  Zn92  1  0.19426490  0.44342281  0.43877758  1
  Zn  Zn93  1  0.17491666  0.45962148  0.92726236  1
  Zn  Zn94  1  0.17182555  0.94061047  0.54038010  1
  Zn  Zn95  1  0.18689155  0.93872155  0.93398897  1
  Zn  Zn96  1  0.68059848  0.43225899  0.43055638  1
  Zn  Zn97  1  0.72355694  0.31980956  1.02988275  1
  Zn  Zn98  1  0.68708714  0.93228908  0.42920600  1
  Zn  Zn99  1  0.69185398  0.92759581  0.94776777  1
  Zn  Zn100  1  0.31472784  0.05769584  0.06029205  1
  Zn  Zn101  1  0.32395960  0.06137397  0.56678352  1
  Zn  Zn102  1  0.32112059  0.57292309  0.03768279  1
  Zn  Zn103  1  0.27869296  0.58557752  0.56602417  1
  Zn  Zn104  1  0.81917059  0.06673391  0.07121002  1
  Zn  Zn105  1  0.83970768  0.08085112  0.55773384  1
  Zn  Zn106  1  0.71894840  0.51682425  0.04749294  1
  Zn  Zn107  1  0.80727130  0.55711998  0.55946295  1
  Zn  Zn108  1  0.39807687  0.43406584  0.17974724  1
  Zn  Zn109  1  0.39243439  0.46336941  0.62850742  1
  Zn  Zn110  1  0.44143012  0.93801785  0.18769813  1
  Zn  Zn111  1  0.44997120  0.93964476  0.69383217  1
  Zn  Zn112  1  0.86565890  0.45128858  0.15273125  1
  Zn  Zn113  1  0.93015542  0.44492402  0.68478683  1
  Zn  Zn114  1  0.93058390  0.93957200  0.19736523  1
  Zn  Zn115  1  1.02770213  0.93274362  0.68797183  1
  Zn  Zn116  1  0.05940441  0.06129052  0.31844505  1
  Zn  Zn117  1  0.05095797  0.07416538  0.81695118  1
  Zn  Zn118  1  0.06331493  0.57056110  0.32719633  1
  Zn  Zn119  1  0.07005403  0.56345314  0.80381974  1
  Zn  Zn120  1  0.56674275  0.07339983  0.31283777  1
  Zn  Zn121  1  0.57651583  0.04802710  0.81987749  1
  Zn  Zn122  1  0.55545673  0.55267232  0.29994515  1
  Zn  Zn123  1  0.52794991  0.53626595  0.78483645  1
  Zn  Zn124  1  0.43970002  0.17827342  0.44292518  1
  Zn  Zn125  1  0.44014916  0.18905473  0.93755160  1
  Zn  Zn126  1  0.42229016  0.68635324  0.43760428  1
  Zn  Zn127  1  0.44405616  0.68394422  0.94789871  1
  Zn  Zn128  1  0.94262854  0.19128974  0.42919520  1
  Zn  Zn129  1  0.96893018  0.19312239  0.91394007  1
  Zn  Zn130  1  0.94024450  0.68618546  0.43158023  1
  Zn  Zn131  1  0.93346000  0.68460474  0.94099289  1
  Zn  Zn132  1  0.03087955  0.30629702  0.01966095  1
  Zn  Zn133  1  0.06441507  0.30331363  0.52469855  1
  Zn  Zn134  1  0.08956510  0.81717720  0.02418959  1
  Zn  Zn135  1  0.09250840  0.78913405  0.60873431  1
  Zn  Zn136  1  0.56637927  0.33594117  0.07591009  1
  Zn  Zn137  1  0.55593743  0.31092718  0.56011611  1
  Zn  Zn138  1  0.56735230  0.81035867  0.06400495  1
  Zn  Zn139  1  0.57505040  0.81422362  0.57684406  1
  O  O140  1  0.11669537  0.10702713  0.12483858  1
  O  O141  1  0.07901679  0.19971562  0.66837137  1
  O  O142  1  0.07412743  0.60798909  0.15517319  1
  O  O143  1  0.16790189  0.61400158  0.59990468  1
  O  O144  1  0.61022524  0.13655317  0.11929496  1
  O  O145  1  0.61722880  0.12939847  0.61053625  1
  O  O146  1  0.63559632  0.59047309  0.10563089  1
  O  O147  1  0.61398809  0.62015293  0.61177524  1
  O  O148  1  0.45222467  0.36374762  0.33202775  1
  O  O149  1  0.38286017  0.37778953  0.88184669  1
  O  O150  1  0.38425935  0.89105564  0.36516011  1
  O  O151  1  0.38646315  0.88344114  0.88472161  1
  O  O152  1  0.86470697  0.38444331  0.38603691  1
  O  O153  1  0.89109618  0.41089765  0.86376929  1
  O  O154  1  0.85752827  0.86137341  0.38811173  1
  O  O155  1  0.87052263  0.86249634  0.89840783  1
  O  O156  1  0.27115527  0.00977724  0.36705708  1
  O  O157  1  0.27332039  -0.00374555  0.89032476  1
  O  O158  1  0.25146883  0.52170785  0.37649436  1
  O  O159  1  0.26059057  0.51092791  0.86148756  1
  O  O160  1  0.74158723  0.01065570  0.37715047  1
  O  O161  1  0.75262259  -0.00440873  0.88066892  1
  O  O162  1  0.75675664  0.50689473  0.38423253  1
  O  O163  1  0.73482815  0.50802388  0.85913937  1
  O  O164  1  0.25536702  0.52361273  0.12325028  1
  O  O165  1  0.28534368  0.50161680  0.64346996  1
  O  O166  1  0.24743108  0.99429393  0.13513146  1
  O  O167  1  0.24015398  1.00228971  0.61300350  1
  O  O168  1  0.75868855  0.49259521  0.15575124  1
  O  O169  1  0.72931384  0.49241731  0.61813341  1
  O  O170  1  0.75327536  0.98949373  0.13670927  1
  O  O171  1  0.75093019  0.99846679  0.59596662  1
  O  O172  1  0.08754805  0.42719255  0.21783847  1
  O  O173  1  0.00102199  0.36896231  0.73787603  1
  O  O174  1  -0.00916660  0.87036593  0.26923212  1
  O  O175  1  -0.02456939  0.84862551  0.74795904  1
  O  O176  1  0.48763317  0.37768098  0.26989786  1
  O  O177  1  0.51334778  0.38262778  0.75950672  1
  O  O178  1  0.52007691  0.87035126  0.23820992  1
  O  O179  1  0.51543649  0.86982099  0.76308452  1
  O  O180  1  0.49279789  0.11838573  0.23260627  1
  O  O181  1  0.52307103  0.10665737  0.73359247  1
  O  O182  1  0.51450580  0.61977871  0.21290432  1
  O  O183  1  0.50124458  0.63605486  0.73690423  1
  O  O184  1  0.99354384  0.12669229  0.25181556  1
  O  O185  1  0.96401606  0.15145276  0.80422223  1
  O  O186  1  0.98398130  0.64485209  0.27737425  1
  O  O187  1  0.98089686  0.62612519  0.75618151  1
  O  O188  1  0.36356765  0.25529383  -0.00195133  1
  O  O189  1  0.37130088  0.23862487  0.51238448  1
  O  O190  1  0.38196482  0.76800285  0.00800450  1
  O  O191  1  0.36434605  0.76254596  0.50820957  1
  O  O192  1  0.89595140  0.23058863  -0.00058808  1
  O  O193  1  0.86149673  0.26584262  0.49448580  1
  O  O194  1  0.88476263  0.75731101  0.02078400  1
  O  O195  1  0.86215743  0.74397312  0.50111033  1
  O  O196  1  0.16148675  0.25324386  0.49522904  1
  O  O197  1  0.11777537  0.22488340  1.02341663  1
  O  O198  1  0.14631747  0.75826594  0.51236540  1
  O  O199  1  0.12991308  0.71118572  1.05382621  1
  O  O200  1  0.63272995  0.24481310  0.49481926  1
  O  O201  1  0.63200395  0.24393700  1.00373974  1
  O  O202  1  0.62483065  0.74025297  0.49351336  1
  O  O203  1  0.65100704  0.74515025  1.01157053  1
  O  O204  1  0.48769655  0.23908854  0.11323346  1
  O  O205  1  0.49359960  0.23003807  0.61755697  1
  O  O206  1  0.48772708  0.75388282  0.12127749  1
  O  O207  1  0.49185049  0.74986272  0.62717873  1
  O  O208  1  0.98844475  0.27227305  0.12103729  1
  O  O209  1  1.02792601  0.21574837  0.61755350  1
  O  O210  1  0.98086154  0.76123230  0.15388936  1
  O  O211  1  0.98203975  0.74584018  0.61052825  1
  O  O212  1  0.03561835  0.25255303  0.41141757  1
  O  O213  1  0.03351987  0.28579167  0.90532850  1
  O  O214  1  -0.00960272  0.76821550  0.36984301  1
  O  O215  1  0.00108922  0.74152909  0.86338189  1
  O  O216  1  0.51027842  0.24257065  0.38380377  1
  O  O217  1  0.49466910  0.26516497  0.87258229  1
  O  O218  1  0.51021382  0.73659636  0.37071537  1
  O  O219  1  0.48900602  0.75726338  0.86895388  1
  O  O220  1  0.26290932  0.11946785  0.48507478  1
  O  O221  1  0.23488891  0.11426987  1.00539428  1
  O  O222  1  0.25992864  0.65277815  0.47682210  1
  O  O223  1  0.24663028  0.63716789  0.97674746  1
  O  O224  1  0.74406389  0.14175766  0.51210721  1
  O  O225  1  0.72781760  0.10798861  1.01590086  1
  O  O226  1  0.73329464  0.62470941  0.49217424  1
  O  O227  1  0.67405333  0.63383323  0.94122832  1
  O  O228  1  0.24350650  0.37311834  -0.02524283  1
  O  O229  1  0.27135524  0.37224669  0.49201562  1
  O  O230  1  0.26428367  0.88795099  0.01694015  1
  O  O231  1  0.24955386  0.87258575  0.49048874  1
  O  O232  1  0.78593721  0.34901209  -0.05951480  1
  O  O233  1  0.74918372  0.36814257  0.50617202  1
  O  O234  1  0.76503056  0.87725828  0.02205885  1
  O  O235  1  0.74475040  0.86273951  0.50586925  1
  O  O236  1  0.12592666  0.49123683  0.26649758  1
  O  O237  1  0.14697410  0.51601107  0.72854904  1
  O  O238  1  0.13453939  0.99410327  0.24357419  1
  O  O239  1  0.09810296  1.01177260  0.73664921  1
  O  O240  1  0.62497305  0.47739488  0.24918130  1
  O  O241  1  0.62922975  0.50348448  0.73807258  1
  O  O242  1  0.62618602  0.98771649  0.25715591  1
  O  O243  1  0.65201296  0.96993800  0.76578955  1
  O  O244  1  0.37633973  0.00776074  0.25666926  1
  O  O245  1  0.38852019  -0.00219137  0.77132655  1
  O  O246  1  0.30719924  0.52510713  0.18358320  1
  O  O247  1  0.37664045  0.49492657  0.76746714  1
  O  O248  1  0.87443259  0.02385455  0.24450150  1
  O  O249  1  0.86635363  0.03964676  0.78819972  1
  O  O250  1  0.88090333  0.50639469  0.26585239  1
  O  O251  1  0.85640974  0.51489161  0.74328201  1
  O  O252  1  0.15438094  0.35799508  0.36703695  1
  O  O253  1  0.15800087  0.25911353  0.82406681  1
  O  O254  1  0.11061558  0.87862590  0.38097025  1
  O  O255  1  0.12558827  0.84941244  0.92307591  1
  O  O256  1  0.62218394  0.35667234  0.37375052  1
  O  O257  1  0.61592382  0.37477821  0.86360949  1
  O  O258  1  0.63120645  0.85877121  0.35719759  1
  O  O259  1  0.61413096  0.86887821  0.88031820  1
  O  O260  1  0.38007744  0.13259010  0.12325474  1
  O  O261  1  0.39141828  0.12495214  0.63559872  1
  O  O262  1  0.36298490  0.65051504  0.11160336  1
  O  O263  1  0.38371875  0.64155203  0.61667609  1
  O  O264  1  0.88919598  0.13846540  0.12507563  1
  O  O265  1  0.87726288  0.13428662  0.65394286  1
  O  O266  1  0.89557773  0.63595921  0.13917682  1
  O  O267  1  0.86904271  0.63178656  0.62169470  1
  O  O268  1  0.25449476  0.24336603  0.11870016  1
  O  O269  1  0.27015217  0.26003696  0.61134159  1
  O  O270  1  0.26027702  0.77073841  0.13426218  1
  O  O271  1  0.26980314  0.76143842  0.63222695  1
  O  O272  1  0.77138449  0.24705693  0.10629248  1
  O  O273  1  0.73933616  0.26621126  0.61479884  1
  O  O274  1  0.76709174  0.73866825  0.13294976  1
  O  O275  1  0.75113685  0.73710491  0.60890197  1
  O  O276  1  0.25477623  0.23546674  0.37901781  1
  O  O277  1  0.22400721  0.24299504  0.85020121  1
  O  O278  1  0.24365325  0.76149258  0.37556120  1
  O  O279  1  0.27044549  0.74396806  0.85733443  1
  O  O280  1  0.74231731  0.25310562  0.39022335  1
  O  O281  1  0.75784952  0.20236115  0.89517758  1
  O  O282  1  0.73592999  0.73357622  0.38584869  1
  O  O283  1  0.73207452  0.82126993  0.79542948  1
  O  O284  1  0.00057937  0.10293245  -0.00389094  1
  O  O285  1  -0.05104973  0.10475640  0.50194422  1
  O  O286  1  0.00927159  0.61978341  0.00039887  1
  O  O287  1  0.00559956  0.61266155  0.49182708  1
  O  O288  1  0.50854326  0.11656012  0.00807618  1
  O  O289  1  0.51366278  0.11205748  0.50946939  1
  O  O290  1  0.49234521  0.61577199  0.02835182  1
  O  O291  1  0.50252762  0.62240441  0.50408730  1
  O  O292  1  0.50318703  0.39435701  0.50111156  1
  O  O293  1  0.50375292  0.37224563  0.98821623  1
  O  O294  1  0.52096621  0.89075406  0.50770661  1
  O  O295  1  0.49836766  0.88337537  0.99984454  1
  O  O296  1  0.97809352  0.37810688  0.50871571  1
  O  O297  1  0.97348353  0.40551729  0.99012379  1
  O  O298  1  0.97848367  0.88139208  0.48719835  1
  O  O299  1  0.98680948  0.87838223  1.01333533  1
  O  O300  1  0.49067107  0.51155059  0.38420241  1
  O  O301  1  0.48598317  0.49115428  0.87900132  1
  O  O302  1  0.49455569  1.00714196  0.38380081  1
  O  O303  1  0.49796949  0.98864663  0.88980110  1
  O  O304  1  0.98241941  0.49823529  0.38563882  1
  O  O305  1  1.08008910  0.47134974  0.86826523  1
  O  O306  1  0.99402544  0.98712506  0.38263715  1
  O  O307  1  1.00424976  0.98774125  0.89049139  1
  O  O308  1  0.01446872  -0.01522841  0.13077382  1
  O  O309  1  -0.02924275  -0.01116572  0.60534412  1
  O  O310  1  -0.03071376  0.49564428  0.12098473  1
  O  O311  1  -0.01128942  0.50640096  0.60894077  1
  O  O312  1  0.49471566  0.01079391  0.11273172  1
  O  O313  1  0.49697311  0.00832442  0.61085334  1
  O  O314  1  0.48955071  0.48494136  0.12975779  1
  O  O315  1  0.50424180  0.51339565  0.62495748  1
  O  O316  1  0.32214793  0.39824235  0.25938503  1
  O  O317  1  0.24651328  0.39322446  0.75751629  1
  O  O318  1  0.25585074  0.88788143  0.24188319  1
  O  O319  1  0.24003673  0.90896202  0.75599354  1
  O  O320  1  0.75443775  0.37269721  0.25153848  1
  O  O321  1  0.73741455  0.39347758  0.74331203  1
  O  O322  1  0.74053449  0.87368758  0.24069761  1
  O  O323  1  0.79800863  0.92544807  0.72049986  1
  O  O324  1  0.26452715  0.11282643  0.25604359  1
  O  O325  1  0.24254492  0.07599584  0.75049147  1
  O  O326  1  0.22682802  0.63940314  0.25886707  1
  O  O327  1  0.25773609  0.61991087  0.76210053  1
  O  O328  1  0.76902187  0.13254764  0.23069420  1
  O  O329  1  0.74558905  0.11181773  0.74845153  1
  O  O330  1  0.76132584  0.62749368  0.26261460  1
  O  O331  1  0.75347062  0.61804865  0.74463099  1
  O  O332  1  0.37369701  0.12148305  0.36275355  1
  O  O333  1  0.38430766  0.11219116  0.87432593  1
  O  O334  1  0.35450847  0.64588332  0.35748008  1
  O  O335  1  0.37078672  0.61235671  0.88732307  1
  O  O336  1  0.87117960  0.15476966  0.35129516  1
  O  O337  1  0.81168936  0.15296573  0.89107616  1
  O  O338  1  0.86334264  0.61281943  0.37489990  1
  O  O339  1  0.86323086  0.63585761  0.86233796  1
  O  O340  1  0.13821541  0.38981039  0.17847019  1
  O  O341  1  0.09283201  0.37327322  0.63324681  1
  O  O342  1  0.14255293  0.88209164  0.12095209  1
  O  O343  1  0.12020513  0.89345617  0.63123861  1
  O  O344  1  0.62808152  0.32657995  0.17141458  1
  O  O345  1  0.62249768  0.38364056  0.63331884  1
  O  O346  1  0.64130807  0.86730063  0.13495652  1
  O  O347  1  0.65705066  0.86751152  0.64769792  1
  O  O348  1  0.11911724  0.24239095  0.26805769  1
  O  O349  1  0.08086127  0.35332774  0.70548394  1
  O  O350  1  0.10558127  0.75989504  0.24587680  1
  O  O351  1  0.09866108  0.73818359  0.72524158  1
  O  O352  1  0.62745874  0.22122782  0.27677979  1
  O  O353  1  0.62792105  0.26565622  0.74442730  1
  O  O354  1  0.62564462  0.74407478  0.25468508  1
  O  O355  1  0.60626677  0.75575248  0.74290920  1
  O  O356  1  0.36899817  0.23688692  0.22782190  1
  O  O357  1  0.36519600  0.23471696  0.73609988  1
  O  O358  1  0.38545165  0.75672743  0.23415188  1
  O  O359  1  0.38947085  0.76942490  0.73533774  1
  O  O360  1  0.88055034  0.24547909  0.22627622  1
  O  O361  1  0.83787003  0.24524970  0.76653378  1
  O  O362  1  0.87361759  0.74079159  0.24927984  1
  O  O363  1  0.87937753  0.73460356  0.73222231  1
  O  O364  1  0.38779062  0.50747910  0.51342552  1
  O  O365  1  0.36177015  0.47840888  0.98583444  1
  O  O366  1  0.39121937  1.00144531  0.48652637  1
  O  O367  1  0.39049036  0.99308466  0.99480320  1
  O  O368  1  0.87772710  0.49190365  0.49114684  1
  O  O369  1  0.82700458  0.50393840  0.99833034  1
  O  O370  1  0.86064179  0.97971813  0.49177344  1
  O  O371  1  0.88717919  0.98556341  1.01168098  1
  O  O372  1  0.11416836  0.00112672  0.01525270  1
  O  O373  1  0.09240752  0.01609700  0.50297404  1
  O  O374  1  0.14159441  0.53496627  0.01793753  1
  O  O375  1  0.10130125  0.48022897  0.49547960  1
  O  O376  1  0.61289248  -0.00488502  0.00462740  1
  O  O377  1  0.61866076  0.00864054  0.49480899  1
  O  O378  1  0.66465134  0.41512963  0.06923870  1
  O  O379  1  0.61122631  0.50769001  0.50208280  1
  O  O380  1  0.36330708  0.35895267  0.09724344  1
  O  O381  1  0.39993648  0.35122996  0.63764366  1
  O  O382  1  0.36996659  0.87472950  0.12010020  1
  O  O383  1  0.38325405  0.87716577  0.62273583  1
  O  O384  1  0.85848348  0.36400125  0.07801000  1
  O  O385  1  0.85679239  0.38645182  0.61155135  1
  O  O386  1  0.86172678  0.86295891  0.13410394  1
  O  O387  1  0.85555360  0.85317141  0.60245945  1
  O  O388  1  0.14730216  0.12489361  0.37119232  1
  O  O389  1  0.11893943  0.11999362  0.89704693  1
  O  O390  1  0.13728013  0.63108379  0.38622636  1
  O  O391  1  0.14087600  0.63635333  0.87793590  1
  O  O392  1  0.62339187  0.13186685  0.39672029  1
  O  O393  1  0.61900882  0.12072912  0.89604944  1
  O  O394  1  0.62649647  0.62383901  0.37867478  1
  O  O395  1  0.62555883  0.69065182  0.95497142  1
