# generated using pymatgen
data_V35Zn35O128
_symmetry_space_group_name_H-M   'P 1'
_cell_length_a   16.91610230
_cell_length_b   16.88166046
_cell_length_c   16.94311706
_cell_angle_alpha   90.15845527
_cell_angle_beta   90.34239962
_cell_angle_gamma   90.06260780
_symmetry_Int_Tables_number   1
_chemical_formula_structural   V35Zn35O128
_chemical_formula_sum   'V70 Zn70 O256'
_cell_volume   4838.37017325
_cell_formula_units_Z   2
loop_
 _symmetry_equiv_pos_site_id
 _symmetry_equiv_pos_as_xyz
  1  'x, y, z'
loop_
 _atom_site_type_symbol
 _atom_site_label
 _atom_site_symmetry_multiplicity
 _atom_site_fract_x
 _atom_site_fract_y
 _atom_site_fract_z
 _atom_site_occupancy
  V  V0  1  0.37995910  0.00211439  0.87471387  1
  V  V1  1  0.63093582  0.85401897  0.75065581  1
  V  V2  1  0.24351089  0.00792801  0.24563746  1
  V  V3  1  -0.00829978  0.23656811  0.25295263  1
  V  V4  1  0.61899684  0.38504796  0.24124380  1
  V  V5  1  0.50844925  0.01449718  0.00435541  1
  V  V6  1  0.24045460  -0.00166010  0.74347836  1
  V  V7  1  0.50253446  0.00268376  0.50012923  1
  V  V8  1  0.24333322  0.50016745  0.25263168  1
  V  V9  1  0.01162023  0.63788218  0.13589996  1
  V  V10  1  0.76668874  0.37496808  0.63435243  1
  V  V11  1  0.61879474  0.73233599  0.37626806  1
  V  V12  1  0.00441844  0.38132805  0.86953549  1
  V  V13  1  0.76190644  0.25500796  0.49663730  1
  V  V14  1  0.10937427  0.86741483  0.74493094  1
  V  V15  1  0.36646304  0.49561120  0.37127673  1
  V  V16  1  0.49601896  0.25375870  0.75794499  1
  V  V17  1  0.00222470  0.23376754  0.75471123  1
  V  V18  1  0.01273144  0.87080025  0.35038138  1
  V  V19  1  0.51554876  0.63533970  0.62363699  1
  V  V20  1  0.51062350  0.24425019  0.22000605  1
  V  V21  1  0.11300935  0.48372889  0.11358102  1
  V  V22  1  0.52706662  0.37884270  0.41854768  1
  V  V23  1  0.89340814  0.64467212  0.75827207  1
  V  V24  1  0.78736524  0.50364759  0.74787505  1
  V  V25  1  0.01897094  0.50408109  0.49625937  1
  V  V26  1  0.11795176  0.23026729  0.38156020  1
  V  V27  1  0.01638051  0.12369583  0.61636188  1
  V  V28  1  0.37362321  0.12461210  0.75155040  1
  V  V29  1  0.62491716  0.14529603  0.49761919  1
  V  V30  1  0.49711193  0.87230856  0.36477394  1
  V  V31  1  0.24077614  0.23088507  0.49750785  1
  V  V32  1  0.36319467  0.25832598  0.62682762  1
  V  V33  1  0.84799059  0.86296484  0.00047109  1
  V  V34  1  0.24125291  0.24921668  0.02095377  1
  V  V35  1  0.77016971  0.61700438  0.38786413  1
  V  V36  1  0.75762445  0.38016479  0.11500823  1
  V  V37  1  0.88453473  0.75311866  0.61168113  1
  V  V38  1  0.85666896  0.12343850  0.73378094  1
  V  V39  1  0.49876761  0.13080857  0.62624577  1
  V  V40  1  0.37720366  0.13705735  0.23465342  1
  V  V41  1  0.77566771  0.50384118  0.24855476  1
  V  V42  1  0.74902659  0.12263090  0.89153529  1
  V  V43  1  0.37399070  0.86545989  0.00526626  1
  V  V44  1  0.87972843  0.24274802  0.12078653  1
  V  V45  1  0.88150645  0.38828538  0.48640814  1
  V  V46  1  0.89274912  0.38395203  -0.00302639  1
  V  V47  1  0.25142697  0.86877844  0.62232253  1
  V  V48  1  0.63254444  0.00181600  0.63424941  1
  V  V49  1  0.75379047  0.86862477  0.60959417  1
  V  V50  1  0.63488668  0.25146044  0.87417358  1
  V  V51  1  0.60012383  0.39636321  0.75285176  1
  V  V52  1  0.36890571  0.86954180  0.50300031  1
  V  V53  1  0.23500894  0.13145520  0.87838458  1
  V  V54  1  0.74867259  0.62987711  0.88118761  1
  V  V55  1  0.35637685  0.37593107  0.49687358  1
  V  V56  1  0.36939743  0.02153505  0.37862439  1
  V  V57  1  0.85041651  0.73977300  0.12577134  1
  V  V58  1  -0.00278858  -0.01406411  0.49817074  1
  V  V59  1  0.12327478  0.37041151  0.26765752  1
  V  V60  1  0.13739639  0.74526276  0.88715379  1
  V  V61  1  -0.00269717  0.86800375  0.89705964  1
  V  V62  1  0.38090135  0.36953867  -0.01034959  1
  V  V63  1  0.14580574  0.64697554  0.49443897  1
  V  V64  1  0.50183347  0.86233228  0.86499377  1
  V  V65  1  0.11511916  0.00294034  0.10062740  1
  V  V66  1  0.75842061  0.11648039  0.36992562  1
  V  V67  1  0.64974524  0.88696308  0.25036769  1
  V  V68  1  0.13064446  0.38025211  0.73565450  1
  V  V69  1  0.33534150  0.51321988  0.87708282  1
  Zn  Zn70  1  0.87667797  0.00466080  0.87644420  1
  Zn  Zn71  1  0.57253396  0.55259414  -0.03666918  1
  Zn  Zn72  1  0.25539805  0.87428060  0.12757628  1
  Zn  Zn73  1  0.37112376  0.62857897  0.76210619  1
  Zn  Zn74  1  0.13842411  0.61384410  -0.00305762  1
  Zn  Zn75  1  0.01383489  0.62352837  0.62829141  1
  Zn  Zn76  1  0.18082311  0.17934264  0.19022179  1
  Zn  Zn77  1  0.18189274  0.19201169  0.69282016  1
  Zn  Zn78  1  0.22894162  0.64940788  0.14350333  1
  Zn  Zn79  1  0.18684423  0.69446874  0.67995819  1
  Zn  Zn80  1  0.70185192  0.19644115  0.19077855  1
  Zn  Zn81  1  0.68071152  0.20039307  0.68292304  1
  Zn  Zn82  1  0.70314162  0.70607770  0.21900340  1
  Zn  Zn83  1  0.69545695  0.67836554  0.67723507  1
  Zn  Zn84  1  0.30445966  0.30137625  0.31272086  1
  Zn  Zn85  1  0.30520256  0.31755415  0.81485535  1
  Zn  Zn86  1  0.32401665  0.82823473  0.30751403  1
  Zn  Zn87  1  0.31819568  0.80957026  0.80905388  1
  Zn  Zn88  1  0.80775120  0.31165523  0.31002758  1
  Zn  Zn89  1  0.82592089  0.30289954  0.81399052  1
  Zn  Zn90  1  0.82107468  0.80275106  0.32344412  1
  Zn  Zn91  1  0.81037748  0.80939021  0.81175846  1
  Zn  Zn92  1  0.18715117  0.43090964  0.44029588  1
  Zn  Zn93  1  0.18064603  0.41529299  0.93535650  1
  Zn  Zn94  1  0.17848663  0.94746685  0.43770820  1
  Zn  Zn95  1  0.19239497  0.93104425  0.92883464  1
  Zn  Zn96  1  0.70230184  0.43122776  0.42520021  1
  Zn  Zn97  1  0.70487858  0.43977015  0.92348665  1
  Zn  Zn98  1  0.68562441  0.93708118  0.43502757  1
  Zn  Zn99  1  0.68776093  0.93952791  0.92690181  1
  Zn  Zn100  1  0.31324986  0.06411548  0.05798194  1
  Zn  Zn101  1  0.31037394  0.06033291  0.56498204  1
  Zn  Zn102  1  0.30935752  0.51840310  0.06681903  1
  Zn  Zn103  1  0.34171108  0.58782815  0.54120216  1
  Zn  Zn104  1  0.91580625  0.04874720  0.06973063  1
  Zn  Zn105  1  0.81457481  0.05637004  0.55618080  1
  Zn  Zn106  1  0.82834594  0.56353275  0.06189829  1
  Zn  Zn107  1  0.82022014  0.56481301  0.56922520  1
  Zn  Zn108  1  0.41084048  0.40109555  0.18925634  1
  Zn  Zn109  1  0.41995482  0.45323681  0.68915627  1
  Zn  Zn110  1  0.43339702  0.95147787  0.18532586  1
  Zn  Zn111  1  0.43959897  0.93620358  0.68730525  1
  Zn  Zn112  1  0.94785167  0.42812453  0.19436274  1
  Zn  Zn113  1  0.95953835  0.43270102  0.67642533  1
  Zn  Zn114  1  0.93146606  0.92193697  0.18144396  1
  Zn  Zn115  1  0.93262983  0.95074032  0.68384919  1
  Zn  Zn116  1  0.05159287  0.05232253  0.31884820  1
  Zn  Zn117  1  0.05236809  0.05909736  0.92946808  1
  Zn  Zn118  1  0.05839575  0.56804162  0.32204809  1
  Zn  Zn119  1  0.07001496  0.56160513  0.81475103  1
  Zn  Zn120  1  0.56423537  0.06724619  0.31250945  1
  Zn  Zn121  1  0.56545957  0.06542064  0.81632770  1
  Zn  Zn122  1  0.54459497  0.54699929  0.30997199  1
  Zn  Zn123  1  0.55073180  0.60044860  0.80884420  1
  Zn  Zn124  1  0.44387719  0.20519436  0.43783429  1
  Zn  Zn125  1  0.43825374  0.19446285  0.94500227  1
  Zn  Zn126  1  0.43838552  0.68623152  0.43797937  1
  Zn  Zn127  1  0.41799220  0.67904099  0.93380613  1
  Zn  Zn128  1  0.93532145  0.18479365  0.43930338  1
  Zn  Zn129  1  0.92836227  0.19181964  0.93433201  1
  Zn  Zn130  1  0.95095539  0.68903569  0.43979425  1
  Zn  Zn131  1  0.95282300  0.68712242  0.94976934  1
  Zn  Zn132  1  0.06236629  0.30176399  0.06598505  1
  Zn  Zn133  1  0.05315778  0.30500058  0.56397334  1
  Zn  Zn134  1  0.07886782  0.81413832  0.07255897  1
  Zn  Zn135  1  0.06906717  0.81093013  0.55907957  1
  Zn  Zn136  1  0.58571068  0.36763053  0.03239577  1
  Zn  Zn137  1  0.57557692  0.45606128  0.58461977  1
  Zn  Zn138  1  0.57441625  0.88155506  0.06646984  1
  Zn  Zn139  1  0.56693398  0.81565758  0.55604799  1
  O  O140  1  0.12532545  0.10159771  0.12777396  1
  O  O141  1  0.11601908  0.12325535  0.62869370  1
  O  O142  1  0.11999586  0.60003001  0.13296264  1
  O  O143  1  0.12496122  0.63655546  0.60625219  1
  O  O144  1  0.66945482  0.09521699  0.11759331  1
  O  O145  1  0.61743913  0.12229501  0.61630265  1
  O  O146  1  0.60368661  0.67796734  0.03620092  1
  O  O147  1  0.61715158  0.61665284  0.62060557  1
  O  O148  1  0.36214307  0.36880954  0.39117857  1
  O  O149  1  0.36384802  0.38566286  0.88264652  1
  O  O150  1  0.38108258  0.89077521  0.38694848  1
  O  O151  1  0.38595149  0.88462670  0.87491491  1
  O  O152  1  0.86783273  0.37071095  0.38855526  1
  O  O153  1  0.88321905  0.36716895  0.89129344  1
  O  O154  1  0.90508908  0.84678269  0.38312600  1
  O  O155  1  0.88653681  0.85630406  0.88662149  1
  O  O156  1  0.26659578  0.00451763  0.37049713  1
  O  O157  1  0.26275736  0.00676475  0.86351991  1
  O  O158  1  0.25725893  0.49170450  0.36854975  1
  O  O159  1  0.23692418  0.49296949  0.87314667  1
  O  O160  1  0.74849524  0.01831734  0.39277946  1
  O  O161  1  0.74893758  0.01775391  0.87500390  1
  O  O162  1  0.74602710  0.50961075  0.35874482  1
  O  O163  1  0.76329027  0.50175375  0.84931746  1
  O  O164  1  0.22707947  0.48584520  0.14775450  1
  O  O165  1  0.24797254  0.53743693  0.67730847  1
  O  O166  1  0.24958565  1.00875369  0.13695879  1
  O  O167  1  0.25175734  0.99826464  0.63971294  1
  O  O168  1  0.76701025  0.48947403  0.13620695  1
  O  O169  1  0.75666068  0.49231471  0.64098929  1
  O  O170  1  0.71163010  1.03542298  0.12475073  1
  O  O171  1  0.74093040  0.98616162  0.61681991  1
  O  O172  1  0.01504339  0.35678754  0.25568947  1
  O  O173  1  -0.00726038  0.36149592  0.75794058  1
  O  O174  1  0.00629208  0.87876642  0.25006355  1
  O  O175  1  0.01083361  0.87760548  0.73859599  1
  O  O176  1  0.50955379  0.36004546  0.22602823  1
  O  O177  1  0.49757174  0.36804152  0.74338903  1
  O  O178  1  0.48166974  0.88071196  0.26596963  1
  O  O179  1  0.50917667  0.87779187  0.75671941  1
  O  O180  1  0.49258777  0.14080734  0.25960593  1
  O  O181  1  0.49120202  0.13090422  0.74464216  1
  O  O182  1  0.47612034  0.60726356  0.23315142  1
  O  O183  1  0.48434860  0.63329052  0.72483603  1
  O  O184  1  0.99915954  0.13639091  0.25616077  1
  O  O185  1  0.99777162  0.13134419  0.74189120  1
  O  O186  1  1.00526525  0.61619145  0.23585196  1
  O  O187  1  0.99499581  0.62731919  0.74797189  1
  O  O188  1  0.36201045  0.26063085  -0.00640489  1
  O  O189  1  0.35955086  0.25239203  0.50700022  1
  O  O190  1  0.38268025  0.76560809  -0.00351432  1
  O  O191  1  0.36719488  0.77246241  0.48695321  1
  O  O192  1  0.88340694  0.26304389  0.01665468  1
  O  O193  1  0.86398781  0.25879239  0.50324394  1
  O  O194  1  0.87755694  0.75444454  0.00904230  1
  O  O195  1  0.87345208  0.74319154  0.51416756  1
  O  O196  1  0.13108654  0.24952713  0.49223870  1
  O  O197  1  0.14038573  0.24469589  1.00731366  1
  O  O198  1  0.13417221  0.74877780  0.49295614  1
  O  O199  1  0.13619810  0.75400674  0.98955884  1
  O  O200  1  0.63066964  0.24371275  0.50485934  1
  O  O201  1  0.62226706  0.27230909  0.97001412  1
  O  O202  1  0.62196760  0.75677584  0.47354380  1
  O  O203  1  0.62343254  0.74249746  1.00685528  1
  O  O204  1  0.50330716  0.23380211  0.12531882  1
  O  O205  1  0.48506593  0.23691606  0.63526424  1
  O  O206  1  0.50818564  0.76713927  0.13571376  1
  O  O207  1  0.51364399  0.73803031  0.61470047  1
  O  O208  1  0.99147328  0.24834968  0.14075834  1
  O  O209  1  0.99734887  0.23439433  0.63634537  1
  O  O210  1  1.02446252  0.73905571  0.13781174  1
  O  O211  1  0.98717929  0.75329462  0.62100819  1
  O  O212  1  0.00976546  0.24457500  0.36978363  1
  O  O213  1  -0.00687125  0.25147570  0.86000712  1
  O  O214  1  -0.00110555  0.76463465  0.37251322  1
  O  O215  1  0.01710372  0.76130657  0.87748928  1
  O  O216  1  0.50734472  0.28220610  0.38346935  1
  O  O217  1  0.50779241  0.24324768  0.86167955  1
  O  O218  1  0.49673534  0.76499260  0.37623329  1
  O  O219  1  0.49286348  0.76552665  0.87247338  1
  O  O220  1  0.24850116  0.13161457  0.50170300  1
  O  O221  1  0.26039523  0.13591747  0.98433567  1
  O  O222  1  0.24650218  0.63071031  0.50405020  1
  O  O223  1  0.24834195  0.61334115  1.03827498  1
  O  O224  1  0.74059023  0.14048417  0.50623939  1
  O  O225  1  0.75393994  0.13502984  0.98610321  1
  O  O226  1  0.75017504  0.60779828  0.48537073  1
  O  O227  1  0.76490950  0.60555037  0.97766112  1
  O  O228  1  0.25237646  0.35296370  -0.00290161  1
  O  O229  1  0.25314046  0.35855758  0.50630197  1
  O  O230  1  0.27199300  0.88288760  -0.00483331  1
  O  O231  1  0.25897864  0.89398895  0.51162442  1
  O  O232  1  0.76816566  0.38001882  0.01148949  1
  O  O233  1  0.75926338  0.36950183  0.50761066  1
  O  O234  1  0.74896777  0.86025833  -0.01550989  1
  O  O235  1  0.74242488  0.87021133  0.51078845  1
  O  O236  1  0.13024435  0.48181251  0.26647342  1
  O  O237  1  0.11170976  0.48036308  0.74790615  1
  O  O238  1  0.14472672  1.01168789  0.25827331  1
  O  O239  1  0.14189660  0.98111254  0.75575084  1
  O  O240  1  0.60984410  0.48570439  0.23403172  1
  O  O241  1  0.59624145  0.49387932  0.76857787  1
  O  O242  1  0.61683529  0.98376587  0.25806629  1
  O  O243  1  0.61748881  1.00097068  0.73514791  1
  O  O244  1  0.37973852  0.02125225  0.26446365  1
  O  O245  1  0.37268663  0.00893875  0.75504024  1
  O  O246  1  0.35401698  0.47059878  0.26218624  1
  O  O247  1  0.38437779  0.50834361  0.78296436  1
  O  O248  1  0.86150472  0.00466644  0.16095466  1
  O  O249  1  0.87725784  0.01954777  0.75707992  1
  O  O250  1  0.87325016  0.49319377  0.25668782  1
  O  O251  1  0.88666278  0.51435393  0.74302218  1
  O  O252  1  0.12522137  0.35798602  0.37115984  1
  O  O253  1  0.10760220  0.36561543  0.86162518  1
  O  O254  1  0.11295466  0.87810307  0.37527391  1
  O  O255  1  0.11513739  0.86922279  0.86358262  1
  O  O256  1  0.62495679  0.37522692  0.34524818  1
  O  O257  1  0.64348445  0.36565269  0.84689325  1
  O  O258  1  0.60428830  0.87804119  0.37178109  1
  O  O259  1  0.61292282  0.87559441  0.85955894  1
  O  O260  1  0.38159782  0.12043289  0.13775034  1
  O  O261  1  0.37914626  0.12861089  0.63545321  1
  O  O262  1  0.39061655  0.59406749  0.13155755  1
  O  O263  1  0.31685167  0.52524287  0.63871543  1
  O  O264  1  0.86313721  0.14672158  0.12171082  1
  O  O265  1  0.87790423  0.11973386  0.63349723  1
  O  O266  1  0.89671993  0.63907393  0.11643029  1
  O  O267  1  0.87398658  0.64279357  0.63642829  1
  O  O268  1  0.25127768  0.23951224  0.12003705  1
  O  O269  1  0.25593258  0.23907534  0.61590840  1
  O  O270  1  0.27354470  0.75592069  0.17072153  1
  O  O271  1  0.25814411  0.77083508  0.62308372  1
  O  O272  1  0.77038369  0.27133056  0.13919754  1
  O  O273  1  0.74397154  0.27099279  0.61612381  1
  O  O274  1  0.75170561  0.71937173  0.11676545  1
  O  O275  1  0.75654519  0.76341398  0.62768887  1
  O  O276  1  0.23727784  0.24335129  0.38994973  1
  O  O277  1  0.24577913  0.23077480  0.86440920  1
  O  O278  1  0.23229130  0.75181916  0.35229123  1
  O  O279  1  0.23475794  0.76499052  0.87140598  1
  O  O280  1  0.74747525  0.24806229  0.39337185  1
  O  O281  1  0.73997679  0.24264424  0.86259127  1
  O  O282  1  0.73299978  0.71977744  0.36337915  1
  O  O283  1  0.75150026  0.72990630  0.87062420  1
  O  O284  1  -0.02721306  0.10665559  -0.00888444  1
  O  O285  1  0.00138545  0.13449778  0.51506251  1
  O  O286  1  0.02094769  0.62794275  0.02022608  1
  O  O287  1  0.01542094  0.61711238  0.50176167  1
  O  O288  1  0.50151540  0.11415947  -0.00570636  1
  O  O289  1  0.50840812  0.12639174  0.50671406  1
  O  O290  1  0.49124721  0.70590988  0.09901691  1
  O  O291  1  0.44819301  0.62634463  0.53339063  1
  O  O292  1  0.47045029  0.37029389  0.50500961  1
  O  O293  1  0.48047591  0.36242236  0.99441628  1
  O  O294  1  0.48721916  0.88615030  0.49673131  1
  O  O295  1  0.49118407  0.88485631  0.98282867  1
  O  O296  1  0.98656210  0.38299224  0.50553095  1
  O  O297  1  0.99929604  0.36420488  0.98613549  1
  O  O298  1  0.99899203  0.88582768  0.51153597  1
  O  O299  1  1.00486336  0.86805984  0.99606323  1
  O  O300  1  0.48174695  0.46322461  0.36647909  1
  O  O301  1  0.49196043  0.59876936  0.90930368  1
  O  O302  1  0.49082007  0.99649999  0.38498941  1
  O  O303  1  0.49254179  0.99936520  0.87796458  1
  O  O304  1  0.99902393  0.50116487  0.39644461  1
  O  O305  1  0.99971329  0.48073915  0.86945639  1
  O  O306  1  0.99193816  0.97828796  0.37993717  1
  O  O307  1  0.99518585  0.97163773  0.87322593  1
  O  O308  1  0.01542902  -0.01404247  0.11287921  1
  O  O309  1  -0.00172438  0.01450983  0.61454213  1
  O  O310  1  0.01125331  0.49937168  0.12989989  1
  O  O311  1  -0.01497804  0.51046813  0.60245962  1
  O  O312  1  0.50293113  -0.00930417  0.10513953  1
  O  O313  1  0.50213816  0.01348419  0.61851049  1
  O  O314  1  0.45182210  0.56259880  0.17035854  1
  O  O315  1  0.49164872  0.51370991  0.62494821  1
  O  O316  1  0.22917363  0.36527989  0.25312674  1
  O  O317  1  0.23080534  0.36774588  0.74593529  1
  O  O318  1  0.26809445  0.90550646  0.24670275  1
  O  O319  1  0.26047433  0.88783366  0.73751375  1
  O  O320  1  0.74211841  0.39026391  0.24557785  1
  O  O321  1  0.77860395  0.38526844  0.74098886  1
  O  O322  1  0.74514887  0.88154558  0.28227738  1
  O  O323  1  0.73333278  0.87398222  0.75054979  1
  O  O324  1  0.26989362  0.12287594  0.25171925  1
  O  O325  1  0.25415624  0.11454694  0.75580728  1
  O  O326  1  0.25027858  0.59941126  0.24997769  1
  O  O327  1  0.25170028  0.60404161  0.72532326  1
  O  O328  1  0.73505565  0.12825107  0.27275475  1
  O  O329  1  0.75503350  0.13077378  0.73602526  1
  O  O330  1  0.74939807  0.60521042  0.25111224  1
  O  O331  1  0.76807045  0.61496212  0.75156425  1
  O  O332  1  0.38232551  0.12258770  0.38024734  1
  O  O333  1  0.37266625  0.12066226  0.86300882  1
  O  O334  1  0.39016036  0.59326125  0.37613013  1
  O  O335  1  0.33388106  0.61943673  0.87994450  1
  O  O336  1  0.85765992  0.13353647  0.37634243  1
  O  O337  1  0.85528168  0.13030384  0.86247708  1
  O  O338  1  0.86751117  0.63023483  0.38045630  1
  O  O339  1  0.87860897  0.63567714  0.86014092  1
  O  O340  1  0.11424705  0.38029736  0.13915217  1
  O  O341  1  0.11185952  0.37006152  0.63648275  1
  O  O342  1  0.14378384  0.89606473  0.11828577  1
  O  O343  1  0.14036231  0.87251537  0.63701340  1
  O  O344  1  0.65063096  0.36876904  0.12928410  1
  O  O345  1  0.64294890  0.38919832  0.65601784  1
  O  O346  1  0.64611093  0.86947614  0.14913550  1
  O  O347  1  0.63249026  0.87947572  0.63443440  1
  O  O348  1  0.11777334  0.24821580  0.26342197  1
  O  O349  1  0.10780030  0.25824653  0.74892944  1
  O  O350  1  0.17340364  0.74654666  0.30865677  1
  O  O351  1  0.12963437  0.76467828  0.75450881  1
  O  O352  1  0.61482316  0.25548015  0.23642564  1
  O  O353  1  0.60911340  0.25756624  0.75207188  1
  O  O354  1  0.62345296  0.77088464  0.26946604  1
  O  O355  1  0.62803334  0.75554432  0.74447203  1
  O  O356  1  0.38660082  0.24512202  0.24961457  1
  O  O357  1  0.37603464  0.24356141  0.74569673  1
  O  O358  1  0.33560631  0.74825568  0.22241932  1
  O  O359  1  0.35757281  0.73640651  0.73825597  1
  O  O360  1  0.88747808  0.25756253  0.24571664  1
  O  O361  1  0.88471366  0.23185634  0.74716613  1
  O  O362  1  0.85956312  0.75265602  0.22588408  1
  O  O363  1  0.87867723  0.74610857  0.74188135  1
  O  O364  1  0.35854061  0.48186618  0.48550430  1
  O  O365  1  0.37370863  0.49314943  0.97428969  1
  O  O366  1  0.38354718  1.00396832  0.49185962  1
  O  O367  1  0.38600697  0.99903818  0.98842560  1
  O  O368  1  0.86878490  0.48858714  0.49544817  1
  O  O369  1  0.89014137  0.48286218  1.00597015  1
  O  O370  1  0.89519516  1.01180487  0.49543578  1
  O  O371  1  0.86905393  0.96586248  0.99177020  1
  O  O372  1  0.13177680  0.00261083  -0.00318464  1
  O  O373  1  0.09984607  0.01037814  0.48886776  1
  O  O374  1  0.12540726  0.48503714  0.01281895  1
  O  O375  1  0.11978082  0.49395204  0.50537935  1
  O  O376  1  0.60817362  -0.01435737  -0.00522184  1
  O  O377  1  0.61203531  0.00169071  0.51210203  1
  O  O378  1  0.62867777  0.46972755  0.00032365  1
  O  O379  1  0.60339006  0.42949675  0.47974684  1
  O  O380  1  0.36317155  0.40802062  0.09127074  1
  O  O381  1  0.37246212  0.36299776  0.61943064  1
  O  O382  1  0.37635535  0.88211737  0.10916077  1
  O  O383  1  0.36905958  0.88513196  0.61065794  1
  O  O384  1  0.87630388  0.37183917  0.11736279  1
  O  O385  1  0.86692678  0.37785318  0.61246732  1
  O  O386  1  0.86368087  0.85342605  0.10922632  1
  O  O387  1  0.86085960  0.86885603  0.63091028  1
  O  O388  1  0.12159877  0.13213322  0.37488919  1
  O  O389  1  0.13764963  0.11367180  0.87312008  1
  O  O390  1  0.12770782  0.61946345  0.39575634  1
  O  O391  1  0.12512738  0.63970637  0.87776513  1
  O  O392  1  0.62775440  0.12306188  0.39666316  1
  O  O393  1  0.63576357  0.13985266  0.86786654  1
  O  O394  1  0.59404407  0.63363502  0.36730682  1
  O  O395  1  0.64761679  0.61014467  0.87241053  1
