# generated using pymatgen
data_V35Zn35O128
_symmetry_space_group_name_H-M   'P 1'
_cell_length_a   16.87974295
_cell_length_b   16.87786099
_cell_length_c   16.84655381
_cell_angle_alpha   89.87156854
_cell_angle_beta   90.00923602
_cell_angle_gamma   89.93115032
_symmetry_Int_Tables_number   1
_chemical_formula_structural   V35Zn35O128
_chemical_formula_sum   'V70 Zn70 O256'
_cell_volume   4799.46575764
_cell_formula_units_Z   2
loop_
 _symmetry_equiv_pos_site_id
 _symmetry_equiv_pos_as_xyz
  1  'x, y, z'
loop_
 _atom_site_type_symbol
 _atom_site_label
 _atom_site_symmetry_multiplicity
 _atom_site_fract_x
 _atom_site_fract_y
 _atom_site_fract_z
 _atom_site_occupancy
  V  V0  1  0.38049364  0.38856191  0.00427527  1
  V  V1  1  0.37038839  0.63252133  0.25518660  1
  V  V2  1  0.37125622  0.76488971  0.62208736  1
  V  V3  1  -0.02043481  0.38771796  0.87863780  1
  V  V4  1  0.48758444  0.23504604  0.74844670  1
  V  V5  1  -0.01553749  0.13598386  0.62801781  1
  V  V6  1  0.13709191  0.36995653  0.75293890  1
  V  V7  1  0.82115866  0.60678305  0.78946994  1
  V  V8  1  0.13752256  0.49846738  0.63168283  1
  V  V9  1  0.23693168  0.39689815  0.12433243  1
  V  V10  1  0.64830421  0.87165762  0.25791296  1
  V  V11  1  0.22903359  0.00088602  0.22348197  1
  V  V12  1  0.88239868  0.62861160  0.24181505  1
  V  V13  1  0.23438171  0.62302282  0.86583616  1
  V  V14  1  0.11312156  0.84957500  0.24295475  1
  V  V15  1  0.62695819  0.63727987  0.49721188  1
  V  V16  1  0.32974271  0.31590449  0.54788938  1
  V  V17  1  -0.02141792  0.25593208  0.74982231  1
  V  V18  1  0.49160614  0.61899384  0.62579942  1
  V  V19  1  0.24046808  0.75132461  -0.00502808  1
  V  V20  1  0.25850378  -0.01841213  0.74796931  1
  V  V21  1  0.63018124  0.09530721  0.50344252  1
  V  V22  1  0.13030004  0.00617286  0.62959455  1
  V  V23  1  0.61850754  0.11140689  -0.00237663  1
  V  V24  1  0.37168588  0.11998175  0.24329024  1
  V  V25  1  0.00021499  0.37195292  0.35910856  1
  V  V26  1  0.37938564  0.50696735  0.85659190  1
  V  V27  1  0.12575432  0.25814422  0.35791782  1
  V  V28  1  0.75374854  0.11670924  0.86623072  1
  V  V29  1  0.49814232  0.11203272  0.12267464  1
  V  V30  1  0.92404650  0.92619909  0.04680073  1
  V  V31  1  0.23124067  0.25019172  0.00280932  1
  V  V32  1  0.62139073  0.24208330  0.87229989  1
  V  V33  1  0.62032473  0.63918415  -0.00617099  1
  V  V34  1  0.73493212  0.49235198  0.24681905  1
  V  V35  1  0.56342653  0.45423076  0.06025819  1
  V  V36  1  0.24910703  0.12899469  0.86142556  1
  V  V37  1  0.88694133  0.25418134  0.13250403  1
  V  V38  1  0.89734018  0.87568296  0.52049544  1
  V  V39  1  0.51049953  0.25352738  0.26350888  1
  V  V40  1  0.50404614  0.75233088  0.75523593  1
  V  V41  1  0.38725729  0.49460106  0.38181978  1
  V  V42  1  0.00319042  0.50634923  0.50762570  1
  V  V43  1  0.88538711  0.11844770  0.25050324  1
  V  V44  1  0.74718825  0.36592923  0.62439745  1
  V  V45  1  0.87702512  0.74735942  0.11808857  1
  V  V46  1  0.76936528  0.75169356  0.51346689  1
  V  V47  1  0.74453616  0.76494679  -0.00442751  1
  V  V48  1  0.64890269  -0.00161691  0.13594029  1
  V  V49  1  0.62287317  0.49573758  0.61071018  1
  V  V50  1  0.39071499  0.88290978  -0.01223613  1
  V  V51  1  0.73218067  0.24894560  0.48837019  1
  V  V52  1  0.75337294  0.10425742  0.36666576  1
  V  V53  1  0.24439077  0.12636154  0.37648460  1
  V  V54  1  0.36948179  -0.01095044  0.37665048  1
  V  V55  1  0.75029035  -0.00928501  0.73298631  1
  V  V56  1  0.37962919  0.25783215  0.12518504  1
  V  V57  1  0.62539730  0.37605338  0.74984818  1
  V  V58  1  0.25695785  0.73493442  0.48567441  1
  V  V59  1  0.12057757  0.14201135  0.50757235  1
  V  V60  1  0.88423413  -0.00804368  0.86709375  1
  V  V61  1  -0.01450616  0.62588411  0.64330605  1
  V  V62  1  0.50577613  0.38102386  0.87572987  1
  V  V63  1  0.88066620  0.36415187  0.50753069  1
  V  V64  1  0.23975573  0.50220031  0.26269809  1
  V  V65  1  0.63039058  0.86876243  0.71619975  1
  V  V66  1  0.50362081  0.64015785  0.12634285  1
  V  V67  1  0.75261770  0.24725497  0.00630337  1
  V  V68  1  0.87308781  0.50503862  0.37480993  1
  V  V69  1  0.00524022  0.85057937  0.86044644  1
  Zn  Zn70  1  0.49103989  0.11030990  0.60757622  1
  Zn  Zn71  1  0.00774452  0.88101861  0.38220192  1
  Zn  Zn72  1  0.50458623  0.87753717  0.37823900  1
  Zn  Zn73  1  0.36776929  0.76329172  0.12339612  1
  Zn  Zn74  1  0.73885284  0.63330705  0.36930737  1
  Zn  Zn75  1  0.51164571  0.75598077  0.26273075  1
  Zn  Zn76  1  0.20521514  0.21449174  0.19893870  1
  Zn  Zn77  1  0.20152204  0.20911072  0.68268115  1
  Zn  Zn78  1  0.19280375  0.68477860  0.18163162  1
  Zn  Zn79  1  0.18399265  0.67977678  0.68239137  1
  Zn  Zn80  1  0.68745252  0.18373169  0.19273603  1
  Zn  Zn81  1  0.68653903  0.18456790  0.68204769  1
  Zn  Zn82  1  0.69628047  0.68863308  0.18675931  1
  Zn  Zn83  1  0.69536898  0.68429756  0.69340140  1
  Zn  Zn84  1  0.34816964  0.28929054  0.34908585  1
  Zn  Zn85  1  0.31627164  0.31026059  0.82108976  1
  Zn  Zn86  1  0.28845428  0.81666479  0.30468070  1
  Zn  Zn87  1  0.31938978  0.80349773  0.81460149  1
  Zn  Zn88  1  0.81187446  0.31081489  0.31078511  1
  Zn  Zn89  1  0.80546792  0.31184887  0.81510028  1
  Zn  Zn90  1  0.82126735  0.80669677  0.32743921  1
  Zn  Zn91  1  0.81574011  0.80348657  0.80398145  1
  Zn  Zn92  1  0.18977543  0.43494468  0.44269514  1
  Zn  Zn93  1  0.20129819  0.42418563  0.91319187  1
  Zn  Zn94  1  0.14801753  0.95950633  0.42284691  1
  Zn  Zn95  1  0.20371213  0.91730582  0.90347566  1
  Zn  Zn96  1  0.69057624  0.43843292  0.43529279  1
  Zn  Zn97  1  0.76777326  0.41019672  1.07443202  1
  Zn  Zn98  1  0.70510298  0.92299588  0.43754582  1
  Zn  Zn99  1  0.68984126  0.94024334  0.93936982  1
  Zn  Zn100  1  0.31416939  0.06519165  0.04385563  1
  Zn  Zn101  1  0.31161857  0.06004883  0.56244145  1
  Zn  Zn102  1  0.32055715  0.57456724  0.05602086  1
  Zn  Zn103  1  0.30679532  0.56662893  0.55664245  1
  Zn  Zn104  1  0.81935188  0.07434654  0.06007792  1
  Zn  Zn105  1  0.82023788  0.05449468  0.54634632  1
  Zn  Zn106  1  0.79644522  0.57379257  0.06114410  1
  Zn  Zn107  1  0.80884938  0.55533699  0.56563742  1
  Zn  Zn108  1  0.43547032  0.43963643  0.20436887  1
  Zn  Zn109  1  0.43775946  0.42572967  0.67962902  1
  Zn  Zn110  1  0.43639525  0.92639605  0.18879596  1
  Zn  Zn111  1  0.43709746  0.93536874  0.67722956  1
  Zn  Zn112  1  0.92386907  0.44042184  0.17779759  1
  Zn  Zn113  1  0.92752438  0.44654402  0.69987829  1
  Zn  Zn114  1  0.93173911  0.92885880  0.20970895  1
  Zn  Zn115  1  0.94882733  0.94760183  0.69037333  1
  Zn  Zn116  1  0.05657455  0.06316213  0.31058833  1
  Zn  Zn117  1  0.07214660  0.07960976  0.81231646  1
  Zn  Zn118  1  0.05488571  0.55937188  0.31147477  1
  Zn  Zn119  1  0.05953308  0.55769414  0.81093010  1
  Zn  Zn120  1  0.56137911  0.06129342  0.31747022  1
  Zn  Zn121  1  0.54628059  0.04048419  0.77102516  1
  Zn  Zn122  1  0.55647887  0.56780474  0.31278954  1
  Zn  Zn123  1  0.60022386  0.57707884  0.79888338  1
  Zn  Zn124  1  0.43192850  0.16699410  0.45292937  1
  Zn  Zn125  1  0.43259099  0.18403157  0.93568789  1
  Zn  Zn126  1  0.44113262  0.68762311  0.43865727  1
  Zn  Zn127  1  0.43227194  0.69379511  0.93722388  1
  Zn  Zn128  1  0.93861257  0.18657139  0.43198085  1
  Zn  Zn129  1  0.93606857  0.19602369  0.93344307  1
  Zn  Zn130  1  0.93415919  0.70440836  0.43114425  1
  Zn  Zn131  1  0.92513418  0.67743559  0.93239920  1
  Zn  Zn132  1  0.05547477  0.33234850  0.06238534  1
  Zn  Zn133  1  0.06824894  0.31394986  0.56731893  1
  Zn  Zn134  1  0.06501121  0.80845553  0.05758014  1
  Zn  Zn135  1  0.06670661  0.81022700  0.60167656  1
  Zn  Zn136  1  0.57093390  0.29163871  0.06996762  1
  Zn  Zn137  1  0.53614739  0.31136304  0.56905623  1
  Zn  Zn138  1  0.56390215  0.82220875  0.07239227  1
  Zn  Zn139  1  0.55238773  0.81020629  0.55213065  1
  O  O140  1  0.04483526  0.12992334  0.04798266  1
  O  O141  1  0.12949553  0.14222279  0.61272923  1
  O  O142  1  0.10809230  0.61581183  0.11524963  1
  O  O143  1  0.10671240  0.60157681  0.63217902  1
  O  O144  1  0.61904445  0.11369348  0.11993994  1
  O  O145  1  0.63465747  0.12086998  0.60437791  1
  O  O146  1  0.60865155  0.63162449  0.12593957  1
  O  O147  1  0.62626885  0.60671171  0.61654080  1
  O  O148  1  0.37092195  0.39611202  0.36676909  1
  O  O149  1  0.38634938  0.38094672  0.88622861  1
  O  O150  1  0.36141592  0.89067951  0.35339007  1
  O  O151  1  0.38098687  0.86905604  0.88449712  1
  O  O152  1  0.88642129  0.38097049  0.38270301  1
  O  O153  1  0.87859505  0.37463979  0.86943391  1
  O  O154  1  0.91124892  0.82092578  0.39691825  1
  O  O155  1  0.88652814  0.88549665  0.86915072  1
  O  O156  1  0.23975019  0.01887019  0.35777868  1
  O  O157  1  0.24456328  0.01343199  0.85308493  1
  O  O158  1  0.24961194  0.49999964  0.36493896  1
  O  O159  1  0.27080086  0.50969707  0.87841123  1
  O  O160  1  0.76696836  0.00698876  0.37814095  1
  O  O161  1  0.75515706  0.00452008  0.86775918  1
  O  O162  1  0.76142525  0.50453105  0.37386890  1
  O  O163  1  0.83519207  0.48161927  1.01224005  1
  O  O164  1  0.25754471  0.49734790  0.11813285  1
  O  O165  1  0.23652234  0.50684036  0.62463978  1
  O  O166  1  0.24745201  1.01060937  0.12645505  1
  O  O167  1  0.24339204  1.01126305  0.63741179  1
  O  O168  1  0.74269798  0.50187821  0.14260261  1
  O  O169  1  0.73253739  0.48037802  0.61702030  1
  O  O170  1  0.74693868  1.00840487  0.12827493  1
  O  O171  1  0.76250334  1.00447963  0.63623484  1
  O  O172  1  -0.00618356  0.38692878  0.26128704  1
  O  O173  1  -0.00378004  0.36689118  0.75137901  1
  O  O174  1  0.00712223  0.86586746  0.26068300  1
  O  O175  1  -0.00343283  0.86939513  0.76068211  1
  O  O176  1  0.49430033  0.35303207  0.25000854  1
  O  O177  1  0.50899772  0.35814357  0.75693279  1
  O  O178  1  0.51172778  0.87532768  0.25797732  1
  O  O179  1  0.51931138  0.86278658  0.73331616  1
  O  O180  1  0.48756336  0.12781227  0.24208384  1
  O  O181  1  0.49365832  0.13964635  0.78409451  1
  O  O182  1  0.48950668  0.63340200  0.24429139  1
  O  O183  1  0.52096511  0.64073398  0.73254210  1
  O  O184  1  0.98475281  0.13306024  0.25868129  1
  O  O185  1  1.00270706  0.14517226  0.73911938  1
  O  O186  1  0.98265266  0.61697090  0.24460649  1
  O  O187  1  0.99298944  0.62282669  0.74469008  1
  O  O188  1  0.37965839  0.26510544  0.01499960  1
  O  O189  1  0.36266729  0.26281051  0.46489633  1
  O  O190  1  0.36968138  0.76116317  0.00177132  1
  O  O191  1  0.36602088  0.73808684  0.51134730  1
  O  O192  1  0.86101399  0.23369585  0.01447259  1
  O  O193  1  0.86994798  0.26312434  0.49534948  1
  O  O194  1  0.85874129  0.73809210  0.00927616  1
  O  O195  1  0.87157157  0.74145966  0.52156293  1
  O  O196  1  0.12630945  0.24715675  0.48772682  1
  O  O197  1  0.13330285  0.26389275  1.00708507  1
  O  O198  1  0.15770446  0.78640891  0.51083819  1
  O  O199  1  0.13896604  0.74783158  0.99677196  1
  O  O200  1  0.63295516  0.24814610  0.49896543  1
  O  O201  1  0.63149267  0.23294406  0.99077245  1
  O  O202  1  0.63234467  0.73839964  0.50452444  1
  O  O203  1  0.62999870  0.74838458  1.00898657  1
  O  O204  1  0.49484311  0.23843432  0.13684504  1
  O  O205  1  0.51095598  0.22587888  0.64629442  1
  O  O206  1  0.49565879  0.74567658  0.13760162  1
  O  O207  1  0.48878203  0.73810113  0.62437534  1
  O  O208  1  0.98607947  0.26171925  0.12332395  1
  O  O209  1  0.99737289  0.24546263  0.63172114  1
  O  O210  1  0.97773868  0.74478420  0.10820262  1
  O  O211  1  1.00010273  0.72097330  0.61369888  1
  O  O212  1  0.00719533  0.26502500  0.37421122  1
  O  O213  1  -0.00645867  0.25744900  0.85655546  1
  O  O214  1  0.05324311  0.71226036  0.39159451  1
  O  O215  1  -0.00713161  0.75107188  0.87799748  1
  O  O216  1  0.48124180  0.23213374  0.35953071  1
  O  O217  1  0.50577059  0.25907990  0.87798024  1
  O  O218  1  0.49766996  0.76036517  0.37606691  1
  O  O219  1  0.49723624  0.74675253  0.85336877  1
  O  O220  1  0.24030807  0.13210925  0.47860823  1
  O  O221  1  0.24112245  0.15288251  1.02809502  1
  O  O222  1  0.23170441  0.63883090  0.50535756  1
  O  O223  1  0.26440588  0.63577866  0.97940666  1
  O  O224  1  0.74994173  0.13372701  0.48866380  1
  O  O225  1  0.73927072  0.12533673  0.98688882  1
  O  O226  1  0.73776040  0.62456602  0.50278521  1
  O  O227  1  0.72450237  0.63721447  1.00164260  1
  O  O228  1  0.26016323  0.37395911  0.00483495  1
  O  O229  1  0.26476698  0.38370201  0.51043708  1
  O  O230  1  0.25644301  0.85723578  -0.01637332  1
  O  O231  1  0.21548956  0.84434254  0.50651251  1
  O  O232  1  0.74256759  0.34396727  -0.01620357  1
  O  O233  1  0.75638664  0.36445162  0.50046890  1
  O  O234  1  0.74080252  0.86611441  0.00639603  1
  O  O235  1  0.77541178  0.85831004  0.50020105  1
  O  O236  1  0.13978091  0.51519763  0.25266896  1
  O  O237  1  0.12028815  0.48635027  0.73816090  1
  O  O238  1  0.13022987  1.02086534  0.23245253  1
  O  O239  1  0.13943369  1.02023216  0.73706333  1
  O  O240  1  0.63685310  0.50423187  0.26510170  1
  O  O241  1  0.61977001  0.47950005  0.74122432  1
  O  O242  1  0.62941747  1.00080190  0.23973372  1
  O  O243  1  0.64180326  0.97955491  0.74469186  1
  O  O244  1  0.35657991  0.01099244  0.24886617  1
  O  O245  1  0.35777933  -0.00640852  0.74192432  1
  O  O246  1  0.36567744  0.51257004  0.25933603  1
  O  O247  1  0.38074466  0.48589240  0.75821909  1
  O  O248  1  0.87611209  0.01763331  0.24779788  1
  O  O249  1  0.86082640  -0.00351919  0.75941543  1
  O  O250  1  0.86710743  0.50805378  0.25618119  1
  O  O251  1  0.85415498  0.51853790  0.74592306  1
  O  O252  1  0.11402923  0.36731058  0.37718846  1
  O  O253  1  0.11093286  0.38420594  0.85821828  1
  O  O254  1  0.12705153  0.86930666  0.35588822  1
  O  O255  1  0.09912898  0.88218546  0.88253434  1
  O  O256  1  0.59121276  0.36984899  0.40332080  1
  O  O257  1  0.61988404  0.35823718  0.86601359  1
  O  O258  1  0.62750513  0.89099461  0.35982010  1
  O  O259  1  0.59097795  0.90804166  0.87422475  1
  O  O260  1  0.38097020  0.13464954  0.12604149  1
  O  O261  1  0.39220424  0.13495975  0.55997457  1
  O  O262  1  0.39144273  0.62145106  0.13571298  1
  O  O263  1  0.39163601  0.61508840  0.62660341  1
  O  O264  1  0.87137635  0.13879039  0.13896571  1
  O  O265  1  0.88711070  0.12374174  0.61492428  1
  O  O266  1  0.86763611  0.63079430  0.13446414  1
  O  O267  1  0.88591366  0.61229258  0.62225325  1
  O  O268  1  0.25847883  0.27594674  0.11961053  1
  O  O269  1  0.27787784  0.25941481  0.61449678  1
  O  O270  1  0.25424431  0.73449896  0.10168352  1
  O  O271  1  0.27295906  0.73752265  0.62754208  1
  O  O272  1  0.74044157  0.24327320  0.10901249  1
  O  O273  1  0.74461752  0.25893452  0.60931652  1
  O  O274  1  0.76150249  0.74842203  0.11360796  1
  O  O275  1  0.74467108  0.74178391  0.61229201  1
  O  O276  1  0.23572238  0.24073280  0.35591794  1
  O  O277  1  0.25414884  0.24730240  0.89723566  1
  O  O278  1  0.25867836  0.74210155  0.38573217  1
  O  O279  1  0.25164001  0.73320569  0.87717629  1
  O  O280  1  0.74666928  0.25231482  0.38666831  1
  O  O281  1  0.74229804  0.23176103  0.87639224  1
  O  O282  1  0.75952455  0.74039872  0.40088299  1
  O  O283  1  0.75334610  0.76003678  0.89471369  1
  O  O284  1  0.00043165  0.10845794  -0.01855525  1
  O  O285  1  0.01141257  0.13829487  0.51124573  1
  O  O286  1  -0.00470189  0.58372890  -0.00250945  1
  O  O287  1  -0.00688827  0.60476230  0.49737130  1
  O  O288  1  0.50966650  0.13124404  0.00872066  1
  O  O289  1  0.52931721  0.11049937  0.48753063  1
  O  O290  1  0.50276832  0.63892621  0.01874516  1
  O  O291  1  0.51450662  0.62930133  0.51719293  1
  O  O292  1  0.53376521  0.36665543  0.45216551  1
  O  O293  1  0.50405300  0.38151978  0.99977321  1
  O  O294  1  0.49324626  0.87788887  0.48951523  1
  O  O295  1  0.49195743  0.87230977  1.00254316  1
  O  O296  1  0.98754453  0.37718134  0.50060710  1
  O  O297  1  0.99551540  0.37220536  0.97777085  1
  O  O298  1  1.00178790  0.85919049  0.51315722  1
  O  O299  1  0.98847805  0.87135811  0.98903828  1
  O  O300  1  0.48745190  0.50106890  0.37066805  1
  O  O301  1  0.49779420  0.48340648  0.86731251  1
  O  O302  1  0.47282822  1.00310094  0.36703800  1
  O  O303  1  0.53772852  0.96351020  0.87082660  1
  O  O304  1  0.99697934  0.48743267  0.38672380  1
  O  O305  1  0.98929319  0.48757702  0.86483034  1
  O  O306  1  1.03649348  0.99237884  0.39354912  1
  O  O307  1  0.98155312  1.01348602  0.85905041  1
  O  O308  1  -0.02484462  -0.01612824  0.10891708  1
  O  O309  1  0.01649312  0.02962713  0.63729375  1
  O  O310  1  -0.00289959  0.49306555  0.09804767  1
  O  O311  1  -0.00367519  0.50041570  0.61549787  1
  O  O312  1  0.49916443  0.01193864  0.13128321  1
  O  O313  1  0.50955690  0.01737911  0.66486804  1
  O  O314  1  0.50581804  0.50496866  0.12989457  1
  O  O315  1  0.51271133  0.50889749  0.63255356  1
  O  O316  1  0.25060156  0.39683107  0.23144826  1
  O  O317  1  0.23787639  0.37059970  0.76315748  1
  O  O318  1  0.22652261  0.89359438  0.24220339  1
  O  O319  1  0.24584022  0.88235289  0.76273269  1
  O  O320  1  0.75026210  0.39249354  0.26159656  1
  O  O321  1  0.73538615  0.35900780  0.73673728  1
  O  O322  1  0.74940814  0.87254841  0.26334518  1
  O  O323  1  0.74299731  0.87907213  0.74795009  1
  O  O324  1  0.25354497  0.12249760  0.24639816  1
  O  O325  1  0.25960327  0.14730729  0.76242930  1
  O  O326  1  0.26224097  0.61143304  0.23791001  1
  O  O327  1  0.24593243  0.62695127  0.76474366  1
  O  O328  1  0.75516675  0.12500432  0.26335465  1
  O  O329  1  0.73828936  0.10983181  0.75972896  1
  O  O330  1  0.75851614  0.61437039  0.25542509  1
  O  O331  1  0.71458532  0.60705760  0.77538737  1
  O  O332  1  0.35582929  0.11950129  0.36324392  1
  O  O333  1  0.34358683  0.12126521  0.91017874  1
  O  O334  1  0.38015099  0.62151293  0.35871583  1
  O  O335  1  0.39241776  0.60638082  0.86861123  1
  O  O336  1  0.86353776  0.13551919  0.36405174  1
  O  O337  1  0.85766040  0.11659051  0.87768065  1
  O  O338  1  0.88216925  0.61539504  0.36575913  1
  O  O339  1  0.85045231  0.60496639  0.88715466  1
  O  O340  1  0.13746856  0.39133385  0.11649998  1
  O  O341  1  0.12350199  0.38612828  0.63623105  1
  O  O342  1  0.10894951  0.87031768  0.14217809  1
  O  O343  1  0.11902436  0.90988056  0.62170886  1
  O  O344  1  0.62871596  0.38792420  0.10333166  1
  O  O345  1  0.62135929  0.37818153  0.62670157  1
  O  O346  1  0.62940732  0.89228825  0.13921386  1
  O  O347  1  0.63285076  0.86894749  0.61832582  1
  O  O348  1  0.11555368  0.25117957  0.25767417  1
  O  O349  1  0.11728473  0.26790328  0.74024954  1
  O  O350  1  0.12832835  0.74916678  0.24566095  1
  O  O351  1  0.11881638  0.76929822  0.69601803  1
  O  O352  1  0.61028247  0.23957230  0.25490658  1
  O  O353  1  0.61888382  0.24808991  0.75970461  1
  O  O354  1  0.63292562  0.76784488  0.24604341  1
  O  O355  1  0.62200560  0.76331000  0.74371901  1
  O  O356  1  0.37150957  0.23916573  0.23904978  1
  O  O357  1  0.38986276  0.25739969  0.75317122  1
  O  O358  1  0.35792474  0.73705028  0.24419382  1
  O  O359  1  0.39417229  0.75786805  0.73507027  1
  O  O360  1  0.86822818  0.24332028  0.23822771  1
  O  O361  1  0.87906193  0.25246528  0.74334187  1
  O  O362  1  0.86853721  0.73586584  0.23851986  1
  O  O363  1  0.84308371  0.70328705  0.75629776  1
  O  O364  1  0.37051743  0.51612793  0.48001881  1
  O  O365  1  0.38227724  0.49098844  0.99297742  1
  O  O366  1  0.34702414  0.99241669  0.47408816  1
  O  O367  1  0.37097611  0.98354787  0.99650887  1
  O  O368  1  0.88086026  0.48771394  0.49138456  1
  O  O369  1  0.95437164  0.54154501  1.04781585  1
  O  O370  1  0.88357499  0.97420914  0.49577914  1
  O  O371  1  0.86693153  0.99409994  0.98564317  1
  O  O372  1  0.10045032  0.08375340  0.06524071  1
  O  O373  1  0.13779491  0.02972432  0.51670592  1
  O  O374  1  0.13286478  0.58317973  0.05406323  1
  O  O375  1  0.10936110  0.48796658  0.51169075  1
  O  O376  1  0.63014857  0.00633242  0.01616530  1
  O  O377  1  0.64757608  -0.00295822  0.50498510  1
  O  O378  1  0.61541482  0.52043654  0.00609252  1
  O  O379  1  0.61960710  0.49812144  0.50836252  1
  O  O380  1  0.37719644  0.37401280  0.12042169  1
  O  O381  1  0.42196095  0.35814946  0.58957645  1
  O  O382  1  0.37349106  0.87621081  0.11089246  1
  O  O383  1  0.37380066  0.86443591  0.61464268  1
  O  O384  1  0.85881631  0.35725585  0.12980808  1
  O  O385  1  0.86268302  0.38170315  0.61201173  1
  O  O386  1  0.87535485  0.86361768  0.11985398  1
  O  O387  1  0.88921259  0.87659400  0.62205629  1
  O  O388  1  0.12643369  0.14181844  0.37954754  1
  O  O389  1  0.14790439  0.12859222  0.88329128  1
  O  O390  1  0.09832716  0.65202160  0.38206535  1
  O  O391  1  0.13616509  0.60727007  0.87943230  1
  O  O392  1  0.64480509  0.11086028  0.38463772  1
  O  O393  1  0.63136372  0.12595558  0.88169409  1
  O  O394  1  0.62090729  0.61951285  0.39491786  1
  O  O395  1  0.60010540  0.63199639  0.89691259  1
