# generated using pymatgen
data_V35Zn35O128
_symmetry_space_group_name_H-M   'P 1'
_cell_length_a   16.93168198
_cell_length_b   16.94456214
_cell_length_c   16.88027780
_cell_angle_alpha   90.07348471
_cell_angle_beta   89.52652080
_cell_angle_gamma   90.13303526
_symmetry_Int_Tables_number   1
_chemical_formula_structural   V35Zn35O128
_chemical_formula_sum   'V70 Zn70 O256'
_cell_volume   4842.76836440
_cell_formula_units_Z   2
loop_
 _symmetry_equiv_pos_site_id
 _symmetry_equiv_pos_as_xyz
  1  'x, y, z'
loop_
 _atom_site_type_symbol
 _atom_site_label
 _atom_site_symmetry_multiplicity
 _atom_site_fract_x
 _atom_site_fract_y
 _atom_site_fract_z
 _atom_site_occupancy
  V  V0  1  0.00230218  0.49931912  -0.00681395  1
  V  V1  1  0.37977354  0.36382347  0.50206026  1
  V  V2  1  0.48527060  0.75594490  0.24963749  1
  V  V3  1  0.24241802  0.00072377  0.25748923  1
  V  V4  1  0.86349337  0.75188179  0.12644661  1
  V  V5  1  0.90098374  0.87463878  0.48912859  1
  V  V6  1  0.77286575  0.60829979  0.86333490  1
  V  V7  1  0.88330520  0.00270054  0.35126224  1
  V  V8  1  0.25185483  0.60780490  0.87653227  1
  V  V9  1  0.75168954  0.38142986  0.12807599  1
  V  V10  1  0.50153670  0.50749226  -0.00973607  1
  V  V11  1  0.22887012  0.25589135  0.50752331  1
  V  V12  1  0.62251414  0.88257174  0.74581765  1
  V  V13  1  0.12479308  0.25271538  0.88105684  1
  V  V14  1  0.25787282  0.13238070  0.87995182  1
  V  V15  1  0.24532643  0.75073178  0.00013281  1
  V  V16  1  0.48661220  0.62013391  0.13631031  1
  V  V17  1  0.24561970  0.62352744  0.39563216  1
  V  V18  1  0.61657680  0.75273520  0.37349532  1
  V  V19  1  -0.01566631  0.62016093  0.13590212  1
  V  V20  1  0.24965038  0.37993495  0.13477960  1
  V  V21  1  0.61782143  0.11767820  0.00027410  1
  V  V22  1  0.38511046  0.37997454  -0.00705121  1
  V  V23  1  0.37129600  0.12627823  0.23975393  1
  V  V24  1  0.62883871  0.51259464  0.12510715  1
  V  V25  1  0.12430905  0.62115289  0.01250899  1
  V  V26  1  0.38146176  0.00280006  0.88241013  1
  V  V27  1  0.11891387  0.02276669  0.10315190  1
  V  V28  1  0.74621852  0.62668393  0.35844264  1
  V  V29  1  0.03159455  0.26133478  0.27434265  1
  V  V30  1  0.10786743  0.38020400  0.76559198  1
  V  V31  1  0.44106660  0.67442930  0.58203068  1
  V  V32  1  0.25075538  -0.01269717  0.75373320  1
  V  V33  1  0.23676555  0.88023256  0.12183472  1
  V  V34  1  0.37570009  0.87125956  0.00841683  1
  V  V35  1  0.49425906  0.74991604  0.75643033  1
  V  V36  1  0.73245222  0.88150796  0.60322967  1
  V  V37  1  0.47619751  0.88077728  0.38361692  1
  V  V38  1  0.50976373  0.25708245  0.74233349  1
  V  V39  1  0.50174965  0.36691663  0.37374100  1
  V  V40  1  0.23248855  0.50667907  0.24972270  1
  V  V41  1  0.75468312  0.25646665  0.49894637  1
  V  V42  1  0.50665646  0.10879146  0.61394348  1
  V  V43  1  0.50458419  -0.00120511  0.02011327  1
  V  V44  1  0.63266849  0.63510866  0.51505145  1
  V  V45  1  0.87933757  0.49306197  0.37220871  1
  V  V46  1  0.63716525  0.48022318  0.62587675  1
  V  V47  1  0.11069017  0.75577856  0.39175747  1
  V  V48  1  0.87381963  0.24021672  0.13600467  1
  V  V49  1  0.62694319  0.37921579  0.25046810  1
  V  V50  1  0.26422717  0.37638026  0.64644433  1
  V  V51  1  0.50618612  0.87031785  0.87980727  1
  V  V52  1  0.38398629  0.61013145  0.76614020  1
  V  V53  1  0.88003822  0.87901094  -0.01082651  1
  V  V54  1  0.12526505  0.49572515  0.62369982  1
  V  V55  1  0.38521531  0.12810513  0.74161492  1
  V  V56  1  0.85630149  0.76103843  0.62684044  1
  V  V57  1  0.73688606  0.74576424  -0.01868323  1
  V  V58  1  0.11543916  0.75615074  0.86898685  1
  V  V59  1  0.26015913  0.25085671  0.01077075  1
  V  V60  1  0.38218325  0.50682415  0.36536059  1
  V  V61  1  0.87398543  0.38900319  -0.00761853  1
  V  V62  1  0.75359559  0.24137098  -0.01070356  1
  V  V63  1  0.50302187  0.49881788  0.50665560  1
  V  V64  1  0.24321321  0.13874685  0.38447676  1
  V  V65  1  0.75720091  0.00313640  0.75810430  1
  V  V66  1  0.62608517  0.11057301  0.48554532  1
  V  V67  1  -0.00141829  0.63878273  0.63365279  1
  V  V68  1  0.48914158  0.25031720  0.23342082  1
  V  V69  1  0.62101371  0.25949374  0.87004114  1
  Zn  Zn70  1  0.63392307  0.24035426  0.36747663  1
  Zn  Zn71  1  0.03518728  0.01340042  0.47430813  1
  Zn  Zn72  1  0.70009966  -0.09873503  0.19671577  1
  Zn  Zn73  1  0.35934732  0.73808952  0.13179009  1
  Zn  Zn74  1  0.05172415  0.90361373  0.29983367  1
  Zn  Zn75  1  0.02202999  0.15341561  0.60819184  1
  Zn  Zn76  1  0.18284684  0.19347756  0.19109531  1
  Zn  Zn77  1  0.20088610  0.20357941  0.69775355  1
  Zn  Zn78  1  0.17503769  0.69009902  0.19877410  1
  Zn  Zn79  1  0.18735797  0.67025392  0.69918310  1
  Zn  Zn80  1  0.67109557  0.20642110  0.17105353  1
  Zn  Zn81  1  0.68781059  0.17963385  0.67693822  1
  Zn  Zn82  1  0.67952429  0.71273426  0.18028638  1
  Zn  Zn83  1  0.67966374  0.68559514  0.71549067  1
  Zn  Zn84  1  0.31136302  0.31452039  0.31662440  1
  Zn  Zn85  1  0.33295689  0.30956085  0.82282182  1
  Zn  Zn86  1  0.27763923  0.80108197  0.30047655  1
  Zn  Zn87  1  0.31599617  0.80349244  0.81866084  1
  Zn  Zn88  1  0.81555132  0.31327453  0.32562251  1
  Zn  Zn89  1  0.83236128  0.29895647  0.81793891  1
  Zn  Zn90  1  0.83162581  0.78371898  0.33241948  1
  Zn  Zn91  1  0.81866607  0.81522836  0.81310198  1
  Zn  Zn92  1  0.19850181  0.44063517  0.44078682  1
  Zn  Zn93  1  0.18584729  0.43189306  0.95078881  1
  Zn  Zn94  1  0.19731298  0.92824414  0.44026982  1
  Zn  Zn95  1  0.15288427  0.96069198  0.90568730  1
  Zn  Zn96  1  0.74500212  0.46592279  0.48112423  1
  Zn  Zn97  1  0.68697339  0.44227632  0.93676878  1
  Zn  Zn98  1  0.67674923  0.93315885  0.41304699  1
  Zn  Zn99  1  0.69517197  0.93448982  0.93833340  1
  Zn  Zn100  1  0.31253146  0.06225246  0.06570972  1
  Zn  Zn101  1  0.18478358  0.06529610  0.57709131  1
  Zn  Zn102  1  0.31224095  0.55536771  0.06160625  1
  Zn  Zn103  1  0.31546953  0.54624080  0.57034956  1
  Zn  Zn104  1  0.80372618  0.05979477  0.06986075  1
  Zn  Zn105  1  0.79410066  0.04353509  0.53730614  1
  Zn  Zn106  1  0.80398041  0.57572510  0.05458331  1
  Zn  Zn107  1  0.81730205  0.58289737  0.56773571  1
  Zn  Zn108  1  0.43481647  0.43354769  0.18092925  1
  Zn  Zn109  1  0.44540205  0.43673689  0.69014546  1
  Zn  Zn110  1  0.42735448  0.93758818  0.19775534  1
  Zn  Zn111  1  0.43060582  0.93743871  0.68773939  1
  Zn  Zn112  1  0.93409696  0.44120237  0.19560640  1
  Zn  Zn113  1  0.95491930  0.46904647  0.71362099  1
  Zn  Zn114  1  0.93078532  0.94255504  0.16337624  1
  Zn  Zn115  1  0.93156777  0.91437227  0.69357053  1
  Zn  Zn116  1  0.05966008  0.08086415  0.29653525  1
  Zn  Zn117  1  0.09109196  0.08835264  0.76461077  1
  Zn  Zn118  1  0.06049976  0.57114182  0.31994928  1
  Zn  Zn119  1  0.06052934  0.57012531  0.81350900  1
  Zn  Zn120  1  0.54953835  0.06028055  0.30777101  1
  Zn  Zn121  1  0.57104664  0.06714872  0.81962943  1
  Zn  Zn122  1  0.56735612  0.56570810  0.31365136  1
  Zn  Zn123  1  0.57769453  0.56164967  0.80753646  1
  Zn  Zn124  1  0.43252822  0.17816944  0.43203251  1
  Zn  Zn125  1  0.44269055  0.19115948  0.94087048  1
  Zn  Zn126  1  0.38622218  0.73699706  0.41182326  1
  Zn  Zn127  1  0.43932656  0.68503593  0.94399198  1
  Zn  Zn128  1  0.93771509  0.18252264  0.43419957  1
  Zn  Zn129  1  0.97195573  0.21365050  0.99029704  1
  Zn  Zn130  1  0.94391319  0.65231788  0.43645181  1
  Zn  Zn131  1  0.93440095  0.69042700  0.94066970  1
  Zn  Zn132  1  0.04339186  0.34235987  0.11012939  1
  Zn  Zn133  1  0.06225642  0.35584466  0.56380591  1
  Zn  Zn134  1  0.03439787  0.83038146  0.10585947  1
  Zn  Zn135  1  0.06968126  0.83083524  0.58254442  1
  Zn  Zn136  1  0.56720204  0.31853949  0.05726038  1
  Zn  Zn137  1  0.57227693  0.30180658  0.55718542  1
  Zn  Zn138  1  0.57036676  0.80859490  0.06632468  1
  Zn  Zn139  1  0.55220561  0.82116458  0.55750398  1
  O  O140  1  0.13718021  0.12144968  0.11797859  1
  O  O141  1  0.12406831  0.12864694  0.65484786  1
  O  O142  1  0.11482192  0.63554483  0.11626789  1
  O  O143  1  0.11523960  0.60099782  0.64222861  1
  O  O144  1  0.62574489  0.13403148  0.10064523  1
  O  O145  1  0.61169523  0.11711266  0.60728609  1
  O  O146  1  0.61581788  0.61336231  0.12958365  1
  O  O147  1  0.63030608  0.63627987  0.61656951  1
  O  O148  1  0.38308432  0.38416347  0.38247000  1
  O  O149  1  0.37990880  0.38357297  0.89256601  1
  O  O150  1  0.37656981  0.85507842  0.36859185  1
  O  O151  1  0.38341434  0.88261074  0.89167793  1
  O  O152  1  0.88114657  0.39243386  0.37638665  1
  O  O153  1  0.87772952  0.37068564  0.89367185  1
  O  O154  1  0.89766354  0.85917004  0.38629531  1
  O  O155  1  0.87930467  0.87719624  0.88694236  1
  O  O156  1  0.24789766  0.00479867  0.36015389  1
  O  O157  1  0.26872041  0.01330559  0.87887541  1
  O  O158  1  0.26069366  0.50214422  0.36635913  1
  O  O159  1  0.24989180  0.51032946  0.88970885  1
  O  O160  1  0.77031595  -0.04561948  0.34463592  1
  O  O161  1  0.74400655  -0.00092262  0.85851129  1
  O  O162  1  0.75711287  0.52326553  0.37017193  1
  O  O163  1  0.75095939  0.50856903  0.87322698  1
  O  O164  1  0.25079192  0.49472212  0.14044599  1
  O  O165  1  0.24400110  0.48277788  0.63507664  1
  O  O166  1  0.24068510  0.99740631  0.12704426  1
  O  O167  1  0.24750713  1.00746969  0.65609367  1
  O  O168  1  0.73499522  0.49733045  0.11609180  1
  O  O169  1  0.73688615  0.50287468  0.60216195  1
  O  O170  1  0.73397472  1.00852559  0.15536063  1
  O  O171  1  0.73977344  0.98204381  0.62536161  1
  O  O172  1  0.00358526  0.35199932  0.22097273  1
  O  O173  1  0.00878534  0.37431617  0.76188095  1
  O  O174  1  0.00083253  0.86531373  0.21193398  1
  O  O175  1  0.03530153  0.90912146  0.65915394  1
  O  O176  1  0.50175076  0.36564912  0.25175774  1
  O  O177  1  0.50099827  0.35559886  0.74477319  1
  O  O178  1  0.49420451  0.85761337  0.24550749  1
  O  O179  1  0.49733179  0.87189648  0.75926027  1
  O  O180  1  0.48316457  0.13929059  0.25246511  1
  O  O181  1  0.49784607  0.12284709  0.74393498  1
  O  O182  1  0.49468152  0.62304705  0.23995270  1
  O  O183  1  0.49051187  0.63375353  0.76582260  1
  O  O184  1  1.01190789  0.16598864  0.24109258  1
  O  O185  1  0.99749012  0.15206705  0.73847136  1
  O  O186  1  1.00855792  0.62559936  0.23260023  1
  O  O187  1  0.98371289  0.58009650  0.72707208  1
  O  O188  1  0.37304380  0.26558496  -0.00205902  1
  O  O189  1  0.37824446  0.26299679  0.49681504  1
  O  O190  1  0.36694476  0.75561994  0.00769855  1
  O  O191  1  0.38082908  0.72608044  0.52469102  1
  O  O192  1  0.85982721  0.25890502  0.00200560  1
  O  O193  1  0.85479902  0.23764046  0.48893924  1
  O  O194  1  0.86526059  0.75862876  0.00065948  1
  O  O195  1  0.89428058  0.76758815  0.52160925  1
  O  O196  1  0.13110348  0.26806327  0.51438179  1
  O  O197  1  0.15509912  0.25802441  0.98635897  1
  O  O198  1  0.12002106  0.76558244  0.49314620  1
  O  O199  1  0.13615665  0.73529374  0.99094756  1
  O  O200  1  0.62929755  0.23370309  0.48811426  1
  O  O201  1  0.63481882  0.24763875  0.99132328  1
  O  O202  1  0.60040717  0.73706610  0.48795922  1
  O  O203  1  0.63616497  0.74944623  0.98982962  1
  O  O204  1  0.50171462  0.25638656  0.13476032  1
  O  O205  1  0.51205339  0.23585163  0.63960090  1
  O  O206  1  0.49842703  0.73290832  0.13440224  1
  O  O207  1  0.49538329  0.74602722  0.63399640  1
  O  O208  1  0.97678402  0.24554270  0.09901707  1
  O  O209  1  0.98304440  0.27376133  0.60347450  1
  O  O210  1  0.97533909  0.73080453  0.11264111  1
  O  O211  1  1.02174202  0.73472155  0.64093645  1
  O  O212  1  -0.00166255  0.25804943  0.37076756  1
  O  O213  1  0.02600804  0.24003978  0.89534768  1
  O  O214  1  0.01513280  0.72997505  0.37867219  1
  O  O215  1  0.01796635  0.73090572  0.87473264  1
  O  O216  1  0.49536096  0.26145182  0.36610946  1
  O  O217  1  0.51493196  0.24876832  0.86767741  1
  O  O218  1  0.49063751  0.75266996  0.36276151  1
  O  O219  1  0.49081584  0.76224341  0.87360758  1
  O  O220  1  0.24217704  0.14442972  0.49721020  1
  O  O221  1  0.26842858  0.14247049  0.99422665  1
  O  O222  1  0.25380046  0.60434388  0.49322554  1
  O  O223  1  0.24573143  0.62804781  0.99819473  1
  O  O224  1  0.72969398  0.12332065  0.49034334  1
  O  O225  1  0.74451716  0.13861117  0.99946391  1
  O  O226  1  0.73262778  0.63738080  0.49428821  1
  O  O227  1  0.74661736  0.63060331  0.97333834  1
  O  O228  1  0.26579600  0.37045378  0.00732673  1
  O  O229  1  0.25985563  0.36524593  0.50332985  1
  O  O230  1  0.26034824  0.86541741  0.00599211  1
  O  O231  1  0.28825563  0.87525978  0.50215491  1
  O  O232  1  0.75837649  0.37369153  0.00726228  1
  O  O233  1  0.74009930  0.35634819  0.48931250  1
  O  O234  1  0.75391267  0.85413083  -0.00946048  1
  O  O235  1  0.72092029  0.87292312  0.50516103  1
  O  O236  1  0.13457852  0.49788204  0.26415622  1
  O  O237  1  0.12548735  0.48375666  0.75398861  1
  O  O238  1  0.13849797  1.00779626  0.23980994  1
  O  O239  1  0.14942966  0.99588369  0.78941136  1
  O  O240  1  0.61486177  0.49023228  0.23515040  1
  O  O241  1  0.62099713  0.49791915  0.72353906  1
  O  O242  1  0.63954858  1.00561019  0.25048062  1
  O  O243  1  0.62074999  0.98615963  0.75077559  1
  O  O244  1  0.35987610  0.01797739  0.24291567  1
  O  O245  1  0.37252926  0.01173184  0.76258925  1
  O  O246  1  0.37747247  0.49459048  0.26454664  1
  O  O247  1  0.39204711  0.51141570  0.75846735  1
  O  O248  1  0.88301578  -0.00054947  0.25081116  1
  O  O249  1  0.85579315  -0.01834271  0.74346950  1
  O  O250  1  0.87509256  0.50463245  0.26851680  1
  O  O251  1  0.84027957  0.44563521  0.73096377  1
  O  O252  1  0.09238225  0.39650103  0.39710799  1
  O  O253  1  0.13173839  0.36788536  0.87279096  1
  O  O254  1  0.12186733  0.86581617  0.37874907  1
  O  O255  1  0.12478601  0.85487177  0.88568391  1
  O  O256  1  0.61010882  0.37956347  0.35914117  1
  O  O257  1  0.63106869  0.35871334  0.87864931  1
  O  O258  1  0.59780250  0.85752303  0.37409173  1
  O  O259  1  0.61086980  0.88048612  0.86500808  1
  O  O260  1  0.36619128  0.13356763  0.14003632  1
  O  O261  1  0.38741983  0.12782771  0.64179471  1
  O  O262  1  0.38352567  0.62065085  0.12576794  1
  O  O263  1  0.37734274  0.61592532  0.64354329  1
  O  O264  1  0.85687614  0.14201045  0.12727306  1
  O  O265  1  0.86062936  0.10698632  0.61777724  1
  O  O266  1  0.87997825  0.62398458  0.12509209  1
  O  O267  1  0.87813182  0.65606209  0.63268749  1
  O  O268  1  0.25304300  0.26067114  0.11633732  1
  O  O269  1  0.25503157  0.26533469  0.61544899  1
  O  O270  1  0.24328970  0.75914676  0.11950563  1
  O  O271  1  0.23357674  0.75726509  0.62287896  1
  O  O272  1  0.75470815  0.26201839  0.11295334  1
  O  O273  1  0.74136170  0.24144022  0.60194483  1
  O  O274  1  0.76175688  0.71995174  0.09556881  1
  O  O275  1  0.75267919  0.76481120  0.63180447  1
  O  O276  1  0.24800882  0.24842057  0.39206723  1
  O  O277  1  0.25992337  0.24568878  0.88560645  1
  O  O278  1  0.27211494  0.72489671  0.39164519  1
  O  O279  1  0.25027812  0.73859436  0.88931947  1
  O  O280  1  0.74648543  0.24350029  0.37919569  1
  O  O281  1  0.74610965  0.25297693  0.88408662  1
  O  O282  1  0.71795349  0.75318171  0.37131304  1
  O  O283  1  0.76074252  0.73979016  0.87640959  1
  O  O284  1  -0.03267825  0.08917511  -0.02665763  1
  O  O285  1  0.00001616  0.11728239  0.50398429  1
  O  O286  1  0.00559726  0.61286946  0.00845580  1
  O  O287  1  -0.00908091  0.61367545  0.53696268  1
  O  O288  1  0.50918659  0.11421798  -0.00157615  1
  O  O289  1  0.49845035  0.12692656  0.51041424  1
  O  O290  1  0.49726749  0.61373351  0.01408563  1
  O  O291  1  0.49837141  0.61570174  0.51521051  1
  O  O292  1  0.49907669  0.37864839  0.49148874  1
  O  O293  1  0.49172238  0.38839949  1.00870210  1
  O  O294  1  0.48634649  0.87692026  0.48469277  1
  O  O295  1  0.49795827  0.87789002  1.00047495  1
  O  O296  1  1.03617001  0.39142232  0.44879965  1
  O  O297  1  0.98652969  0.39018885  1.01358345  1
  O  O298  1  0.99719531  0.89760513  0.50622364  1
  O  O299  1  0.97923864  0.87393167  1.01276474  1
  O  O300  1  0.49352548  0.49492104  0.38181535  1
  O  O301  1  0.51781990  0.51017446  0.89207219  1
  O  O302  1  0.48719180  0.97640315  0.35199005  1
  O  O303  1  0.49311015  0.99222942  0.88569815  1
  O  O304  1  0.97312681  0.54331353  0.38611781  1
  O  O305  1  1.00166070  0.50366024  0.89345671  1
  O  O306  1  0.99888103  0.99829294  0.35947503  1
  O  O307  1  0.96479529  1.05878560  0.90544199  1
  O  O308  1  0.02053288  0.01050347  0.12359333  1
  O  O309  1  -0.07545760  0.06896469  0.63076102  1
  O  O310  1  -0.00832290  0.51244108  0.11749575  1
  O  O311  1  0.02500255  0.45794800  0.61850853  1
  O  O312  1  0.49920947  -0.00914227  0.11919030  1
  O  O313  1  0.49244462  0.01043771  0.62388098  1
  O  O314  1  0.50600192  0.50961998  0.12254796  1
  O  O315  1  0.51198411  0.48943580  0.61128326  1
  O  O316  1  0.25733550  0.38515400  0.24168195  1
  O  O317  1  0.27335538  0.36747305  0.74499093  1
  O  O318  1  0.25757782  0.89557043  0.23617168  1
  O  O319  1  0.26960040  0.88952351  0.76167944  1
  O  O320  1  0.73706510  0.36884265  0.23928931  1
  O  O321  1  0.81703790  0.37256900  0.72261711  1
  O  O322  1  0.76810110  0.88816751  0.28999359  1
  O  O323  1  0.72896171  0.87907349  0.74696603  1
  O  O324  1  0.25591071  0.12415792  0.25780012  1
  O  O325  1  0.27325635  0.13076585  0.76221777  1
  O  O326  1  0.24762334  0.60832938  0.25806147  1
  O  O327  1  0.26666186  0.62008076  0.76800094  1
  O  O328  1  0.69774978  0.05459500  0.21572917  1
  O  O329  1  0.74144506  0.10062488  0.73634924  1
  O  O330  1  0.73081826  0.63818459  0.26067128  1
  O  O331  1  0.76968606  0.62872344  0.75430814  1
  O  O332  1  0.35439162  0.13068139  0.36411186  1
  O  O333  1  0.37859736  0.11795562  0.87444379  1
  O  O334  1  0.37003269  0.60669086  0.37994537  1
  O  O335  1  0.36595894  0.62368271  0.87479449  1
  O  O336  1  0.87224067  0.09786448  0.37360207  1
  O  O337  1  0.92371525  0.15625483  0.77978773  1
  O  O338  1  0.84290526  0.66597438  0.37711111  1
  O  O339  1  0.87308727  0.61879773  0.87450548  1
  O  O340  1  0.15086161  0.37651188  0.11361531  1
  O  O341  1  0.14572077  0.37521496  0.65205954  1
  O  O342  1  0.13598815  0.88845770  0.11266452  1
  O  O343  1  0.19641617  0.82188169  0.62682609  1
  O  O344  1  0.63281208  0.38112160  0.13136045  1
  O  O345  1  0.62910340  0.38138958  0.61618744  1
  O  O346  1  0.64479124  0.82159150  0.14884934  1
  O  O347  1  0.62321873  0.87070650  0.63443115  1
  O  O348  1  0.13442863  0.26378259  0.26578815  1
  O  O349  1  0.13670889  0.26858329  0.76984507  1
  O  O350  1  0.16477409  0.75750686  0.28662033  1
  O  O351  1  0.13950269  0.74266935  0.77053637  1
  O  O352  1  0.60910399  0.25785809  0.25065908  1
  O  O353  1  0.62101890  0.24000452  0.76091784  1
  O  O354  1  0.59725456  0.73263747  0.26906385  1
  O  O355  1  0.60308040  0.76798492  0.74756204  1
  O  O356  1  0.38267313  0.24790305  0.25023864  1
  O  O357  1  0.39892985  0.23516011  0.76247825  1
  O  O358  1  0.37980689  0.74693794  0.24660209  1
  O  O359  1  0.38556506  0.73795838  0.75391676  1
  O  O360  1  0.86953661  0.25966271  0.23419691  1
  O  O361  1  0.87891925  0.21395554  0.75051271  1
  O  O362  1  0.84896011  0.74948752  0.22541631  1
  O  O363  1  0.88719413  0.79864526  0.71926945  1
  O  O364  1  0.38591971  0.48766856  0.49376311  1
  O  O365  1  0.39053707  0.49388705  1.00184578  1
  O  O366  1  0.32943927  0.91971252  0.55272191  1
  O  O367  1  0.38538499  0.99377230  1.00030856  1
  O  O368  1  0.85332991  0.51598041  0.48068375  1
  O  O369  1  0.87905161  0.49290067  1.00185676  1
  O  O370  1  0.86050140  0.97580730  0.47280866  1
  O  O371  1  0.85202747  0.97640527  1.01665202  1
  O  O372  1  0.13027148  0.01196897  0.00205107  1
  O  O373  1  0.13791705  -0.01158229  0.51320072  1
  O  O374  1  0.11289670  0.50651506  0.00316113  1
  O  O375  1  0.13903198  0.49132374  0.52398405  1
  O  O376  1  0.62084958  0.01024145  -0.00503505  1
  O  O377  1  0.62338047  0.00954180  0.47952697  1
  O  O378  1  0.61115000  0.49104683  0.01722260  1
  O  O379  1  0.61702152  0.51935132  0.50717162  1
  O  O380  1  0.36102616  0.38196264  0.11267874  1
  O  O381  1  0.36858953  0.38459719  0.61699005  1
  O  O382  1  0.36529606  0.87657512  0.11603356  1
  O  O383  1  0.36678397  0.87601596  0.60809511  1
  O  O384  1  0.86265881  0.37242744  0.11710320  1
  O  O385  1  0.91377517  0.30038995  0.62121731  1
  O  O386  1  0.85938560  0.85669076  0.11592913  1
  O  O387  1  0.84854760  0.87827455  0.59703459  1
  O  O388  1  0.14570930  0.12226264  0.36917310  1
  O  O389  1  0.14822799  0.14337463  0.86248542  1
  O  O390  1  0.14176562  0.63379545  0.38337562  1
  O  O391  1  0.14044628  0.62542850  0.88313243  1
  O  O392  1  0.60235834  0.12699497  0.38242925  1
  O  O393  1  0.62586873  0.13949805  0.89087083  1
  O  O394  1  0.62817290  0.62993767  0.38693325  1
  O  O395  1  0.66023787  0.63533395  0.82586688  1
