# generated using pymatgen
data_V35Zn35O128
_symmetry_space_group_name_H-M   'P 1'
_cell_length_a   16.83332433
_cell_length_b   16.83456345
_cell_length_c   16.83015476
_cell_angle_alpha   90.01239002
_cell_angle_beta   90.01052586
_cell_angle_gamma   89.98427022
_symmetry_Int_Tables_number   1
_chemical_formula_structural   V35Zn35O128
_chemical_formula_sum   'V70 Zn70 O256'
_cell_volume   4769.35693081
_cell_formula_units_Z   2
loop_
 _symmetry_equiv_pos_site_id
 _symmetry_equiv_pos_as_xyz
  1  'x, y, z'
loop_
 _atom_site_type_symbol
 _atom_site_label
 _atom_site_symmetry_multiplicity
 _atom_site_fract_x
 _atom_site_fract_y
 _atom_site_fract_z
 _atom_site_occupancy
  V  V0  1  0.75873125  0.87020388  0.61184814  1
  V  V1  1  0.11338315  0.62035572  0.00316052  1
  V  V2  1  0.50385973  0.75146791  0.75270365  1
  V  V3  1  -0.00911615  -0.01035813  0.50621541  1
  V  V4  1  0.62306297  0.49578236  0.62732973  1
  V  V5  1  0.25207996  0.51950358  0.75971870  1
  V  V6  1  0.00215909  0.12425836  0.62401771  1
  V  V7  1  0.87095796  0.60891637  0.25460518  1
  V  V8  1  0.12750966  0.74113450  0.87291313  1
  V  V9  1  -0.00066648  0.38994533  0.38050609  1
  V  V10  1  0.50311601  0.62620063  0.62842243  1
  V  V11  1  0.75639039  0.37759340  0.10783574  1
  V  V12  1  0.51306454  0.26840220  0.23834389  1
  V  V13  1  0.24539127  0.87697538  0.62954338  1
  V  V14  1  0.37893092  0.38149911  0.48910479  1
  V  V15  1  0.37998801  0.63051083  0.23276116  1
  V  V16  1  0.73743586  0.03152592  0.26725374  1
  V  V17  1  0.74857524  0.72649475  0.49675319  1
  V  V18  1  0.75850861  0.49558472  0.74394661  1
  V  V19  1  0.25812355  0.74770338  0.00875873  1
  V  V20  1  0.62964452  0.76320867  0.87373468  1
  V  V21  1  0.87366245  0.39287941  0.49803116  1
  V  V22  1  0.75382650  0.62348379  0.87232893  1
  V  V23  1  0.12855280  0.11421216  0.50550631  1
  V  V24  1  0.87934356  -0.00454308  0.88423557  1
  V  V25  1  0.12517515  0.37585875  0.24590577  1
  V  V26  1  -0.00407227  0.73579916  0.22826119  1
  V  V27  1  0.87590587  0.23777524  0.11211610  1
  V  V28  1  0.12348971  0.38136014  0.74119933  1
  V  V29  1  0.23610733  0.13075052  0.87907829  1
  V  V30  1  0.12878306  0.24654302  0.37809679  1
  V  V31  1  0.61853014  0.73913769  0.37273117  1
  V  V32  1  0.10817762  0.50545495  0.12508397  1
  V  V33  1  0.25313193  0.25084831  0.51014311  1
  V  V34  1  0.00846119  0.85728242  0.37253866  1
  V  V35  1  0.49402705  -0.00592717  0.48450598  1
  V  V36  1  0.11517894  0.88017553  0.75515062  1
  V  V37  1  -0.01370866  0.74379954  0.74789519  1
  V  V38  1  0.62825145  0.01642518  0.10979445  1
  V  V39  1  0.38047399  0.14725774  0.74866796  1
  V  V40  1  0.74020337  -0.00870825  0.74930701  1
  V  V41  1  0.37613137  0.87064558  0.48956110  1
  V  V42  1  0.24693321  0.88946951  0.11784028  1
  V  V43  1  0.11783766  0.60440981  0.50538924  1
  V  V44  1  0.75579183  0.87122839  0.14835968  1
  V  V45  1  0.88179640  0.00095256  0.35975362  1
  V  V46  1  -0.00761578  0.23666767  0.25059941  1
  V  V47  1  0.39464902  0.37933601  -0.00574384  1
  V  V48  1  0.00673285  0.25141805  0.74670304  1
  V  V49  1  0.49805943  0.50484678  0.48960890  1
  V  V50  1  0.73271271  0.49245410  0.25334773  1
  V  V51  1  0.37399755  0.74423779  0.63417915  1
  V  V52  1  0.38445565  0.12436975  0.24977268  1
  V  V53  1  0.88207117  0.50169141  0.89332263  1
  V  V54  1  0.76025452  0.22872497  0.48136976  1
  V  V55  1  0.23211224  -0.00204403  0.25458199  1
  V  V56  1  0.48368337  0.88321985  0.88678809  1
  V  V57  1  0.22551129  0.26206925  0.00056496  1
  V  V58  1  0.25282861  0.49598011  0.24190148  1
  V  V59  1  0.76612680  0.76064400  0.00381135  1
  V  V60  1  0.25409161  0.61441255  0.37751508  1
  V  V61  1  0.60996733  0.36309073  0.76015611  1
  V  V62  1  0.26039539  -0.00320711  0.76016998  1
  V  V63  1  0.23968380  0.74763823  0.49306026  1
  V  V64  1  0.61325924  -0.00280108  0.61988099  1
  V  V65  1  0.38924410  0.51381871  0.87649237  1
  V  V66  1  -0.00785360  0.61563865  0.62632753  1
  V  V67  1  0.26081496  0.38151633  0.63261898  1
  V  V68  1  0.86200226  0.12594943  0.74733598  1
  V  V69  1  0.00120194  0.37673718  0.88318096  1
  Zn  Zn70  1  0.26751735  0.11209433  0.38480199  1
  Zn  Zn71  1  0.85862323  0.25669041  0.62011392  1
  Zn  Zn72  1  0.63290831  0.62414393  0.00308752  1
  Zn  Zn73  1  0.37052771  0.26168140  0.12332365  1
  Zn  Zn74  1  0.53381501  0.87332506  0.31738810  1
  Zn  Zn75  1  0.49920645  0.13884406  0.62779824  1
  Zn  Zn76  1  0.20340097  0.19549166  0.19689702  1
  Zn  Zn77  1  0.18803570  0.18707599  0.68908745  1
  Zn  Zn78  1  0.19084729  0.69264515  0.19265947  1
  Zn  Zn79  1  0.18112141  0.68964438  0.68180962  1
  Zn  Zn80  1  0.69287203  0.19919292  0.18540074  1
  Zn  Zn81  1  0.68125083  0.19046994  0.66883742  1
  Zn  Zn82  1  0.69483946  0.69305420  0.19945603  1
  Zn  Zn83  1  0.68949400  0.68670143  0.68621967  1
  Zn  Zn84  1  0.31841287  0.30961145  0.31829743  1
  Zn  Zn85  1  0.31157166  0.31750894  0.82303452  1
  Zn  Zn86  1  0.35752620  0.83768072  0.27405957  1
  Zn  Zn87  1  0.31061620  0.80661081  0.81840203  1
  Zn  Zn88  1  0.81015718  0.32053525  0.30949494  1
  Zn  Zn89  1  0.82126563  0.32183692  0.80162034  1
  Zn  Zn90  1  0.82640070  0.80252449  0.33415123  1
  Zn  Zn91  1  0.81284243  0.81906443  0.81236892  1
  Zn  Zn92  1  0.18775477  0.43382939  0.43747483  1
  Zn  Zn93  1  0.18394490  0.44230501  0.93093377  1
  Zn  Zn94  1  0.18894624  0.93194610  0.43264847  1
  Zn  Zn95  1  0.17839981  0.93184612  0.93619194  1
  Zn  Zn96  1  0.68717143  0.44052522  0.44325414  1
  Zn  Zn97  1  0.70337314  0.41410307  0.92437564  1
  Zn  Zn98  1  0.68729742  0.93516178  0.43305997  1
  Zn  Zn99  1  0.69973352  0.94801590  0.93607445  1
  Zn  Zn100  1  0.30071970  0.07582059  0.07696362  1
  Zn  Zn101  1  0.31554652  0.05766693  0.56938001  1
  Zn  Zn102  1  0.30733214  0.56011107  0.05552893  1
  Zn  Zn103  1  0.31365468  0.56278037  0.56791129  1
  Zn  Zn104  1  0.84637952  0.02923880  0.09494071  1
  Zn  Zn105  1  0.80839028  0.06254712  0.56104747  1
  Zn  Zn106  1  0.81734416  0.56894520  0.07258635  1
  Zn  Zn107  1  0.81280259  0.56358280  0.56153023  1
  Zn  Zn108  1  0.42510609  0.42556539  0.19491231  1
  Zn  Zn109  1  0.43566099  0.43852676  0.69594399  1
  Zn  Zn110  1  0.43612800  0.94640000  0.16091456  1
  Zn  Zn111  1  0.43537794  0.92547990  0.69313040  1
  Zn  Zn112  1  0.93020059  0.42941564  0.18868058  1
  Zn  Zn113  1  0.93941787  0.43695236  0.67848708  1
  Zn  Zn114  1  0.94165004  0.91338863  0.18904248  1
  Zn  Zn115  1  0.93494812  0.93795371  0.68827237  1
  Zn  Zn116  1  0.06311670  0.06024459  0.32181740  1
  Zn  Zn117  1  0.05733557  0.06145678  0.81344591  1
  Zn  Zn118  1  0.06578635  0.57691477  0.31515861  1
  Zn  Zn119  1  0.06437979  0.56146370  0.80831494  1
  Zn  Zn120  1  0.55053049  0.08463115  0.31934416  1
  Zn  Zn121  1  0.55457721  0.06267415  0.81036402  1
  Zn  Zn122  1  0.56530457  0.56608975  0.30509856  1
  Zn  Zn123  1  0.56824484  0.56633158  0.81096605  1
  Zn  Zn124  1  0.44594143  0.19211922  0.45831345  1
  Zn  Zn125  1  0.39632238  0.17516166  0.94646338  1
  Zn  Zn126  1  0.43848665  0.68883146  0.43478248  1
  Zn  Zn127  1  0.44234630  0.69519858  0.94611674  1
  Zn  Zn128  1  0.94086817  0.18591255  0.43338612  1
  Zn  Zn129  1  0.93158817  0.18947534  0.92506226  1
  Zn  Zn130  1  0.92836809  0.67624735  0.44125083  1
  Zn  Zn131  1  0.94053579  0.68785840  0.93208555  1
  Zn  Zn132  1  0.05534525  0.31417464  0.06870740  1
  Zn  Zn133  1  0.06290005  0.31446545  0.56396164  1
  Zn  Zn134  1  0.08389054  0.79771018  0.08310890  1
  Zn  Zn135  1  0.05839595  0.80658313  0.56832440  1
  Zn  Zn136  1  0.56638320  0.30617150  0.05572705  1
  Zn  Zn137  1  0.55999183  0.31826414  0.57270661  1
  Zn  Zn138  1  0.59140703  0.84028986  0.04693962  1
  Zn  Zn139  1  0.57047490  0.81482266  0.55948930  1
  O  O140  1  0.04070504  0.12868325  0.05505285  1
  O  O141  1  0.11561431  0.12882774  0.61737151  1
  O  O142  1  0.12221250  0.61493766  0.11714426  1
  O  O143  1  0.12010401  0.62659010  0.61049855  1
  O  O144  1  0.64074273  0.11557895  0.12657198  1
  O  O145  1  0.61697887  0.10446287  0.62597435  1
  O  O146  1  0.60598265  0.64747415  0.12219472  1
  O  O147  1  0.61293278  0.61344052  0.63110297  1
  O  O148  1  0.37034913  0.38490611  0.39002113  1
  O  O149  1  0.37173436  0.38818654  0.88702515  1
  O  O150  1  0.36662917  0.86213329  0.39183360  1
  O  O151  1  0.38357715  0.87030416  0.87885398  1
  O  O152  1  0.89305339  0.37395689  0.38176533  1
  O  O153  1  0.88616908  0.39059931  0.86921547  1
  O  O154  1  0.89526209  0.88758366  0.37806693  1
  O  O155  1  0.86990907  0.89479396  0.87428238  1
  O  O156  1  0.25112673  -0.00316862  0.36123713  1
  O  O157  1  0.24097688  0.00497511  0.86619397  1
  O  O158  1  0.24341732  0.50844928  0.36710729  1
  O  O159  1  0.25383884  0.50543783  0.86401884  1
  O  O160  1  0.76924350  -0.00786716  0.36650745  1
  O  O161  1  0.75507209  0.00454475  0.85315232  1
  O  O162  1  0.73578399  0.48924752  0.35537307  1
  O  O163  1  0.76405089  0.50348943  0.86853053  1
  O  O164  1  0.23720968  0.50377748  0.13925331  1
  O  O165  1  0.25783066  0.48891561  0.64091821  1
  O  O166  1  0.23843533  0.99896651  0.13116331  1
  O  O167  1  0.25003811  0.98662795  0.64125526  1
  O  O168  1  0.75651077  0.48521415  0.12674256  1
  O  O169  1  0.73505721  0.50919820  0.63519010  1
  O  O170  1  0.74180491  0.99925318  0.16011486  1
  O  O171  1  0.74156393  0.99436686  0.62994240  1
  O  O172  1  0.00958763  0.36635295  0.26275167  1
  O  O173  1  0.00647814  0.36918459  0.74549669  1
  O  O174  1  -0.00016794  0.85068334  0.26303908  1
  O  O175  1  0.01043554  0.86233195  0.74009677  1
  O  O176  1  0.50141349  0.37048197  0.25411769  1
  O  O177  1  0.50929818  0.36853737  0.74658971  1
  O  O178  1  0.46106277  0.86813335  0.23937507  1
  O  O179  1  0.49856885  0.85844246  0.76517243  1
  O  O180  1  0.48837857  0.14223439  0.24306909  1
  O  O181  1  0.48573420  0.13197317  0.74969498  1
  O  O182  1  0.47794586  0.61600315  0.25288246  1
  O  O183  1  0.50257793  0.63897955  0.74288000  1
  O  O184  1  1.01336703  0.13839596  0.25360497  1
  O  O185  1  0.99574903  0.13247056  0.74139685  1
  O  O186  1  0.98925587  0.62569730  0.24659479  1
  O  O187  1  1.00604139  0.63523485  0.74105803  1
  O  O188  1  0.36586221  0.26816892  -0.00194648  1
  O  O189  1  0.35981426  0.26728559  0.49299523  1
  O  O190  1  0.35673186  0.74780842  -0.00048318  1
  O  O191  1  0.36596836  0.75544797  0.51156875  1
  O  O192  1  0.89352235  0.24603910  0.01272584  1
  O  O193  1  0.86824978  0.24757941  0.49630520  1
  O  O194  1  0.86483693  0.75054370  -0.01058710  1
  O  O195  1  0.85085737  0.74006993  0.49936245  1
  O  O196  1  0.13260425  0.24305642  0.49632535  1
  O  O197  1  0.12550969  0.25214454  0.99993148  1
  O  O198  1  0.13890687  0.74689651  0.50748330  1
  O  O199  1  0.12185993  0.74051055  0.99038502  1
  O  O200  1  0.63902634  0.28597523  0.47775201  1
  O  O201  1  0.61004931  0.21320500  0.98963624  1
  O  O202  1  0.63662396  0.75263165  0.49284441  1
  O  O203  1  0.63996665  0.74952736  0.98617992  1
  O  O204  1  0.49616148  0.26000807  0.13394832  1
  O  O205  1  0.50040856  0.22901229  0.56164534  1
  O  O206  1  0.53138925  0.67865956  0.10283676  1
  O  O207  1  0.49691041  0.74677767  0.63163452  1
  O  O208  1  0.99229848  0.25487704  0.14332259  1
  O  O209  1  0.99788343  0.24048879  0.63058771  1
  O  O210  1  0.98875080  0.75851711  0.12824618  1
  O  O211  1  1.00285350  0.73917858  0.64046409  1
  O  O212  1  0.01449253  0.25347098  0.36841276  1
  O  O213  1  -0.01128953  0.26745756  0.85899714  1
  O  O214  1  -0.00245171  0.75983853  0.39583448  1
  O  O215  1  0.01258005  0.74376626  0.85963523  1
  O  O216  1  0.50877769  0.24711346  0.36038239  1
  O  O217  1  0.57491004  0.19047933  0.92194034  1
  O  O218  1  0.51182217  0.75576651  0.38232565  1
  O  O219  1  0.51485714  0.75251855  0.87352261  1
  O  O220  1  0.24744922  0.13124325  0.50460258  1
  O  O221  1  0.25722641  0.13100836  0.98414468  1
  O  O222  1  0.24308700  0.62799656  0.49900585  1
  O  O223  1  0.23428186  0.64054841  1.00763599  1
  O  O224  1  0.75041231  0.12735103  0.48533603  1
  O  O225  1  0.75996244  0.20841545  0.92796463  1
  O  O226  1  0.73777516  0.62621232  0.50567808  1
  O  O227  1  0.75282688  0.63534018  0.99341055  1
  O  O228  1  0.24023350  0.36297292  -0.00876736  1
  O  O229  1  0.25697297  0.37565715  0.51410338  1
  O  O230  1  0.23688495  0.86364835  0.00730006  1
  O  O231  1  0.25325486  0.86387829  0.50792358  1
  O  O232  1  0.77048230  0.38111985  0.00507085  1
  O  O233  1  0.77257151  0.37693395  0.49051088  1
  O  O234  1  0.75142332  0.86187214  -0.00380513  1
  O  O235  1  0.75467605  0.88369914  0.51133372  1
  O  O236  1  0.12814503  0.49786553  0.24135698  1
  O  O237  1  0.14177226  0.49374846  0.75271913  1
  O  O238  1  0.13226949  0.99916863  0.25298717  1
  O  O239  1  0.12511552  0.98320688  0.75406136  1
  O  O240  1  0.63254309  0.50395809  0.23683937  1
  O  O241  1  0.62898386  0.49166758  0.74277928  1
  O  O242  1  0.63712063  1.02110838  0.28108157  1
  O  O243  1  0.63584224  1.00596419  0.74342827  1
  O  O244  1  0.37714490  0.02217832  0.24082033  1
  O  O245  1  0.36084953  -0.00647068  0.75541288  1
  O  O246  1  0.35717084  0.50508100  0.24663754  1
  O  O247  1  0.36290290  0.49869282  0.76411507  1
  O  O248  1  0.88178287  -0.00213560  0.25644694  1
  O  O249  1  0.86599777  0.01175775  0.74995788  1
  O  O250  1  0.86898022  0.50296622  0.25081366  1
  O  O251  1  0.85966970  0.49633670  0.74151081  1
  O  O252  1  0.11839262  0.36738300  0.36988715  1
  O  O253  1  0.10772502  0.38533586  0.85929556  1
  O  O254  1  0.10866885  0.87294064  0.38058276  1
  O  O255  1  0.12026238  0.86147887  0.86252952  1
  O  O256  1  0.62599531  0.33584394  0.41894399  1
  O  O257  1  0.62123823  0.37600337  0.86256706  1
  O  O258  1  0.62328486  0.86429631  0.37759717  1
  O  O259  1  0.62832449  0.86426826  0.87631818  1
  O  O260  1  0.36260633  0.14387174  0.14297786  1
  O  O261  1  0.37066525  0.12100181  0.64654069  1
  O  O262  1  0.37018463  0.61783597  0.13271347  1
  O  O263  1  0.38541518  0.63564190  0.62339798  1
  O  O264  1  0.87498375  0.13562823  0.12622385  1
  O  O265  1  0.88530434  0.12464932  0.63197379  1
  O  O266  1  0.87502189  0.62908140  0.14743679  1
  O  O267  1  0.89181160  0.62203179  0.62052475  1
  O  O268  1  0.24353232  0.24531210  0.10489907  1
  O  O269  1  0.24431241  0.26212282  0.61754446  1
  O  O270  1  0.24427715  0.75906713  0.11533547  1
  O  O271  1  0.25766984  0.75391456  0.62068824  1
  O  O272  1  0.76973616  0.25583524  0.12418789  1
  O  O273  1  0.74334708  0.24752396  0.59190931  1
  O  O274  1  0.75066297  0.76298465  0.11525640  1
  O  O275  1  0.73867128  0.76207611  0.61443005  1
  O  O276  1  0.23832352  0.25628316  0.38750976  1
  O  O277  1  0.24466969  0.23958837  0.88308739  1
  O  O278  1  0.24805861  0.73589168  0.39287387  1
  O  O279  1  0.23436443  0.75325851  0.88769521  1
  O  O280  1  0.75463491  0.25266334  0.38209001  1
  O  O281  1  0.73887101  0.25578920  0.87469558  1
  O  O282  1  0.74058815  0.74939599  0.39025271  1
  O  O283  1  0.74545180  0.74487376  0.87657751  1
  O  O284  1  0.01223869  0.11209911  -0.01108318  1
  O  O285  1  0.00911922  0.11573258  0.50673369  1
  O  O286  1  0.01350089  0.62562726  -0.00191766  1
  O  O287  1  0.01076372  0.62540262  0.51041622  1
  O  O288  1  0.45715425  0.08479496  0.00012636  1
  O  O289  1  0.46927819  0.08889057  0.51256453  1
  O  O290  1  0.51107965  0.64310623  0.02915077  1
  O  O291  1  0.49159974  0.61146915  0.51163967  1
  O  O292  1  0.48450839  0.38846663  0.50733100  1
  O  O293  1  0.49418462  0.37056039  0.99106537  1
  O  O294  1  0.48347089  0.87914621  0.50710188  1
  O  O295  1  0.50127409  0.86571346  0.98726419  1
  O  O296  1  0.99923631  0.37117642  0.48603515  1
  O  O297  1  1.00723694  0.37420780  0.98188487  1
  O  O298  1  1.00689935  0.88724557  0.50457698  1
  O  O299  1  1.03722258  0.94746587  1.04028198  1
  O  O300  1  0.50757802  0.50412600  0.39191271  1
  O  O301  1  0.48924576  0.50389069  0.86754575  1
  O  O302  1  0.50055103  0.99766427  0.38390028  1
  O  O303  1  0.50343109  0.98116727  0.87052213  1
  O  O304  1  1.01101082  0.48788587  0.37166073  1
  O  O305  1  0.98894530  0.49372768  0.86674941  1
  O  O306  1  0.99863880  0.98917451  0.38784098  1
  O  O307  1  0.98095528  1.00627462  0.87418260  1
  O  O308  1  0.00481558  -0.01785541  0.10557158  1
  O  O309  1  -0.00189189  0.00794993  0.61563042  1
  O  O310  1  0.00976373  0.49561228  0.12812050  1
  O  O311  1  0.00877882  0.51653562  0.63816331  1
  O  O312  1  0.53091654  -0.00106787  0.13140037  1
  O  O313  1  0.50961194  -0.01109243  0.63182332  1
  O  O314  1  0.56998804  0.48534894  0.08550013  1
  O  O315  1  0.50625674  0.50833306  0.62896843  1
  O  O316  1  0.23938593  0.38878530  0.26066336  1
  O  O317  1  0.24305324  0.37360099  0.74245587  1
  O  O318  1  0.26090671  0.89434483  0.23888570  1
  O  O319  1  0.24160964  0.88169450  0.75123749  1
  O  O320  1  0.75270282  0.38594286  0.23620713  1
  O  O321  1  0.74088530  0.39096474  0.75442850  1
  O  O322  1  0.76345021  0.86073034  0.24658431  1
  O  O323  1  0.74889778  0.88744442  0.74048778  1
  O  O324  1  0.25136129  0.11235400  0.25528804  1
  O  O325  1  0.25041430  0.11257806  0.75547651  1
  O  O326  1  0.24737302  0.61372945  0.26263832  1
  O  O327  1  0.24751835  0.61784923  0.74557143  1
  O  O328  1  0.75305598  0.12842052  0.26374644  1
  O  O329  1  0.75977343  0.12140535  0.73537470  1
  O  O330  1  0.75669105  0.60684386  0.24197341  1
  O  O331  1  0.74282736  0.61160163  0.76196378  1
  O  O332  1  0.37588336  0.14277557  0.35950705  1
  O  O333  1  0.35688807  0.12341570  0.85477585  1
  O  O334  1  0.35664015  0.62308319  0.37950965  1
  O  O335  1  0.38145959  0.61460665  0.88846941  1
  O  O336  1  0.89139414  0.10086322  0.37563460  1
  O  O337  1  0.87459593  0.12328674  0.85223873  1
  O  O338  1  0.87640468  0.61865444  0.35929392  1
  O  O339  1  0.86887284  0.61132114  0.87474109  1
  O  O340  1  0.11999758  0.38683690  0.13714979  1
  O  O341  1  0.13571970  0.37562167  0.63350015  1
  O  O342  1  0.14346597  0.87278752  0.13680599  1
  O  O343  1  0.13701854  0.86092766  0.64265829  1
  O  O344  1  0.65492921  0.35430326  0.10662253  1
  O  O345  1  0.62120700  0.38997857  0.63571861  1
  O  O346  1  0.65021588  0.89252057  0.12696352  1
  O  O347  1  0.63670382  0.88975304  0.62390795  1
  O  O348  1  0.12530232  0.25818355  0.25657832  1
  O  O349  1  0.11417412  0.25951939  0.74687592  1
  O  O350  1  0.09868591  0.72961939  0.24774519  1
  O  O351  1  0.12571982  0.75365624  0.76207778  1
  O  O352  1  0.61191175  0.24997218  0.24692453  1
  O  O353  1  0.63370960  0.26529937  0.74122222  1
  O  O354  1  0.62969357  0.75236188  0.26932468  1
  O  O355  1  0.62175381  0.74462390  0.76572392  1
  O  O356  1  0.38084415  0.25536085  0.24413780  1
  O  O357  1  0.36790414  0.24650301  0.75046764  1
  O  O358  1  0.35530853  0.72669501  0.25071958  1
  O  O359  1  0.38176922  0.75271959  0.74189602  1
  O  O360  1  0.89175794  0.24670271  0.26009347  1
  O  O361  1  0.87845650  0.24132903  0.74086660  1
  O  O362  1  0.89019360  0.73741586  0.26126861  1
  O  O363  1  0.88734173  0.75006910  0.75793631  1
  O  O364  1  0.38345203  0.49219012  0.50667441  1
  O  O365  1  0.37148143  0.49184675  0.98800855  1
  O  O366  1  0.37283602  0.97740152  0.50442244  1
  O  O367  1  0.40726733  1.02927073  1.01907681  1
  O  O368  1  0.87934651  0.49278634  0.50079974  1
  O  O369  1  0.88123133  0.50469688  0.99142722  1
  O  O370  1  0.88944976  1.00062575  0.49801040  1
  O  O371  1  0.85658221  1.01971469  0.98070659  1
  O  O372  1  0.10126329  -0.01269963  0.01302886  1
  O  O373  1  0.12174045  0.00994620  0.49624087  1
  O  O374  1  0.13046586  0.50985351  0.01190968  1
  O  O375  1  0.12754088  0.50497932  0.50616979  1
  O  O376  1  0.63854128  0.00696429  0.00865073  1
  O  O377  1  0.60450436  -0.00630643  0.50722126  1
  O  O378  1  0.60488001  0.49988815  0.02128662  1
  O  O379  1  0.60982544  0.49069046  0.51641314  1
  O  O380  1  0.37511341  0.38446175  0.10193205  1
  O  O381  1  0.36352977  0.37364446  0.62407635  1
  O  O382  1  0.35122938  0.88719224  0.11125797  1
  O  O383  1  0.36278409  0.86340813  0.62250655  1
  O  O384  1  0.87064150  0.35563148  0.12838637  1
  O  O385  1  0.88781860  0.36960196  0.60336063  1
  O  O386  1  0.85147481  0.90608801  0.11616261  1
  O  O387  1  0.85834780  0.87676817  0.63049057  1
  O  O388  1  0.13032985  0.13324358  0.38861538  1
  O  O389  1  0.13588620  0.12283498  0.87019904  1
  O  O390  1  0.13612038  0.62252210  0.39539947  1
  O  O391  1  0.12414255  0.63163416  0.88531027  1
  O  O392  1  0.55240001  0.18376112  0.38832842  1
  O  O393  1  0.61683806  0.13306229  0.88409494  1
  O  O394  1  0.61945773  0.63660809  0.37750858  1
  O  O395  1  0.63746671  0.62762527  0.88261560  1
