# generated using pymatgen
data_V35Zn35O128
_symmetry_space_group_name_H-M   'P 1'
_cell_length_a   16.88550195
_cell_length_b   16.87980686
_cell_length_c   16.89175822
_cell_angle_alpha   89.96481595
_cell_angle_beta   89.93613023
_cell_angle_gamma   89.89316167
_symmetry_Int_Tables_number   1
_chemical_formula_structural   V35Zn35O128
_chemical_formula_sum   'V70 Zn70 O256'
_cell_volume   4814.54443064
_cell_formula_units_Z   2
loop_
 _symmetry_equiv_pos_site_id
 _symmetry_equiv_pos_as_xyz
  1  'x, y, z'
loop_
 _atom_site_type_symbol
 _atom_site_label
 _atom_site_symmetry_multiplicity
 _atom_site_fract_x
 _atom_site_fract_y
 _atom_site_fract_z
 _atom_site_occupancy
  V  V0  1  0.12105676  0.12473413  -0.00622425  1
  V  V1  1  0.62385048  0.25649651  0.84677467  1
  V  V2  1  0.73938069  0.88572204  0.12405624  1
  V  V3  1  -0.01004395  0.87262721  0.37833614  1
  V  V4  1  -0.01941590  0.38459761  0.88486284  1
  V  V5  1  0.02040106  0.51004778  0.49950858  1
  V  V6  1  0.73721487  0.26169291  0.00400617  1
  V  V7  1  0.25049701  0.73347002  -0.00077901  1
  V  V8  1  0.00239193  0.63514489  0.63208495  1
  V  V9  1  0.61183421  0.50170530  0.62675472  1
  V  V10  1  0.74064532  0.75286676  0.51849131  1
  V  V11  1  0.12123671  -0.00442500  0.13127452  1
  V  V12  1  0.01424946  0.62419009  0.11173836  1
  V  V13  1  0.87524551  0.10018567  0.75267103  1
  V  V14  1  0.12268839  0.48390824  0.12451516  1
  V  V15  1  0.74845234  0.11553196  0.87894029  1
  V  V16  1  0.53687563  0.11899578  0.14499514  1
  V  V17  1  0.12840263  0.49348547  0.65138819  1
  V  V18  1  0.48555256  0.48713521  -0.00177651  1
  V  V19  1  0.01360280  0.39026188  0.37083202  1
  V  V20  1  -0.00494202  -0.00425843  -0.02439080  1
  V  V21  1  0.87347160  0.62741672  0.24790402  1
  V  V22  1  0.51148024  0.00984428  -0.00236368  1
  V  V23  1  0.50114276  0.62376794  0.13081866  1
  V  V24  1  0.24869887  0.87466688  0.13065204  1
  V  V25  1  0.63251846  0.48613633  0.11695486  1
  V  V26  1  0.49897860  0.86966518  0.86958878  1
  V  V27  1  0.24595510  0.36376597  0.63313418  1
  V  V28  1  0.37235029  -0.00127656  0.87280140  1
  V  V29  1  0.86942932  0.50440764  0.38279105  1
  V  V30  1  0.24526502  0.12544946  0.87436947  1
  V  V31  1  -0.00374709  0.26093871  0.24497812  1
  V  V32  1  0.12236590  0.26036197  0.86892025  1
  V  V33  1  0.62516034  0.01402135  0.61711495  1
  V  V34  1  0.37031099  0.76290672  0.61982947  1
  V  V35  1  0.01559029  0.75783535  0.24159839  1
  V  V36  1  0.26239871  0.50475449  0.25558103  1
  V  V37  1  0.24945694  -0.01063966  0.73851511  1
  V  V38  1  0.48334310  0.87089828  0.38040620  1
  V  V39  1  0.26684313  0.02293539  0.24457182  1
  V  V40  1  0.38126822  0.74422539  0.13567649  1
  V  V41  1  0.75984722  0.51333021  0.74634202  1
  V  V42  1  0.75484129  0.02087747  0.28588617  1
  V  V43  1  0.87205595  0.75252648  0.12263038  1
  V  V44  1  0.38041591  0.13521789  0.74141319  1
  V  V45  1  0.75253890  0.50184716  0.24664316  1
  V  V46  1  0.48407783  0.00671737  0.50054701  1
  V  V47  1  0.37544485  0.87151137  0.00083768  1
  V  V48  1  0.26016874  0.60234794  0.86100514  1
  V  V49  1  0.13118334  0.75102487  0.39724008  1
  V  V50  1  -0.01873829  0.25764757  0.74590048  1
  V  V51  1  0.48837866  0.37035914  0.86386020  1
  V  V52  1  0.49154371  0.73018897  0.74511636  1
  V  V53  1  0.74636890  0.74273132  -0.00675903  1
  V  V54  1  0.24836819  0.24227532  0.49550846  1
  V  V55  1  -0.01660038  0.11810713  0.12980590  1
  V  V56  1  0.77304490  0.25843174  0.52382691  1
  V  V57  1  0.87574319  0.87659485  -0.01547688  1
  V  V58  1  0.62870036  0.87619989  0.73658292  1
  V  V59  1  0.86859578  0.52420029  0.88204972  1
  V  V60  1  0.12861195  0.86800749  0.74627493  1
  V  V61  1  0.12504902  0.74535443  0.87862641  1
  V  V62  1  0.25925502  0.63089728  0.38191256  1
  V  V63  1  0.10374822  0.22772274  0.38830890  1
  V  V64  1  0.62627743  0.61410906  0.48411288  1
  V  V65  1  0.62675581  0.86630762  0.26464509  1
  V  V66  1  0.87567601  0.27402608  0.11124210  1
  V  V67  1  0.62408364  0.73725334  0.87149813  1
  V  V68  1  0.26873950  0.36595093  0.12774057  1
  V  V69  1  0.62174276  0.37309773  0.26841146  1
  Zn  Zn70  1  0.62525350  0.61779397  -0.00538615  1
  Zn  Zn71  1  0.71568139  0.17258124  0.38575325  1
  Zn  Zn72  1  -0.00276309  0.74662913  0.75517807  1
  Zn  Zn73  1  0.77313778  0.38531948  0.62934322  1
  Zn  Zn74  1  0.40781575  0.24328791  0.59321611  1
  Zn  Zn75  1  0.03470623  0.04604265  0.60164498  1
  Zn  Zn76  1  0.16886653  0.18233962  0.18472575  1
  Zn  Zn77  1  0.16286586  0.18680472  0.67364566  1
  Zn  Zn78  1  0.19549276  0.68175741  0.18856296  1
  Zn  Zn79  1  0.18866846  0.67815994  0.68800773  1
  Zn  Zn80  1  0.70240101  0.19371357  0.19525555  1
  Zn  Zn81  1  0.69949032  0.17291731  0.69149014  1
  Zn  Zn82  1  0.68657313  0.68928840  0.18427439  1
  Zn  Zn83  1  0.68256115  0.67799677  0.68172699  1
  Zn  Zn84  1  0.24432199  0.29015731  0.28542114  1
  Zn  Zn85  1  0.30776150  0.31461006  0.81778994  1
  Zn  Zn86  1  0.31044596  0.81378788  0.31786980  1
  Zn  Zn87  1  0.31169387  0.80309451  0.81219137  1
  Zn  Zn88  1  0.81691569  0.32579559  0.30901915  1
  Zn  Zn89  1  0.80495910  0.32178341  0.81234847  1
  Zn  Zn90  1  0.81202377  0.81542328  0.31267585  1
  Zn  Zn91  1  0.80310339  0.80726597  0.80721604  1
  Zn  Zn92  1  0.20171019  0.43440974  0.43635053  1
  Zn  Zn93  1  0.19326777  0.43227818  0.95211100  1
  Zn  Zn94  1  0.14255917  0.96037243  0.34988385  1
  Zn  Zn95  1  0.18479438  0.93435092  0.93851611  1
  Zn  Zn96  1  0.65971635  0.39464575  0.47767544  1
  Zn  Zn97  1  0.68905546  0.43382721  0.92577655  1
  Zn  Zn98  1  0.68640863  0.93697369  0.44891878  1
  Zn  Zn99  1  0.68636242  0.92552367  0.93229046  1
  Zn  Zn100  1  0.31057113  0.05823004  0.05591991  1
  Zn  Zn101  1  0.31002239  0.06882818  0.55709104  1
  Zn  Zn102  1  0.31231429  0.55381352  0.07013340  1
  Zn  Zn103  1  0.29215829  0.56322060  0.56677387  1
  Zn  Zn104  1  0.80684031  0.06426375  0.04686820  1
  Zn  Zn105  1  0.79543589  0.07846327  0.57178150  1
  Zn  Zn106  1  0.81608989  0.56239492  0.06409195  1
  Zn  Zn107  1  0.81509215  0.57687322  0.56212310  1
  Zn  Zn108  1  0.44091699  0.43477006  0.19527843  1
  Zn  Zn109  1  0.43258729  0.41857788  0.66725400  1
  Zn  Zn110  1  0.45010806  0.94549516  0.18964607  1
  Zn  Zn111  1  0.43777974  0.93516759  0.68001469  1
  Zn  Zn112  1  0.94175841  0.44208355  0.18541958  1
  Zn  Zn113  1  0.94010471  0.44399773  0.69904174  1
  Zn  Zn114  1  0.92380454  0.93787570  0.19017575  1
  Zn  Zn115  1  0.93759218  0.92471172  0.70102775  1
  Zn  Zn116  1  -0.00579827  0.07344852  0.33061156  1
  Zn  Zn117  1  0.06957049  0.07280340  0.78452848  1
  Zn  Zn118  1  0.07357367  0.57375349  0.30214908  1
  Zn  Zn119  1  0.06391376  0.56666707  0.82351765  1
  Zn  Zn120  1  0.57180872  0.05816936  0.32961967  1
  Zn  Zn121  1  0.56684245  0.06377175  0.80722561  1
  Zn  Zn122  1  0.57723832  0.57847015  0.30106730  1
  Zn  Zn123  1  0.56287195  0.54837907  0.80966641  1
  Zn  Zn124  1  0.57198520  0.19015246  0.49129018  1
  Zn  Zn125  1  0.44254556  0.18606126  0.92657573  1
  Zn  Zn126  1  0.44588933  0.69148185  0.43436819  1
  Zn  Zn127  1  0.43728843  0.67589289  0.93861276  1
  Zn  Zn128  1  0.90479357  0.22023026  0.42672520  1
  Zn  Zn129  1  0.93521734  0.18726271  0.93173986  1
  Zn  Zn130  1  0.94553440  0.68466556  0.43454434  1
  Zn  Zn131  1  0.93753289  0.69007278  0.93820382  1
  Zn  Zn132  1  0.06217088  0.31151536  0.05576940  1
  Zn  Zn133  1  0.04498069  0.32416330  0.56395017  1
  Zn  Zn134  1  0.06350955  0.81550191  0.05610416  1
  Zn  Zn135  1  0.04880592  0.84159141  0.57320311  1
  Zn  Zn136  1  0.55042673  0.30356747  0.07222711  1
  Zn  Zn137  1  0.60958837  0.29640265  0.62442243  1
  Zn  Zn138  1  0.56327985  0.81285258  0.06098763  1
  Zn  Zn139  1  0.55572038  0.80225386  0.55468994  1
  O  O140  1  0.10882123  0.11714438  0.11168382  1
  O  O141  1  0.09996072  0.09763532  0.67348153  1
  O  O142  1  0.11514754  0.63143756  0.12097236  1
  O  O143  1  0.12257850  0.60211876  0.62979034  1
  O  O144  1  0.63697977  0.11983379  0.13598683  1
  O  O145  1  0.61912187  0.11453664  0.63255422  1
  O  O146  1  0.61241034  0.62060172  0.12109003  1
  O  O147  1  0.61959420  0.60810172  0.61563793  1
  O  O148  1  0.42676513  0.49005232  0.38987543  1
  O  O149  1  0.39025893  0.35476835  0.88656395  1
  O  O150  1  0.38393155  0.88204674  0.36689715  1
  O  O151  1  0.37964720  0.87804410  0.88164276  1
  O  O152  1  0.89254809  0.40225951  0.36194829  1
  O  O153  1  0.87972430  0.37872596  0.88452097  1
  O  O154  1  0.89194065  0.88168370  0.35761704  1
  O  O155  1  0.86851801  0.86369967  0.88595423  1
  O  O156  1  0.24810308  -0.00396600  0.34164588  1
  O  O157  1  0.26041475  0.00204879  0.87559777  1
  O  O158  1  0.24591256  0.51309017  0.36406973  1
  O  O159  1  0.24697380  0.50437931  0.88436213  1
  O  O160  1  0.75923685  0.00073791  0.38479885  1
  O  O161  1  0.73889644  0.01639297  0.88802621  1
  O  O162  1  0.77023470  0.50691137  0.36313749  1
  O  O163  1  0.76097367  0.50141756  0.86695172  1
  O  O164  1  0.24501756  0.48556014  0.13399206  1
  O  O165  1  0.23585088  0.48062449  0.62492950  1
  O  O166  1  0.24309396  0.99429432  0.12562925  1
  O  O167  1  0.25391717  1.00222358  0.64102718  1
  O  O168  1  0.73745686  0.50634702  0.12799977  1
  O  O169  1  0.76124826  0.50991375  0.63870342  1
  O  O170  1  0.75256825  0.98395897  0.10956331  1
  O  O171  1  0.72718471  0.99862242  0.61776797  1
  O  O172  1  0.00193214  0.37388978  0.25802329  1
  O  O173  1  -0.00462526  0.36585061  0.76990303  1
  O  O174  1  -0.00527992  0.85952964  0.24115335  1
  O  O175  1  0.02437700  0.86333891  0.75837307  1
  O  O176  1  0.52075213  0.38089184  0.25143733  1
  O  O177  1  0.48512824  0.38138591  0.76447604  1
  O  O178  1  0.52075999  0.89145784  0.26077822  1
  O  O179  1  0.50038545  0.86572792  0.76058111  1
  O  O180  1  0.51391061  0.10388675  0.24125949  1
  O  O181  1  0.47846432  0.11659789  0.75731365  1
  O  O182  1  0.49822309  0.61509683  0.23098131  1
  O  O183  1  0.50083591  0.63209074  0.75686845  1
  O  O184  1  0.98954885  0.13562112  0.23385193  1
  O  O185  1  0.97551601  0.14249243  0.77153948  1
  O  O186  1  0.99459673  0.64088528  0.23402907  1
  O  O187  1  1.00878231  0.62994912  0.73953795  1
  O  O188  1  0.36700835  0.21639476  0.02153387  1
  O  O189  1  0.34764129  0.24353286  0.49038977  1
  O  O190  1  0.36639888  0.75487153  0.00363062  1
  O  O191  1  0.39050426  0.73716003  0.52436185  1
  O  O192  1  0.87533642  0.25035127  0.00963933  1
  O  O193  1  0.87447467  0.24410307  0.53443325  1
  O  O194  1  0.86816511  0.75622178  0.00507553  1
  O  O195  1  0.84739050  0.74632328  0.46270263  1
  O  O196  1  0.09602572  0.24793203  0.48781798  1
  O  O197  1  0.11245207  0.23242938  0.98570158  1
  O  O198  1  0.12248171  0.75903068  0.49409430  1
  O  O199  1  0.14275524  0.75395987  0.99374762  1
  O  O200  1  0.65360126  0.27421741  0.49081667  1
  O  O201  1  0.63753671  0.25346301  1.01053481  1
  O  O202  1  0.63329916  0.73286330  0.50495963  1
  O  O203  1  0.62948939  0.75045781  0.98832209  1
  O  O204  1  0.50497845  0.21424366  0.12172290  1
  O  O205  1  0.51823700  0.25172228  0.57882885  1
  O  O206  1  0.49117665  0.73739060  0.11634302  1
  O  O207  1  0.49023160  0.74723792  0.64084108  1
  O  O208  1  0.99177911  0.24092437  0.12371840  1
  O  O209  1  1.00598101  0.25742334  0.64860866  1
  O  O210  1  0.99330996  0.74694417  0.12496400  1
  O  O211  1  1.01854262  0.73623130  0.62430637  1
  O  O212  1  -0.00601614  0.26813894  0.36680981  1
  O  O213  1  0.00470208  0.26278223  0.87355761  1
  O  O214  1  0.00661208  0.75079807  0.35518181  1
  O  O215  1  0.02093041  0.74022492  0.87652302  1
  O  O216  1  0.45953507  0.34222347  0.40977496  1
  O  O217  1  0.51581346  0.25769431  0.87717440  1
  O  O218  1  0.49711995  0.77052364  0.36841337  1
  O  O219  1  0.50226288  0.75257516  0.86935725  1
  O  O220  1  0.23260629  0.14159349  0.51456747  1
  O  O221  1  0.23173608  0.11125702  0.98681180  1
  O  O222  1  0.24650026  0.61878332  0.48168804  1
  O  O223  1  0.25287927  0.63380017  1.00778022  1
  O  O224  1  0.74947386  0.15092937  0.50108467  1
  O  O225  1  0.75200155  0.14314911  0.98489238  1
  O  O226  1  0.73878217  0.63452458  0.50270074  1
  O  O227  1  0.74625122  0.64036564  1.00746952  1
  O  O228  1  0.24653434  0.36320890  0.02893303  1
  O  O229  1  0.23324736  0.35457346  0.50877136  1
  O  O230  1  0.26262190  0.87049717  0.00821105  1
  O  O231  1  0.15450821  0.94919090  0.49477054  1
  O  O232  1  0.75091741  0.36032079  -0.00752284  1
  O  O233  1  0.77075914  0.36489703  0.50687689  1
  O  O234  1  0.75470882  0.86461786  0.00596125  1
  O  O235  1  0.73662801  0.85375270  0.50694171  1
  O  O236  1  0.13865017  0.51191791  0.23120855  1
  O  O237  1  0.11848767  0.49162330  0.74979023  1
  O  O238  1  0.13479166  1.00473953  0.23156617  1
  O  O239  1  0.14226554  0.97861654  0.76610274  1
  O  O240  1  0.63324014  0.49831194  0.23561261  1
  O  O241  1  0.63434265  0.50084749  0.73459277  1
  O  O242  1  0.65500874  0.98778414  0.26204622  1
  O  O243  1  0.61042655  0.98337160  0.73595012  1
  O  O244  1  0.36548590  0.00968414  0.22766870  1
  O  O245  1  0.36681658  0.00014550  0.75815405  1
  O  O246  1  0.36281118  0.50685321  0.23942175  1
  O  O247  1  0.38068380  0.52815274  0.70789904  1
  O  O248  1  0.84804001  0.00071353  0.24541577  1
  O  O249  1  0.88831172  0.00150129  0.76802271  1
  O  O250  1  0.86903319  0.51175788  0.24150466  1
  O  O251  1  0.86798150  0.50921187  0.76247673  1
  O  O252  1  0.11330955  0.37333165  0.37231055  1
  O  O253  1  0.13033605  0.36048445  0.88059164  1
  O  O254  1  0.11372710  0.84980590  0.36247976  1
  O  O255  1  0.13999342  0.85286286  0.87318068  1
  O  O256  1  0.63006956  0.39463956  0.36564612  1
  O  O257  1  0.61481480  0.36113982  0.87166701  1
  O  O258  1  0.63564045  0.86798058  0.36506721  1
  O  O259  1  0.61288648  0.86341827  0.86526507  1
  O  O260  1  0.36123585  0.16640758  0.07952799  1
  O  O261  1  0.36870644  0.13775984  0.63710091  1
  O  O262  1  0.38544904  0.63540670  0.11817203  1
  O  O263  1  0.37625158  0.58261092  0.65506773  1
  O  O264  1  0.88439036  0.12440917  0.11406429  1
  O  O265  1  0.87253282  0.10540431  0.65040303  1
  O  O266  1  0.88442223  0.63546210  0.12783534  1
  O  O267  1  0.90325071  0.62393771  0.61950409  1
  O  O268  1  0.24117431  0.27032380  0.16654727  1
  O  O269  1  0.22458210  0.25700353  0.61276835  1
  O  O270  1  0.26158041  0.75300128  0.11563994  1
  O  O271  1  0.27837811  0.71963871  0.63268266  1
  O  O272  1  0.76789325  0.25041077  0.11450512  1
  O  O273  1  0.73843493  0.25828718  0.62635211  1
  O  O274  1  0.75650766  0.75797844  0.11445410  1
  O  O275  1  0.75401362  0.74164195  0.61892907  1
  O  O276  1  0.21498073  0.24426347  0.38481967  1
  O  O277  1  0.23350747  0.23718249  0.87045165  1
  O  O278  1  0.23906796  0.74568184  0.37383482  1
  O  O279  1  0.25228663  0.73769331  0.89014685  1
  O  O280  1  0.79728033  0.25206590  0.39134798  1
  O  O281  1  0.73246407  0.25183724  0.88013923  1
  O  O282  1  0.78796894  0.74003427  0.40093478  1
  O  O283  1  0.73598295  0.75257289  0.88160440  1
  O  O284  1  0.00048569  0.10956921  0.00280562  1
  O  O285  1  -0.01778721  0.10724743  0.51354488  1
  O  O286  1  -0.00091303  0.63021855  0.01354580  1
  O  O287  1  0.00711421  0.61585677  0.50406068  1
  O  O288  1  0.50894955  0.10942650  -0.01741985  1
  O  O289  1  0.49050969  0.10705779  0.49771576  1
  O  O290  1  0.50326554  0.60657401  0.00573847  1
  O  O291  1  0.52360817  0.62547103  0.48445625  1
  O  O292  1  0.49471998  0.36217720  0.46998372  1
  O  O293  1  0.50405443  0.38430835  1.00388839  1
  O  O294  1  0.49988908  0.87581177  0.48648118  1
  O  O295  1  0.49006434  0.87581026  0.99138212  1
  O  O296  1  0.99945132  0.39642435  0.48170767  1
  O  O297  1  1.00795073  0.37921330  0.98205065  1
  O  O298  1  0.98868100  0.85140331  0.47545773  1
  O  O299  1  0.99182124  0.88765531  0.99998857  1
  O  O300  1  0.41827420  0.51157399  0.46154365  1
  O  O301  1  0.50550531  0.48241949  0.88838069  1
  O  O302  1  0.50704113  0.98603731  0.39170994  1
  O  O303  1  0.49121440  0.98878385  0.87914153  1
  O  O304  1  1.00738143  0.50146425  0.37603267  1
  O  O305  1  0.98336516  0.49380167  0.86797910  1
  O  O306  1  1.02749682  0.97303537  0.36704955  1
  O  O307  1  1.00789086  1.00238282  0.87969225  1
  O  O308  1  0.00072533  0.00908592  0.12934515  1
  O  O309  1  -0.00499323  -0.05688452  0.60698348  1
  O  O310  1  0.01261267  0.51550515  0.13091648  1
  O  O311  1  0.01502424  0.50360062  0.61363417  1
  O  O312  1  0.49438300  0.01749684  0.10614186  1
  O  O313  1  0.50899576  -0.01124804  0.61080442  1
  O  O314  1  0.51048687  0.50518083  0.11538964  1
  O  O315  1  0.51347009  0.48194329  0.62170301  1
  O  O316  1  0.25138551  0.39704249  0.25023942  1
  O  O317  1  0.24424801  0.36062451  0.73415435  1
  O  O318  1  0.25547213  0.87491438  0.23157647  1
  O  O319  1  0.25221367  0.88371079  0.75632719  1
  O  O320  1  0.74694193  0.39633566  0.24920106  1
  O  O321  1  0.75440685  0.39726547  0.74621053  1
  O  O322  1  0.74574605  0.87150136  0.23384151  1
  O  O323  1  0.72724779  0.87345049  0.75426283  1
  O  O324  1  0.25186332  0.12273092  0.23843498  1
  O  O325  1  0.25739739  0.10760181  0.76227592  1
  O  O326  1  0.25173787  0.61673419  0.25951106  1
  O  O327  1  0.25045058  0.61015539  0.76178802  1
  O  O328  1  0.74751174  0.12526804  0.27832660  1
  O  O329  1  0.76430381  0.11988665  0.76504943  1
  O  O330  1  0.76259826  0.62006554  0.24036381  1
  O  O331  1  0.74225724  0.61407468  0.75614564  1
  O  O332  1  0.40357425  0.19857259  0.32995933  1
  O  O333  1  0.36500297  0.11485499  0.87355217  1
  O  O334  1  0.35864618  0.64370523  0.37455786  1
  O  O335  1  0.35958211  0.62042567  0.87945695  1
  O  O336  1  0.90413559  0.10176070  0.40381818  1
  O  O337  1  0.85677025  0.12947265  0.87139500  1
  O  O338  1  0.89476919  0.61189619  0.35425808  1
  O  O339  1  0.87490519  0.62468882  0.87144831  1
  O  O340  1  0.11615101  0.38180630  0.12958658  1
  O  O341  1  0.12394361  0.38797426  0.62455043  1
  O  O342  1  0.13625361  0.88505262  0.11281902  1
  O  O343  1  0.13901007  0.86018040  0.64734944  1
  O  O344  1  0.62339319  0.38664445  0.12890900  1
  O  O345  1  0.65127917  0.39997729  0.60939538  1
  O  O346  1  0.63581193  0.87397539  0.12679610  1
  O  O347  1  0.61582894  0.86428044  0.63738507  1
  O  O348  1  0.10335978  0.24253592  0.26512241  1
  O  O349  1  0.10889239  0.24237331  0.76764844  1
  O  O350  1  0.11458247  0.75316875  0.23265858  1
  O  O351  1  0.14151633  0.75400111  0.76617817  1
  O  O352  1  0.64723936  0.27536407  0.25469028  1
  O  O353  1  0.62471396  0.25649178  0.74602118  1
  O  O354  1  0.62839723  0.76593200  0.24511067  1
  O  O355  1  0.61100999  0.75405673  0.75481096  1
  O  O356  1  0.38325717  0.25358160  0.28630436  1
  O  O357  1  0.37063654  0.23297659  0.76180487  1
  O  O358  1  0.37288820  0.75286076  0.23290180  1
  O  O359  1  0.38705326  0.74698335  0.74680198  1
  O  O360  1  0.88592664  0.26370086  0.22890036  1
  O  O361  1  0.87874247  0.25467974  0.75220120  1
  O  O362  1  0.87714027  0.74469173  0.23673112  1
  O  O363  1  0.88101223  0.77006800  0.72969847  1
  O  O364  1  0.35586658  0.47924928  0.50306691  1
  O  O365  1  0.38704246  0.49401157  1.00662110  1
  O  O366  1  0.38284898  0.99646847  0.50937860  1
  O  O367  1  0.38300459  0.99079839  0.99132388  1
  O  O368  1  0.88523024  0.51489606  0.48324737  1
  O  O369  1  0.87081042  0.50966712  0.98258851  1
  O  O370  1  0.92413700  1.06434608  0.47943169  1
  O  O371  1  0.88722269  0.99244122  0.99510046  1
  O  O372  1  0.10946044  0.00223688  0.00489343  1
  O  O373  1  0.13651675  0.01783319  0.51600127  1
  O  O374  1  0.13582656  0.50219003  0.02569171  1
  O  O375  1  0.11929616  0.50118300  0.49396077  1
  O  O376  1  0.60758676  -0.01486338  -0.00642393  1
  O  O377  1  0.61395537  -0.00006604  0.51220157  1
  O  O378  1  0.62765170  0.49708248  0.00931018  1
  O  O379  1  0.63391885  0.50782795  0.50949913  1
  O  O380  1  0.36908693  0.36849076  0.13336946  1
  O  O381  1  0.35450228  0.35166924  0.62245256  1
  O  O382  1  0.37603518  0.86317798  0.11708694  1
  O  O383  1  0.36577193  0.86323259  0.62693739  1
  O  O384  1  0.88511468  0.37309110  0.11231535  1
  O  O385  1  0.88719310  0.38619583  0.62068660  1
  O  O386  1  0.86510522  0.86598135  0.11410907  1
  O  O387  1  0.87799796  0.82583649  0.67041245  1
  O  O388  1  0.09012091  0.12991435  0.38002185  1
  O  O389  1  0.12810540  0.12520855  0.87729654  1
  O  O390  1  0.13071742  0.64593200  0.36951656  1
  O  O391  1  0.14325438  0.63650613  0.87549754  1
  O  O392  1  0.60853981  0.14511064  0.39147697  1
  O  O393  1  0.63595453  0.14196796  0.85904710  1
  O  O394  1  0.64057541  0.61239946  0.38162852  1
  O  O395  1  0.61616141  0.63388867  0.87549247  1
