# generated using pymatgen
data_V35Zn35O128
_symmetry_space_group_name_H-M   'P 1'
_cell_length_a   16.92062484
_cell_length_b   16.88428736
_cell_length_c   16.83229722
_cell_angle_alpha   89.72851650
_cell_angle_beta   89.92706784
_cell_angle_gamma   89.90009295
_symmetry_Int_Tables_number   1
_chemical_formula_structural   V35Zn35O128
_chemical_formula_sum   'V70 Zn70 O256'
_cell_volume   4808.79916920
_cell_formula_units_Z   2
loop_
 _symmetry_equiv_pos_site_id
 _symmetry_equiv_pos_as_xyz
  1  'x, y, z'
loop_
 _atom_site_type_symbol
 _atom_site_label
 _atom_site_symmetry_multiplicity
 _atom_site_fract_x
 _atom_site_fract_y
 _atom_site_fract_z
 _atom_site_occupancy
  V  V0  1  0.87460660  0.38562203  0.50642220  1
  V  V1  1  0.62149812  0.87496582  0.74786231  1
  V  V2  1  0.38720987  0.40411213  0.48705228  1
  V  V3  1  0.74058148  0.12808227  0.88272312  1
  V  V4  1  0.88339257  -0.01223831  0.37848636  1
  V  V5  1  0.75094376  -0.00263026  0.24887089  1
  V  V6  1  0.63466776  0.74220899  0.88131553  1
  V  V7  1  0.25961564  0.63540383  0.39036714  1
  V  V8  1  0.58699095  0.36780334  0.75235295  1
  V  V9  1  0.38859566  0.13646322  0.75111553  1
  V  V10  1  0.13496906  0.00013779  0.64161818  1
  V  V11  1  0.62365294  0.00791609  0.11446703  1
  V  V12  1  0.11923851  0.75320168  0.38976180  1
  V  V13  1  0.74633596  0.00626515  0.74796089  1
  V  V14  1  0.88239412  0.74356295  0.12608768  1
  V  V15  1  0.51892399  0.38339663  0.36634997  1
  V  V16  1  0.88025221  0.62474626  0.26542072  1
  V  V17  1  0.36556036  0.61361070  0.76106217  1
  V  V18  1  0.37498479  0.23720927  0.59684953  1
  V  V19  1  0.22953077  0.50977845  0.26583862  1
  V  V20  1  0.75463032  0.75361903  0.50276677  1
  V  V21  1  0.49645599  0.87097567  0.88415241  1
  V  V22  1  0.63443734  0.61739581  0.00200827  1
  V  V23  1  0.11569080  0.24683879  0.83278328  1
  V  V24  1  0.50245668  0.01129805  -0.00329704  1
  V  V25  1  0.50117844  0.61992701  0.13415098  1
  V  V26  1  0.13335960  0.23933124  0.38150931  1
  V  V27  1  0.62568253  0.76173290  0.37534644  1
  V  V28  1  0.75250492  0.50594117  0.26835198  1
  V  V29  1  0.75852954  0.87722957  0.61989085  1
  V  V30  1  0.36788371  0.75411182  0.62219961  1
  V  V31  1  0.62460526  0.61976097  0.49714055  1
  V  V32  1  -0.00419507  -0.00784718  0.51643227  1
  V  V33  1  -0.02471579  0.49131709  0.00566260  1
  V  V34  1  0.13080595  0.11618385  0.49708326  1
  V  V35  1  0.87898639  -0.00298778  0.88226327  1
  V  V36  1  0.87924550  0.13182471  0.24736625  1
  V  V37  1  0.24885813  0.38480468  0.61085020  1
  V  V38  1  0.60034684  0.25209280  0.88215259  1
  V  V39  1  0.49896544  0.00530540  0.47882668  1
  V  V40  1  0.11785100  0.87287478  0.25058706  1
  V  V41  1  0.49159751  0.49331583  -0.00736950  1
  V  V42  1  0.48649887  0.75684778  0.25678668  1
  V  V43  1  0.76376470  0.26265404  0.00015838  1
  V  V44  1  0.61055333  0.01537070  0.62236577  1
  V  V45  1  0.50333338  0.61222966  0.62328595  1
  V  V46  1  0.74096891  0.13230555  0.37841161  1
  V  V47  1  0.25941755  0.00462878  0.27371558  1
  V  V48  1  0.24036662  0.12472895  0.86400013  1
  V  V49  1  0.00560924  0.38551706  0.38858827  1
  V  V50  1  0.36666674  -0.00501308  0.87075352  1
  V  V51  1  0.12669769  0.86467406  0.76538285  1
  V  V52  1  0.24977407  0.88645955  0.11868216  1
  V  V53  1  0.89278335  0.23965081  0.62022150  1
  V  V54  1  0.88721177  0.86895287  -0.00304106  1
  V  V55  1  0.73901746  0.24659501  0.50957619  1
  V  V56  1  0.23271934  0.73628398  -0.00736901  1
  V  V57  1  0.76552249  0.47550468  0.75481207  1
  V  V58  1  0.00451460  0.74064285  0.75137898  1
  V  V59  1  0.49845735  0.74723825  0.74900416  1
  V  V60  1  0.37574237  0.75535333  0.11010146  1
  V  V61  1  0.89018553  0.12209857  0.74374533  1
  V  V62  1  0.24179282  0.23103547  0.02212705  1
  V  V63  1  0.00178085  0.26065034  0.25596283  1
  V  V64  1  0.37697794  0.87829691  0.48397315  1
  V  V65  1  0.74653911  0.86469331  0.11555140  1
  V  V66  1  0.00855754  0.11800464  0.11796868  1
  V  V67  1  0.85306713  0.65113988  0.74732479  1
  V  V68  1  0.01511623  0.62114018  0.12025877  1
  V  V69  1  -0.00327039  0.37356767  0.85674002  1
  Zn  Zn70  1  0.62764682  0.47875251  0.62416949  1
  Zn  Zn71  1  0.37990373  0.22940852  0.14543774  1
  Zn  Zn72  1  0.76836331  0.37953467  0.13153306  1
  Zn  Zn73  1  0.63463624  0.38749996  0.25021704  1
  Zn  Zn74  1  0.24784524  0.87230562  0.62543965  1
  Zn  Zn75  1  0.62034450  0.87750101  0.25129684  1
  Zn  Zn76  1  0.18077815  0.17910792  0.19924344  1
  Zn  Zn77  1  0.19698352  0.18170896  0.67027122  1
  Zn  Zn78  1  0.19434813  0.68936511  0.19488254  1
  Zn  Zn79  1  0.18419976  0.67839344  0.69074385  1
  Zn  Zn80  1  0.69527883  0.18439892  0.17813685  1
  Zn  Zn81  1  0.68172763  0.19823276  0.69263099  1
  Zn  Zn82  1  0.68948624  0.67897155  0.19076645  1
  Zn  Zn83  1  0.68169522  0.69150955  0.68254788  1
  Zn  Zn84  1  0.34844946  0.36696547  0.27570075  1
  Zn  Zn85  1  0.28562759  0.30284290  0.78989312  1
  Zn  Zn86  1  0.30047612  0.81479051  0.31016003  1
  Zn  Zn87  1  0.30820185  0.80693644  0.81247183  1
  Zn  Zn88  1  0.81891038  0.31832358  0.32500390  1
  Zn  Zn89  1  0.82184948  0.30360974  0.81182825  1
  Zn  Zn90  1  0.80944021  0.80875902  0.30847163  1
  Zn  Zn91  1  0.81065241  0.81567814  0.81327081  1
  Zn  Zn92  1  0.21590054  0.40722547  0.40475475  1
  Zn  Zn93  1  0.14148219  0.38755167  0.96572774  1
  Zn  Zn94  1  0.18788165  0.93035402  0.44272215  1
  Zn  Zn95  1  0.18816681  0.92933139  0.95153182  1
  Zn  Zn96  1  0.69722386  0.43853344  0.43671043  1
  Zn  Zn97  1  0.68402322  0.43719511  0.92716643  1
  Zn  Zn98  1  0.68482809  0.94412832  0.43933220  1
  Zn  Zn99  1  0.68929393  0.93209024  0.93433181  1
  Zn  Zn100  1  0.31959219  0.06802409  0.05553466  1
  Zn  Zn101  1  0.31653933  0.05818905  0.56035690  1
  Zn  Zn102  1  0.31945518  0.56904576  0.06932912  1
  Zn  Zn103  1  0.31129038  0.56933323  0.56311268  1
  Zn  Zn104  1  0.81608585  0.06327639  0.06428079  1
  Zn  Zn105  1  0.80989080  0.06188378  0.56078960  1
  Zn  Zn106  1  0.80856315  0.55804095  0.06903176  1
  Zn  Zn107  1  0.80201355  0.56692488  0.57987351  1
  Zn  Zn108  1  0.46768252  0.40551247  0.15201047  1
  Zn  Zn109  1  0.39793570  0.41347095  0.69937725  1
  Zn  Zn110  1  0.43550683  0.93912003  0.18673750  1
  Zn  Zn111  1  0.43444219  0.93966377  0.69249763  1
  Zn  Zn112  1  0.93287646  0.44319761  0.19378656  1
  Zn  Zn113  1  0.94019396  0.43977180  0.67215076  1
  Zn  Zn114  1  0.93732073  0.94157562  0.18093769  1
  Zn  Zn115  1  0.94313135  0.92918112  0.69666190  1
  Zn  Zn116  1  0.06865179  0.05365860  0.30824045  1
  Zn  Zn117  1  0.08334187  0.03282815  0.85230605  1
  Zn  Zn118  1  0.06462135  0.57650339  0.31329765  1
  Zn  Zn119  1  -0.04214721  0.54913779  0.81825020  1
  Zn  Zn120  1  0.56415858  0.06338064  0.30492648  1
  Zn  Zn121  1  0.56096510  0.06405573  0.81429619  1
  Zn  Zn122  1  0.56051905  0.56447001  0.31588574  1
  Zn  Zn123  1  0.55898386  0.55442368  0.81542693  1
  Zn  Zn124  1  0.47064175  0.20567239  0.44148478  1
  Zn  Zn125  1  0.41469458  0.19136465  0.95827269  1
  Zn  Zn126  1  0.44018643  0.68827239  0.44020015  1
  Zn  Zn127  1  0.44227275  0.67759390  0.93882399  1
  Zn  Zn128  1  0.94070879  0.17553597  0.43751832  1
  Zn  Zn129  1  0.93696011  0.18416328  0.92588535  1
  Zn  Zn130  1  0.93410495  0.74196540  0.42744960  1
  Zn  Zn131  1  0.93829928  0.68542624  0.93114222  1
  Zn  Zn132  1  0.02713674  0.27960250  0.04337162  1
  Zn  Zn133  1  0.06626591  0.30922597  0.56036228  1
  Zn  Zn134  1  0.06764706  0.81473199  0.06344567  1
  Zn  Zn135  1  0.05513735  0.81712774  0.57038239  1
  Zn  Zn136  1  0.59645707  0.32462775  0.05870220  1
  Zn  Zn137  1  0.55136771  0.31027236  0.56475816  1
  Zn  Zn138  1  0.56343161  0.80875200  0.06449032  1
  Zn  Zn139  1  0.55870762  0.81806566  0.55997211  1
  O  O140  1  0.10675826  0.11915347  0.13358196  1
  O  O141  1  0.12412786  0.10759429  0.61647967  1
  O  O142  1  0.11213398  0.63216796  0.12554362  1
  O  O143  1  0.12085978  0.59739047  0.62253316  1
  O  O144  1  0.63140122  0.10606267  0.11892498  1
  O  O145  1  0.62712317  0.11293886  0.63271450  1
  O  O146  1  0.61341972  0.63996705  0.11139852  1
  O  O147  1  0.61143635  0.63211095  0.61707288  1
  O  O148  1  0.38704938  0.38736230  0.38206516  1
  O  O149  1  0.30808662  0.42143034  0.87820130  1
  O  O150  1  0.37480290  0.86521819  0.38589494  1
  O  O151  1  0.38301408  0.88693346  0.86435915  1
  O  O152  1  0.89198093  0.37370249  0.39612187  1
  O  O153  1  0.89847237  0.36012217  0.87473057  1
  O  O154  1  0.86568739  0.88823034  0.37036454  1
  O  O155  1  0.86281753  0.88595188  0.88742870  1
  O  O156  1  0.25761595  -0.00621167  0.37391419  1
  O  O157  1  0.26513468  0.00192396  0.88212594  1
  O  O158  1  0.23428579  0.52419878  0.37605887  1
  O  O159  1  0.17870996  0.54523811  0.88943870  1
  O  O160  1  0.75356069  0.00792695  0.36728129  1
  O  O161  1  0.74963288  0.00863255  0.86710692  1
  O  O162  1  0.76164218  0.50752562  0.37087080  1
  O  O163  1  0.73910518  0.50162481  0.84964495  1
  O  O164  1  0.28802777  0.49990329  0.16404413  1
  O  O165  1  0.25074076  0.48649787  0.61041211  1
  O  O166  1  0.25945973  0.98629557  0.10676518  1
  O  O167  1  0.23735181  0.99972447  0.63068169  1
  O  O168  1  0.77162235  0.49591755  0.15353008  1
  O  O169  1  0.73380685  0.51039960  0.65642247  1
  O  O170  1  0.74317313  0.99135715  0.12834191  1
  O  O171  1  0.73613891  0.99350945  0.62815034  1
  O  O172  1  -0.00625764  0.36500123  0.26957761  1
  O  O173  1  0.00087210  0.38920439  0.75783686  1
  O  O174  1  0.01838989  0.88464580  0.23532905  1
  O  O175  1  0.01771969  0.86706306  0.75333289  1
  O  O176  1  0.51725226  0.39230307  0.25832968  1
  O  O177  1  0.48842324  0.36772236  0.75533115  1
  O  O178  1  0.50503232  0.85980463  0.24280525  1
  O  O179  1  0.50646984  0.86830074  0.75935223  1
  O  O180  1  0.48249362  0.11792161  0.24154437  1
  O  O181  1  0.48810493  0.12674236  0.75502213  1
  O  O182  1  0.51383571  0.64421290  0.24049848  1
  O  O183  1  0.50336062  0.63156783  0.73953853  1
  O  O184  1  0.98853657  0.12317711  0.24523791  1
  O  O185  1  0.98497873  0.11546959  0.75523023  1
  O  O186  1  0.98978827  0.62072726  0.22846930  1
  O  O187  1  0.99533764  0.63639079  0.74897334  1
  O  O188  1  0.32223987  0.27751570  -0.01586894  1
  O  O189  1  0.36948111  0.22138192  0.49776148  1
  O  O190  1  0.38074176  0.75005301  0.00925653  1
  O  O191  1  0.39002631  0.76525892  0.51626650  1
  O  O192  1  0.86211762  0.24815108  -0.01312936  1
  O  O193  1  0.87177559  0.23995893  0.51235823  1
  O  O194  1  0.87606153  0.76200115  0.00577047  1
  O  O195  1  0.85389587  0.75432273  0.50132641  1
  O  O196  1  0.11542984  0.22453085  0.49541185  1
  O  O197  1  0.14858153  0.27862931  1.01278404  1
  O  O198  1  0.12102964  0.76612365  0.49063166  1
  O  O199  1  0.13247615  0.74682984  0.99873709  1
  O  O200  1  0.64058379  0.25602657  0.50780694  1
  O  O201  1  0.64030700  0.25062013  0.98168364  1
  O  O202  1  0.62655968  0.74992468  0.49118537  1
  O  O203  1  0.61721932  0.74072456  0.98661664  1
  O  O204  1  0.54592553  0.24542185  0.15390741  1
  O  O205  1  0.47540212  0.24205734  0.61626378  1
  O  O206  1  0.49125298  0.75011065  0.13446319  1
  O  O207  1  0.49646454  0.75083756  0.63833374  1
  O  O208  1  1.00427481  0.24616393  0.15313301  1
  O  O209  1  0.99118299  0.23994614  0.61979126  1
  O  O210  1  0.98976624  0.73642711  0.11292235  1
  O  O211  1  0.99577034  0.75958904  0.64553495  1
  O  O212  1  0.00201128  0.25056984  0.37070126  1
  O  O213  1  0.01158627  0.25543626  0.87048112  1
  O  O214  1  0.01946227  0.75999918  0.36470864  1
  O  O215  1  -0.00709007  0.75209764  0.85584902  1
  O  O216  1  0.50042231  0.27675821  0.36591513  1
  O  O217  1  0.50305006  0.24178448  0.89818782  1
  O  O218  1  0.51113653  0.74717262  0.36387842  1
  O  O219  1  0.50345795  0.75414121  0.86582359  1
  O  O220  1  0.23060425  0.10836486  0.49970733  1
  O  O221  1  0.24322228  0.13174544  0.98174980  1
  O  O222  1  0.24855387  0.63153313  0.49214545  1
  O  O223  1  0.24983575  0.63659843  1.01393380  1
  O  O224  1  0.74892347  0.13030130  0.48774718  1
  O  O225  1  0.75358356  0.12491008  0.98492527  1
  O  O226  1  0.73470427  0.64575958  0.51775631  1
  O  O227  1  0.73373670  0.61979547  1.00771988  1
  O  O228  1  0.26971138  0.42967906  -0.05915786  1
  O  O229  1  0.27630150  0.37727904  0.49696098  1
  O  O230  1  0.24837142  0.85581508  0.01417739  1
  O  O231  1  0.27333901  0.88312333  0.50988768  1
  O  O232  1  0.74914673  0.36493609  -0.00824370  1
  O  O233  1  0.76745302  0.35596564  0.49270541  1
  O  O234  1  0.75758367  0.87777785  0.01227296  1
  O  O235  1  0.74249768  0.87264691  0.51286643  1
  O  O236  1  0.13156650  0.51102996  0.24266683  1
  O  O237  1  0.07886263  0.54363183  0.66339287  1
  O  O238  1  0.14245523  0.98349939  0.25662164  1
  O  O239  1  0.11985675  0.98907213  0.74625262  1
  O  O240  1  0.64956491  0.51678582  0.25769971  1
  O  O241  1  0.61503471  0.47205133  0.75631436  1
  O  O242  1  0.63294448  0.99669604  0.23467332  1
  O  O243  1  0.62859136  0.99449720  0.74439542  1
  O  O244  1  0.35890844  -0.00531697  0.24530331  1
  O  O245  1  0.38070636  0.01204851  0.76561094  1
  O  O246  1  0.34563209  0.49786251  0.22369394  1
  O  O247  1  0.38927021  0.51816204  0.74070911  1
  O  O248  1  0.86610145  0.00613001  0.25565090  1
  O  O249  1  0.86374614  0.00384503  0.75640718  1
  O  O250  1  0.88010381  0.51922849  0.26512428  1
  O  O251  1  0.87058351  0.49716117  0.74739691  1
  O  O252  1  0.11014514  0.35193701  0.39917891  1
  O  O253  1  0.11605537  0.35517342  0.85962778  1
  O  O254  1  0.13622421  0.86595633  0.36151941  1
  O  O255  1  0.13310154  0.87175539  0.86412994  1
  O  O256  1  0.62487518  0.37652570  0.37461065  1
  O  O257  1  0.61359024  0.35944567  0.86844530  1
  O  O258  1  0.62604026  0.86581157  0.37446848  1
  O  O259  1  0.61800753  0.86526408  0.86700176  1
  O  O260  1  0.39315961  0.15251074  0.06657771  1
  O  O261  1  0.36490383  0.13034497  0.64067181  1
  O  O262  1  0.39366344  0.64285393  0.12727087  1
  O  O263  1  0.39118999  0.63729076  0.62566847  1
  O  O264  1  0.87364707  0.12579724  0.14293839  1
  O  O265  1  0.87471398  0.12396237  0.63448959  1
  O  O266  1  0.87652148  0.63884650  0.12321359  1
  O  O267  1  0.87158481  0.62274327  0.64980073  1
  O  O268  1  0.25471820  0.22617326  0.12505753  1
  O  O269  1  0.26989010  0.25779387  0.62651185  1
  O  O270  1  0.26615356  0.75086211  0.12048859  1
  O  O271  1  0.26721237  0.74095415  0.62513066  1
  O  O272  1  0.75160622  0.24546691  0.10231481  1
  O  O273  1  0.75767271  0.23781037  0.61256759  1
  O  O274  1  0.75913284  0.76109599  0.12805907  1
  O  O275  1  0.74006669  0.76993017  0.61741286  1
  O  O276  1  0.22846966  0.24902832  0.37507865  1
  O  O277  1  0.22422032  0.24308011  0.86265327  1
  O  O278  1  0.23866182  0.74255239  0.37257136  1
  O  O279  1  0.25824448  0.74770835  0.89501837  1
  O  O280  1  0.75805121  0.23630457  0.38451631  1
  O  O281  1  0.75216970  0.23476924  0.87689635  1
  O  O282  1  0.73918347  0.75759552  0.39113649  1
  O  O283  1  0.73240916  0.75706993  0.87556588  1
  O  O284  1  -0.00186590  0.16369679  0.02188211  1
  O  O285  1  0.00991150  0.10128340  0.49397992  1
  O  O286  1  -0.00681879  0.60422001  0.00567171  1
  O  O287  1  -0.01783483  0.64981474  0.52350459  1
  O  O288  1  0.51650681  0.10631845  -0.01301762  1
  O  O289  1  0.49627495  0.10646194  0.48682888  1
  O  O290  1  0.50737549  0.61222957  0.01214695  1
  O  O291  1  0.51295474  0.63183548  0.51228444  1
  O  O292  1  0.49297062  0.37437628  0.48890407  1
  O  O293  1  0.50839013  0.39631799  1.03689336  1
  O  O294  1  0.48737404  0.88840585  0.50573254  1
  O  O295  1  0.50466344  0.87475281  0.98724438  1
  O  O296  1  0.98983303  0.37589864  0.49969897  1
  O  O297  1  1.02243142  0.38865128  1.00288798  1
  O  O298  1  0.99818566  0.89228462  0.49844382  1
  O  O299  1  0.98544951  0.87632411  1.00601394  1
  O  O300  1  0.50945244  0.48896331  0.38027957  1
  O  O301  1  0.49713653  0.49130884  0.89243881  1
  O  O302  1  0.51209443  0.99236891  0.38005292  1
  O  O303  1  0.50214099  0.98901457  0.88218337  1
  O  O304  1  1.01862617  0.48232471  0.37272986  1
  O  O305  1  1.00645932  0.48206779  0.89411049  1
  O  O306  1  0.98381928  0.99765756  0.36994213  1
  O  O307  1  0.97548259  0.99824439  0.86813319  1
  O  O308  1  -0.01605323  0.02040241  0.11127816  1
  O  O309  1  0.00394608  -0.00448098  0.62049700  1
  O  O310  1  -0.00206343  0.50815811  0.11401063  1
  O  O311  1  0.03115998  0.49967690  0.61629261  1
  O  O312  1  0.51284852  -0.00929822  0.11089553  1
  O  O313  1  0.51004005  0.00221912  0.63127796  1
  O  O314  1  0.50002885  0.52049482  0.13949081  1
  O  O315  1  0.50792442  0.51382074  0.62538145  1
  O  O316  1  0.24046980  0.40237508  0.28975457  1
  O  O317  1  0.28366795  0.38549969  0.71755571  1
  O  O318  1  0.24715315  0.88530456  0.23458328  1
  O  O319  1  0.23351723  0.86143870  0.74370753  1
  O  O320  1  0.75643368  0.39114197  0.26567441  1
  O  O321  1  0.75743907  0.37456450  0.75059985  1
  O  O322  1  0.75140162  0.88493507  0.23719216  1
  O  O323  1  0.74063014  0.88561358  0.74317308  1
  O  O324  1  0.24197041  0.10292630  0.25449066  1
  O  O325  1  0.25795736  0.12406359  0.76046885  1
  O  O326  1  0.24857190  0.61871084  0.26536808  1
  O  O327  1  0.26592936  0.62156822  0.74577765  1
  O  O328  1  0.75922671  0.12071139  0.25559144  1
  O  O329  1  0.75054863  0.11557428  0.75674070  1
  O  O330  1  0.77115473  0.62249798  0.24991865  1
  O  O331  1  0.75224157  0.64398013  0.75524340  1
  O  O332  1  0.42478156  0.14088713  0.29584679  1
  O  O333  1  0.36615162  0.11769838  0.86911071  1
  O  O334  1  0.36110417  0.63633898  0.38057187  1
  O  O335  1  0.38137616  0.62413921  0.86079305  1
  O  O336  1  0.86532902  0.11126842  0.36421372  1
  O  O337  1  0.86367715  0.11374174  0.86377480  1
  O  O338  1  0.89135787  0.65012038  0.36084254  1
  O  O339  1  0.87706172  0.62373250  0.85289168  1
  O  O340  1  0.17080630  0.40490569  0.12707875  1
  O  O341  1  0.15038750  0.36429061  0.60839485  1
  O  O342  1  0.14211252  0.87198245  0.13162299  1
  O  O343  1  0.12742712  0.88966481  0.62983512  1
  O  O344  1  0.65577089  0.37261583  0.13947556  1
  O  O345  1  0.61080079  0.36413050  0.64657428  1
  O  O346  1  0.63902772  0.87452325  0.12529764  1
  O  O347  1  0.62649412  0.88307186  0.63796831  1
  O  O348  1  0.10965918  0.24110727  0.26913115  1
  O  O349  1  0.11839030  0.24651315  0.73353067  1
  O  O350  1  0.13167258  0.76776478  0.24966083  1
  O  O351  1  0.11759214  0.75302559  0.74750223  1
  O  O352  1  0.59257045  0.23849509  0.21530060  1
  O  O353  1  0.61793902  0.25737508  0.76718623  1
  O  O354  1  0.63247883  0.75019336  0.26744461  1
  O  O355  1  0.61699632  0.75688863  0.75951669  1
  O  O356  1  0.37082893  0.18670200  0.26526537  1
  O  O357  1  0.37663735  0.23673633  0.76065009  1
  O  O358  1  0.38618493  0.75402331  0.24984977  1
  O  O359  1  0.38273012  0.73888436  0.74251404  1
  O  O360  1  0.88510724  0.23693954  0.26423212  1
  O  O361  1  0.87220697  0.23086720  0.73530224  1
  O  O362  1  0.87477547  0.74668243  0.23305731  1
  O  O363  1  0.87811420  0.75380271  0.74738805  1
  O  O364  1  0.38737325  0.50172760  0.50379690  1
  O  O365  1  0.39302283  0.50365440  1.01256437  1
  O  O366  1  0.38861824  0.99101594  0.50008597  1
  O  O367  1  0.39353371  1.00274393  0.98304102  1
  O  O368  1  0.86259039  0.48328934  0.52274604  1
  O  O369  1  0.87745363  0.48898183  1.00150533  1
  O  O370  1  0.88313447  1.00444641  0.48914041  1
  O  O371  1  0.86882097  0.99238605  0.98867764  1
  O  O372  1  0.11545677  0.01058511  -0.04104581  1
  O  O373  1  0.11471004  -0.00054686  0.50919528  1
  O  O374  1  0.18097887  0.44718863  0.06598643  1
  O  O375  1  0.01286275  0.59187139  0.49150917  1
  O  O376  1  0.61978466  -0.01095723  0.00753535  1
  O  O377  1  0.61063602  -0.00512540  0.51408929  1
  O  O378  1  0.61765042  0.51324395  -0.00663952  1
  O  O379  1  0.64147702  0.51697528  0.50747075  1
  O  O380  1  0.38217656  0.33629709  0.17412406  1
  O  O381  1  0.37760886  0.35911227  0.59524616  1
  O  O382  1  0.36658239  0.86228256  0.12677294  1
  O  O383  1  0.37289101  0.86050729  0.63695554  1
  O  O384  1  0.87877871  0.36831673  0.13225327  1
  O  O385  1  0.88292561  0.35388830  0.61462592  1
  O  O386  1  0.86818491  0.86842730  0.11508984  1
  O  O387  1  0.85615630  0.88686934  0.63115623  1
  O  O388  1  0.11992488  0.12619138  0.38480227  1
  O  O389  1  0.12618645  0.14017685  0.85857633  1
  O  O390  1  0.12712568  0.64632045  0.37684265  1
  O  O391  1  0.13804345  0.60327879  0.87275749  1
  O  O392  1  0.64213357  0.12569404  0.36222862  1
  O  O393  1  0.63522284  0.13507190  0.86894416  1
  O  O394  1  0.62195127  0.63733560  0.39361507  1
  O  O395  1  0.61763897  0.63527305  0.88375835  1
