# generated using pymatgen
data_V35Zn35O128
_symmetry_space_group_name_H-M   'P 1'
_cell_length_a   16.84307200
_cell_length_b   16.89154079
_cell_length_c   16.89306595
_cell_angle_alpha   90.13842231
_cell_angle_beta   90.17334548
_cell_angle_gamma   89.78869533
_symmetry_Int_Tables_number   1
_chemical_formula_structural   V35Zn35O128
_chemical_formula_sum   'V70 Zn70 O256'
_cell_volume   4806.10054540
_cell_formula_units_Z   2
loop_
 _symmetry_equiv_pos_site_id
 _symmetry_equiv_pos_as_xyz
  1  'x, y, z'
loop_
 _atom_site_type_symbol
 _atom_site_label
 _atom_site_symmetry_multiplicity
 _atom_site_fract_x
 _atom_site_fract_y
 _atom_site_fract_z
 _atom_site_occupancy
  V  V0  1  0.12595116  0.74424325  0.37580865  1
  V  V1  1  0.89324868  -0.00165880  0.36792877  1
  V  V2  1  -0.01075604  0.75377501  0.25152446  1
  V  V3  1  0.12601623  0.63831422  -0.01648171  1
  V  V4  1  -0.00216424  0.48910225  -0.00295669  1
  V  V5  1  0.87545250  0.25188314  0.61112165  1
  V  V6  1  0.49422098  0.39170805  0.37912300  1
  V  V7  1  0.13081468  -0.00429020  0.12670584  1
  V  V8  1  0.62815253  0.25593718  0.38407214  1
  V  V9  1  0.74601429  -0.00948339  0.24361859  1
  V  V10  1  0.75252834  0.13340765  0.37880589  1
  V  V11  1  0.36458458  0.74477674  0.14688182  1
  V  V12  1  0.26213962  0.50763251  0.25228023  1
  V  V13  1  0.24716029  0.87160144  0.62791204  1
  V  V14  1  0.39781238  0.01951120  0.87864550  1
  V  V15  1  0.62838818  0.37863770  0.23397946  1
  V  V16  1  0.26140955  0.23842583  0.51373570  1
  V  V17  1  0.50680023  -0.00488090  0.49673284  1
  V  V18  1  0.37946624  0.13168498  0.73836084  1
  V  V19  1  0.50456442  0.25270708  0.76734347  1
  V  V20  1  0.62480431  0.36982721  0.76274079  1
  V  V21  1  0.12329512  0.50378267  0.12205077  1
  V  V22  1  0.73710731  0.76340319  -0.00130337  1
  V  V23  1  0.36801103  0.38506290  0.50578121  1
  V  V24  1  0.00874264  0.11544765  0.61679266  1
  V  V25  1  0.12636201  0.87613029  0.76729897  1
  V  V26  1  0.24855563  -0.00420260  0.25537696  1
  V  V27  1  0.74625705  0.49437789  0.74619823  1
  V  V28  1  0.37333786  0.24040114  0.12795332  1
  V  V29  1  0.87048588  0.76077034  0.11322177  1
  V  V30  1  -0.01023267  0.62407862  0.12855922  1
  V  V31  1  0.64280525  -0.00967357  0.62653077  1
  V  V32  1  0.50542334  0.13695141  0.61624080  1
  V  V33  1  0.87728365  0.48795197  0.87349331  1
  V  V34  1  0.87441963  0.50245308  0.38559892  1
  V  V35  1  0.13494718  0.23877231  0.38051028  1
  V  V36  1  0.37345959  0.38648438  -0.01207896  1
  V  V37  1  0.88217295  0.62286679  0.74990925  1
  V  V38  1  0.25245628  0.37464179  0.12595289  1
  V  V39  1  0.38005057  0.86597141  0.50969268  1
  V  V40  1  0.49817850  0.24692827  0.24905493  1
  V  V41  1  0.73710609  0.62352079  0.88352137  1
  V  V42  1  0.26285167  0.62558814  0.37586190  1
  V  V43  1  0.87650741  0.88428053  0.50582770  1
  V  V44  1  0.00355153  0.12523775  0.12809188  1
  V  V45  1  0.50196010  0.62449584  0.13083430  1
  V  V46  1  0.12736007  0.12600644  -0.01308058  1
  V  V47  1  0.24626770  0.24567555  -0.01006909  1
  V  V48  1  0.00212802  0.25232661  0.24917387  1
  V  V49  1  0.12821141  0.87278068  0.24709400  1
  V  V50  1  0.62472831  0.02619695  0.12388285  1
  V  V51  1  0.26285204  0.50684375  0.76090656  1
  V  V52  1  0.75739708  0.49702863  0.23615124  1
  V  V53  1  -0.00228825  0.25163631  0.76864279  1
  V  V54  1  0.37062249  0.12302181  0.25842010  1
  V  V55  1  0.75744191  -0.01285728  0.77683054  1
  V  V56  1  0.38302562  0.87500044  0.01118529  1
  V  V57  1  0.87267269  0.13120474  0.24671670  1
  V  V58  1  0.85825571  0.37130869  0.00172873  1
  V  V59  1  0.86162805  0.74043864  0.61789180  1
  V  V60  1  0.37861791  -0.00610957  0.38013996  1
  V  V61  1  0.86748314  0.12098393  0.75906003  1
  V  V62  1  0.50789795  0.51201018  -0.01585916  1
  V  V63  1  -0.02582164  -0.00626948  -0.00813370  1
  V  V64  1  0.24918088  0.01495689  0.75016125  1
  V  V65  1  0.12352375  0.37839304  0.25110316  1
  V  V66  1  0.13177039  0.36157053  0.76924650  1
  V  V67  1  0.86121736  0.25480527  0.11983761  1
  V  V68  1  0.74627550  0.36866482  0.61195990  1
  V  V69  1  -0.00147425  0.38116611  0.39153572  1
  Zn  Zn70  1  0.74782906  0.62344276  0.37413866  1
  Zn  Zn71  1  0.01023452  0.74560076  0.75107522  1
  Zn  Zn72  1  0.13002887  0.45648554  0.62816760  1
  Zn  Zn73  1  0.05943409  0.57935190  0.56309238  1
  Zn  Zn74  1  0.20526019  0.71088716  0.54515691  1
  Zn  Zn75  1  0.63616564  0.12782468  0.50324934  1
  Zn  Zn76  1  0.18982625  0.18415081  0.19184629  1
  Zn  Zn77  1  0.18115084  0.20078037  0.68753560  1
  Zn  Zn78  1  0.18567132  0.68861914  0.18183700  1
  Zn  Zn79  1  0.19365757  0.68913534  0.70988832  1
  Zn  Zn80  1  0.68513393  0.19327713  0.19251486  1
  Zn  Zn81  1  0.68881089  0.18799438  0.68490305  1
  Zn  Zn82  1  0.69206263  0.68080742  0.18499781  1
  Zn  Zn83  1  0.69477739  0.69233161  0.69674828  1
  Zn  Zn84  1  0.31336190  0.31705531  0.31757194  1
  Zn  Zn85  1  0.32033741  0.30270888  0.81026503  1
  Zn  Zn86  1  0.31126988  0.81583668  0.31600794  1
  Zn  Zn87  1  0.32240353  0.84946581  0.82803635  1
  Zn  Zn88  1  0.81314582  0.32032510  0.31404730  1
  Zn  Zn89  1  0.81051494  0.30262866  0.81117255  1
  Zn  Zn90  1  0.80913908  0.82255756  0.33365483  1
  Zn  Zn91  1  0.81676828  0.80682022  0.82575271  1
  Zn  Zn92  1  0.18977108  0.43421351  0.43928352  1
  Zn  Zn93  1  0.18389932  0.43209678  0.93361555  1
  Zn  Zn94  1  0.19165181  0.92253780  0.43544088  1
  Zn  Zn95  1  0.20552788  0.95573540  0.93776601  1
  Zn  Zn96  1  0.68597255  0.44333467  0.43413977  1
  Zn  Zn97  1  0.68423297  0.43952976  0.93858805  1
  Zn  Zn98  1  0.70695184  0.94596252  0.44030712  1
  Zn  Zn99  1  0.56966352  0.94704558  0.94564641  1
  Zn  Zn100  1  0.31015333  0.05351161  0.05767237  1
  Zn  Zn101  1  0.20293266  0.05750437  0.56573799  1
  Zn  Zn102  1  0.31116480  0.57360276  0.05577956  1
  Zn  Zn103  1  0.25189913  0.54298754  0.56050875  1
  Zn  Zn104  1  0.76189413  -0.02306410  -0.00541646  1
  Zn  Zn105  1  0.82457054  0.06583279  0.56015863  1
  Zn  Zn106  1  0.81120790  0.56385789  0.06006129  1
  Zn  Zn107  1  0.81127212  0.55535663  0.56304364  1
  Zn  Zn108  1  0.44448946  0.44212729  0.17948981  1
  Zn  Zn109  1  0.42064261  0.41777203  0.69491810  1
  Zn  Zn110  1  0.44310739  0.93766560  0.18638542  1
  Zn  Zn111  1  0.44289322  0.94516498  0.68221619  1
  Zn  Zn112  1  0.93479935  0.43655871  0.18665000  1
  Zn  Zn113  1  0.94420799  0.43175001  0.67828958  1
  Zn  Zn114  1  0.93848567  0.93801292  0.18404441  1
  Zn  Zn115  1  0.93754925  0.93302064  0.68606678  1
  Zn  Zn116  1  0.07020677  0.05950954  0.44098426  1
  Zn  Zn117  1  0.05281694  0.05890264  0.80967413  1
  Zn  Zn118  1  0.06080518  0.56579938  0.31356645  1
  Zn  Zn119  1  0.06612152  0.54895480  0.80855087  1
  Zn  Zn120  1  0.56264209  0.06542780  0.31318086  1
  Zn  Zn121  1  0.58102522  0.06998358  0.80368286  1
  Zn  Zn122  1  0.56025951  0.55981717  0.29811655  1
  Zn  Zn123  1  0.55973940  0.56296632  0.80068581  1
  Zn  Zn124  1  0.43851511  0.18695731  0.43650191  1
  Zn  Zn125  1  0.42811519  0.18194966  0.94370044  1
  Zn  Zn126  1  0.43794867  0.67846363  0.43304191  1
  Zn  Zn127  1  0.44048239  0.70087112  0.93803692  1
  Zn  Zn128  1  0.94098026  0.19248263  0.43472285  1
  Zn  Zn129  1  0.92989262  0.17679984  0.94391182  1
  Zn  Zn130  1  0.93470873  0.68057919  0.43289620  1
  Zn  Zn131  1  0.93606641  0.67778253  0.93788970  1
  Zn  Zn132  1  0.06153302  0.31076886  0.05824409  1
  Zn  Zn133  1  0.06643538  0.29883535  0.56778884  1
  Zn  Zn134  1  0.05826271  0.81715490  0.05915801  1
  Zn  Zn135  1  0.03057666  0.77022486  0.54827100  1
  Zn  Zn136  1  0.54898341  0.32119772  0.05931303  1
  Zn  Zn137  1  0.56073907  0.32757755  0.56241705  1
  Zn  Zn138  1  0.54862297  0.80789528  0.06860925  1
  Zn  Zn139  1  0.57635771  0.81711975  0.55643644  1
  O  O140  1  0.11461127  0.11769764  0.13107175  1
  O  O141  1  0.11356952  0.12518547  0.62591991  1
  O  O142  1  0.11478014  0.61502260  0.11714994  1
  O  O143  1  0.15007729  0.63978100  0.61530949  1
  O  O144  1  0.62340972  0.12624666  0.12601659  1
  O  O145  1  0.62114153  0.11811431  0.62060683  1
  O  O146  1  0.60313647  0.63897993  0.12673132  1
  O  O147  1  0.58679427  0.71113337  0.60152175  1
  O  O148  1  0.38949998  0.37687325  0.37734426  1
  O  O149  1  0.37132377  0.36674570  0.89115581  1
  O  O150  1  0.37199998  0.88419469  0.38825985  1
  O  O151  1  0.38986740  0.91182382  0.89358993  1
  O  O152  1  0.89240733  0.37887840  0.37426688  1
  O  O153  1  0.86385380  0.38121888  0.88279349  1
  O  O154  1  0.89567364  0.89924722  0.35224420  1
  O  O155  1  0.92352101  0.83057370  0.86983348  1
  O  O156  1  0.26239407  -0.00540271  0.36357315  1
  O  O157  1  0.27490811  0.01041663  0.85592306  1
  O  O158  1  0.24281974  0.51182687  0.36053489  1
  O  O159  1  0.23930228  0.49440619  0.86163361  1
  O  O160  1  0.76254471  0.01544138  0.36137262  1
  O  O161  1  0.75339181  0.00320427  0.87424519  1
  O  O162  1  0.76617028  0.49029871  0.36563285  1
  O  O163  1  0.75654024  0.50562759  0.86918088  1
  O  O164  1  0.24069555  0.49386983  0.13384925  1
  O  O165  1  0.24482552  0.48035763  0.65461292  1
  O  O166  1  0.23913343  1.01132809  0.14113670  1
  O  O167  1  0.26166928  0.99135616  0.64282587  1
  O  O168  1  0.75838860  0.49895221  0.13617992  1
  O  O169  1  0.76161641  0.48071442  0.63763537  1
  O  O170  1  0.74148766  1.00191360  0.14000440  1
  O  O171  1  0.74258888  1.00285428  0.61076552  1
  O  O172  1  0.00870657  0.36775541  0.24941076  1
  O  O173  1  -0.00540805  0.35441754  0.75483723  1
  O  O174  1  0.01098975  0.86073244  0.23889420  1
  O  O175  1  0.02638164  0.89625685  0.75223072  1
  O  O176  1  0.50863551  0.37282515  0.25777245  1
  O  O177  1  0.51352098  0.36210571  0.74322801  1
  O  O178  1  0.53357891  0.85794283  0.23731971  1
  O  O179  1  0.50178338  0.85602798  0.75079726  1
  O  O180  1  0.49058967  0.13893027  0.25411879  1
  O  O181  1  0.50780254  0.14065333  0.73769275  1
  O  O182  1  0.48912547  0.61514134  0.23126000  1
  O  O183  1  0.49358958  0.56164194  0.69313890  1
  O  O184  1  0.98966971  0.14013056  0.24493197  1
  O  O185  1  0.98901065  0.12907233  0.74023309  1
  O  O186  1  1.00720867  0.63893300  0.23750187  1
  O  O187  1  0.98556220  0.62276528  0.75658958  1
  O  O188  1  0.36695326  0.25610222  0.01189644  1
  O  O189  1  0.36527512  0.25409750  0.48957676  1
  O  O190  1  0.36487898  0.77940011  -0.01514084  1
  O  O191  1  0.39240220  0.76744455  0.49072451  1
  O  O192  1  0.87802595  0.25461524  0.01289255  1
  O  O193  1  0.87789628  0.25143843  0.51152837  1
  O  O194  1  0.87266962  0.74573994  0.01069734  1
  O  O195  1  0.86252673  0.73964011  0.51591095  1
  O  O196  1  0.13970315  0.25630934  0.48602160  1
  O  O197  1  0.12985967  0.23531382  1.00651307  1
  O  O198  1  0.12970685  0.76941992  0.47760854  1
  O  O199  1  0.11125695  0.73678712  1.00145439  1
  O  O200  1  0.62094732  0.25282767  0.48551339  1
  O  O201  1  0.58694713  0.22396626  1.00177210  1
  O  O202  1  0.62847973  0.80006315  0.44575405  1
  O  O203  1  0.63745948  0.76498603  1.01121855  1
  O  O204  1  0.48327758  0.26358280  0.13951212  1
  O  O205  1  0.51081540  0.23753766  0.61565944  1
  O  O206  1  0.47607652  0.73332373  0.11126793  1
  O  O207  1  0.53857655  0.70379573  0.66908320  1
  O  O208  1  1.00134221  0.24453729  0.13433709  1
  O  O209  1  0.98699484  0.23949280  0.63250930  1
  O  O210  1  0.98780327  0.74375433  0.12993337  1
  O  O211  1  0.96613806  0.76773927  0.64594952  1
  O  O212  1  0.00937027  0.26383046  0.36775480  1
  O  O213  1  -0.01330884  0.24164485  0.86728805  1
  O  O214  1  0.01007817  0.74351565  0.35690428  1
  O  O215  1  -0.02588962  0.76585614  0.86571928  1
  O  O216  1  0.51054224  0.25720900  0.36608146  1
  O  O217  1  0.49854678  0.24944304  0.86483561  1
  O  O218  1  0.54474083  0.69625964  0.38823498  1
  O  O219  1  0.49988566  0.76298639  0.84907385  1
  O  O220  1  0.25287910  0.13844224  0.50067641  1
  O  O221  1  0.23457990  0.13198991  1.00909472  1
  O  O222  1  0.26016908  0.62978139  0.48063911  1
  O  O223  1  0.22467319  0.61907148  0.99796174  1
  O  O224  1  0.75545977  0.12391090  0.48252641  1
  O  O225  1  0.71516431  0.16670807  0.88283845  1
  O  O226  1  0.72283058  0.59706387  0.49033315  1
  O  O227  1  0.74758988  0.62446404  0.98722116  1
  O  O228  1  0.25276750  0.36631704  0.00927312  1
  O  O229  1  0.26331388  0.35795257  0.48680247  1
  O  O230  1  0.29520042  0.93464834  0.01169849  1
  O  O231  1  0.26637210  0.87687763  0.51605710  1
  O  O232  1  0.75835155  0.37907087  0.00284274  1
  O  O233  1  0.74311779  0.37896595  0.51328077  1
  O  O234  1  0.76096816  0.85908018  -0.01087393  1
  O  O235  1  0.78527167  0.85990690  0.45223452  1
  O  O236  1  0.12386693  0.49289382  0.23926292  1
  O  O237  1  0.12705792  0.47164228  0.75431097  1
  O  O238  1  0.13235074  0.98830491  0.24424108  1
  O  O239  1  0.14571050  1.00351947  0.75847704  1
  O  O240  1  0.63265573  0.48321395  0.25089479  1
  O  O241  1  0.63559601  0.48430826  0.75112124  1
  O  O242  1  0.64006246  1.01196686  0.24565811  1
  O  O243  1  0.65149124  1.00782179  0.73726661  1
  O  O244  1  0.37377984  0.00236430  0.25532853  1
  O  O245  1  0.38304285  0.01339106  0.75634339  1
  O  O246  1  0.35982328  0.49348331  0.24436431  1
  O  O247  1  0.36367312  0.48147185  0.76384885  1
  O  O248  1  0.86963490  0.01364169  0.25015452  1
  O  O249  1  0.86428309  0.00983427  0.74385047  1
  O  O250  1  0.86321586  0.48963223  0.25699161  1
  O  O251  1  0.86915199  0.50211056  0.75620466  1
  O  O252  1  0.11507427  0.37558315  0.36487797  1
  O  O253  1  0.11527669  0.36345052  0.87067580  1
  O  O254  1  0.13304142  0.85971377  0.35663199  1
  O  O255  1  0.14895392  0.88492339  0.86678528  1
  O  O256  1  0.61605620  0.36856992  0.37270983  1
  O  O257  1  0.62682257  0.37303128  0.86224544  1
  O  O258  1  0.62523056  0.85848512  0.39690186  1
  O  O259  1  0.63189397  0.89832252  0.86709901  1
  O  O260  1  0.36953071  0.13556000  0.13516000  1
  O  O261  1  0.40183272  0.11990313  0.63146654  1
  O  O262  1  0.37202601  0.63837400  0.12465588  1
  O  O263  1  0.40924514  0.63243500  0.59318248  1
  O  O264  1  0.88709165  0.14245545  0.13268025  1
  O  O265  1  0.88182458  0.13622913  0.62920200  1
  O  O266  1  0.88444608  0.63136447  0.12249293  1
  O  O267  1  0.86450373  0.62851514  0.63708837  1
  O  O268  1  0.25425486  0.25867755  0.12510915  1
  O  O269  1  0.25374717  0.24858778  0.61313483  1
  O  O270  1  0.26352060  0.75195143  0.12952182  1
  O  O271  1  0.25848980  0.76729334  0.63540538  1
  O  O272  1  0.76302481  0.24719019  0.12727347  1
  O  O273  1  0.76152658  0.25719343  0.62546473  1
  O  O274  1  0.76130387  0.74042062  0.11181346  1
  O  O275  1  0.76156944  0.75793986  0.63912315  1
  O  O276  1  0.23616539  0.24937179  0.36650949  1
  O  O277  1  0.25747535  0.24431443  0.89193513  1
  O  O278  1  0.23859176  0.73569688  0.36096926  1
  O  O279  1  0.30331704  0.73294593  0.83402214  1
  O  O280  1  0.73715955  0.24973369  0.36785671  1
  O  O281  1  0.73476352  0.24441350  0.88773095  1
  O  O282  1  0.72885880  0.73712862  0.33976055  1
  O  O283  1  0.75212363  0.73422741  0.88793992  1
  O  O284  1  0.00948629  0.11853987  0.01041439  1
  O  O285  1  0.00069967  0.12869211  0.51031393  1
  O  O286  1  0.00438578  0.61029869  0.00807163  1
  O  O287  1  0.01075388  0.66260334  0.50996045  1
  O  O288  1  0.53742894  0.16523723  -0.00132978  1
  O  O289  1  0.50603912  0.11693558  0.50593795  1
  O  O290  1  0.48679673  0.61772574  -0.00126628  1
  O  O291  1  0.45572892  0.61288368  0.53849682  1
  O  O292  1  0.49216388  0.37854618  0.48590013  1
  O  O293  1  0.48096233  0.39368249  1.00458231  1
  O  O294  1  0.49394842  0.88538682  0.51102417  1
  O  O295  1  0.49106897  0.88997539  1.00856898  1
  O  O296  1  1.00942803  0.37146632  0.48879503  1
  O  O297  1  0.98922428  0.38469819  1.00725418  1
  O  O298  1  0.97034704  0.85288012  0.48725951  1
  O  O299  1  0.99576056  0.89654604  1.00857217  1
  O  O300  1  0.50470779  0.49025420  0.37259367  1
  O  O301  1  0.49642852  0.51341180  0.88258739  1
  O  O302  1  0.49774725  1.00227087  0.38498871  1
  O  O303  1  0.50447801  1.02054271  0.87263285  1
  O  O304  1  0.99160486  0.49011673  0.36947711  1
  O  O305  1  0.98645769  0.50006367  0.88494288  1
  O  O306  1  0.98953840  1.02181702  0.36737083  1
  O  O307  1  0.99471723  1.00792794  0.89381659  1
  O  O308  1  0.00564751  0.01057557  0.12049322  1
  O  O309  1  -0.00879945  0.01757268  0.62514196  1
  O  O310  1  0.00404078  0.50431236  0.12024222  1
  O  O311  1  0.01784921  0.49813870  0.63019033  1
  O  O312  1  0.52881354  -0.00581703  0.13650309  1
  O  O313  1  0.51929102  0.00892078  0.61790636  1
  O  O314  1  0.48703935  0.51653795  0.10545638  1
  O  O315  1  0.50095297  0.50395263  0.64463092  1
  O  O316  1  0.24120325  0.38514348  0.24597341  1
  O  O317  1  0.23372715  0.35396063  0.76169053  1
  O  O318  1  0.24343593  0.88438611  0.24767213  1
  O  O319  1  0.25417640  0.88897948  0.74644031  1
  O  O320  1  0.73624821  0.37966323  0.25002311  1
  O  O321  1  0.74045663  0.37504772  0.74858530  1
  O  O322  1  0.75275141  0.89259273  0.25760496  1
  O  O323  1  0.76988995  0.88819440  0.76378927  1
  O  O324  1  0.26241460  0.11597803  0.25213848  1
  O  O325  1  0.26267826  0.12140228  0.73362911  1
  O  O326  1  0.24372771  0.61119802  0.25150351  1
  O  O327  1  0.25747660  0.60755540  0.75120601  1
  O  O328  1  0.76122228  0.12874192  0.25689557  1
  O  O329  1  0.76342118  0.12111453  0.74448096  1
  O  O330  1  0.73412753  0.59873299  0.25775924  1
  O  O331  1  0.75483465  0.61100689  0.75831433  1
  O  O332  1  0.38155824  0.11149032  0.36604706  1
  O  O333  1  0.38449566  0.13085123  0.84713992  1
  O  O334  1  0.36265880  0.62944147  0.36390143  1
  O  O335  1  0.35394532  0.67797264  0.85234418  1
  O  O336  1  0.87139369  0.12960729  0.36354543  1
  O  O337  1  0.87267696  0.12458341  0.85890900  1
  O  O338  1  0.86989550  0.60950591  0.37387965  1
  O  O339  1  0.86590924  0.61061507  0.86614732  1
  O  O340  1  0.13235702  0.38068842  0.13090276  1
  O  O341  1  0.11922853  0.34621915  0.65449149  1
  O  O342  1  0.12257159  0.88748513  0.12920211  1
  O  O343  1  0.14712319  0.87957044  0.64165922  1
  O  O344  1  0.62124290  0.36811425  0.13495820  1
  O  O345  1  0.64102905  0.36856659  0.63381494  1
  O  O346  1  0.58705859  0.83991806  0.18628659  1
  O  O347  1  0.62985383  0.89057051  0.62530706  1
  O  O348  1  0.12041034  0.25940482  0.25613903  1
  O  O349  1  0.10591174  0.24314396  0.76317552  1
  O  O350  1  0.11824222  0.75611399  0.24968953  1
  O  O351  1  0.12491489  0.76963501  0.75716411  1
  O  O352  1  0.61683909  0.26227053  0.25723694  1
  O  O353  1  0.61830338  0.25844933  0.74805314  1
  O  O354  1  0.67246929  0.74782896  0.28283828  1
  O  O355  1  0.58547108  0.67883390  0.73256976  1
  O  O356  1  0.37735898  0.24369115  0.24875694  1
  O  O357  1  0.39609201  0.24855215  0.74251373  1
  O  O358  1  0.37849296  0.75514864  0.24597242  1
  O  O359  1  0.45819999  0.80143932  0.79076085  1
  O  O360  1  0.88178568  0.25206651  0.24132355  1
  O  O361  1  0.87985745  0.23704086  0.74438526  1
  O  O362  1  0.88640794  0.75615717  0.24785378  1
  O  O363  1  0.86460318  0.72524178  0.75237530  1
  O  O364  1  0.35040346  0.48345886  0.50633974  1
  O  O365  1  0.36087819  0.48755658  0.99659497  1
  O  O366  1  0.39021280  0.99013720  0.49133824  1
  O  O367  1  0.39273174  1.06048210  0.97537069  1
  O  O368  1  0.87417347  0.49743908  0.48572598  1
  O  O369  1  0.87833619  0.49055460  0.99399668  1
  O  O370  1  0.87545205  0.99229606  0.48139313  1
  O  O371  1  0.87398184  1.00679113  1.00420366  1
  O  O372  1  0.13102946  0.01464940  0.01108519  1
  O  O373  1  0.13649775  -0.00512740  0.49944250  1
  O  O374  1  0.11512481  0.49588241  0.00926713  1
  O  O375  1  0.14645445  0.50081924  0.51876582  1
  O  O376  1  0.64688169  -0.00474934  0.02311899  1
  O  O377  1  0.62478089  0.00107204  0.50368540  1
  O  O378  1  0.60716075  0.49841210  -0.00305823  1
  O  O379  1  0.65919965  0.54300384  0.49298010  1
  O  O380  1  0.36245997  0.36917931  0.12205589  1
  O  O381  1  0.38942036  0.36453784  0.60266905  1
  O  O382  1  0.38646864  0.86090145  0.12009005  1
  O  O383  1  0.37586221  0.87669044  0.61599398  1
  O  O384  1  0.87794128  0.36098898  0.11897242  1
  O  O385  1  0.86497199  0.35935871  0.63211277  1
  O  O386  1  0.87390282  0.85989694  0.12641283  1
  O  O387  1  0.86455742  0.87823062  0.60845936  1
  O  O388  1  0.11715362  0.14192258  0.37163563  1
  O  O389  1  0.12207704  0.11960395  0.88935359  1
  O  O390  1  0.13082929  0.63835049  0.37112298  1
  O  O391  1  0.10668433  0.62553325  0.88438592  1
  O  O392  1  0.63293368  0.14110440  0.37361121  1
  O  O393  1  0.63758919  0.15295830  0.87421776  1
  O  O394  1  0.59395894  0.63418192  0.38460754  1
  O  O395  1  0.63884577  0.61994725  0.86633618  1
