# generated using pymatgen
data_V35Zn35O128
_symmetry_space_group_name_H-M   'P 1'
_cell_length_a   16.97050835
_cell_length_b   16.99453344
_cell_length_c   17.01377010
_cell_angle_alpha   90.02225947
_cell_angle_beta   89.15009097
_cell_angle_gamma   89.79263187
_symmetry_Int_Tables_number   1
_chemical_formula_structural   V35Zn35O128
_chemical_formula_sum   'V70 Zn70 O256'
_cell_volume   4906.29874383
_cell_formula_units_Z   2
loop_
 _symmetry_equiv_pos_site_id
 _symmetry_equiv_pos_as_xyz
  1  'x, y, z'
loop_
 _atom_site_type_symbol
 _atom_site_label
 _atom_site_symmetry_multiplicity
 _atom_site_fract_x
 _atom_site_fract_y
 _atom_site_fract_z
 _atom_site_occupancy
  V  V0  1  0.60649044  0.13316612  0.50861763  1
  V  V1  1  0.90495352  0.37250208  0.49413737  1
  V  V2  1  -0.00664503  0.73900791  0.75932607  1
  V  V3  1  0.24340326  0.24988994  0.00157865  1
  V  V4  1  0.33326574  0.87705300  -0.00313345  1
  V  V5  1  0.49918452  0.22462655  0.74755987  1
  V  V6  1  0.87268730  0.13647073  0.24324107  1
  V  V7  1  0.87244461  0.36710535  -0.02663985  1
  V  V8  1  -0.01290318  0.76541562  0.24397407  1
  V  V9  1  0.75239333  0.62119594  0.39388255  1
  V  V10  1  0.62511725  0.25002671  0.38268907  1
  V  V11  1  0.75134428  0.87758833  0.62457708  1
  V  V12  1  0.60361712  0.88688139  0.21288969  1
  V  V13  1  0.49917989  0.36769201  0.87679207  1
  V  V14  1  0.74985437  0.49183885  0.24859440  1
  V  V15  1  0.61852696  0.01144566  0.62290600  1
  V  V16  1  0.63585833  0.77557540  0.36819599  1
  V  V17  1  0.35598161  0.11466994  0.25390926  1
  V  V18  1  0.86821052  0.61838209  0.23995713  1
  V  V19  1  0.62221701  0.37283356  0.74796903  1
  V  V20  1  0.14059913  0.00059311  0.62419680  1
  V  V21  1  0.62272686  0.36139618  0.24955133  1
  V  V22  1  0.38086938  0.24747479  0.12962245  1
  V  V23  1  0.39292749  0.78034963  0.65392940  1
  V  V24  1  0.12589012  0.75613570  0.88960393  1
  V  V25  1  -0.00994994  0.49643461  -0.03254555  1
  V  V26  1  0.00268231  0.13838917  0.12661469  1
  V  V27  1  0.75733253  0.13070539  0.39390691  1
  V  V28  1  0.13352829  0.75338888  0.40471775  1
  V  V29  1  0.63669181  0.61323834  -0.01248289  1
  V  V30  1  0.63499913  0.23183335  0.88396740  1
  V  V31  1  0.22743403  0.88122430  0.14992516  1
  V  V32  1  -0.00106024  0.60834691  0.11927788  1
  V  V33  1  0.51154450  0.10814102  0.11818444  1
  V  V34  1  0.76359784  0.35372174  0.12173011  1
  V  V35  1  0.89236625  0.13072026  0.74387932  1
  V  V36  1  0.50310152  0.37862161  0.37646034  1
  V  V37  1  0.88809494  0.49492472  0.37709558  1
  V  V38  1  0.12704340  0.26191928  0.86310961  1
  V  V39  1  0.75094806  0.01580333  0.75442892  1
  V  V40  1  0.88135738  -0.00159232  0.38216955  1
  V  V41  1  0.23151810  0.54393699  0.25857858  1
  V  V42  1  0.85451123  0.75998427  0.11531210  1
  V  V43  1  0.60877908  0.63318289  0.50167621  1
  V  V44  1  0.75597673  0.50494981  0.75582773  1
  V  V45  1  0.25805193  0.23942795  0.49777594  1
  V  V46  1  0.88134369  0.87066759  0.50678662  1
  V  V47  1  0.37693510  0.21854114  0.63003578  1
  V  V48  1  0.75221761  0.37223905  0.60837326  1
  V  V49  1  0.62211263  0.87642498  0.76184429  1
  V  V50  1  0.28086920  0.76137259  0.50144709  1
  V  V51  1  0.12216146  0.12170337  -0.01161972  1
  V  V52  1  0.37189123  0.74777854  0.12614414  1
  V  V53  1  0.38055717  0.01184224  0.89090290  1
  V  V54  1  0.37694192  0.39590667  0.50793230  1
  V  V55  1  0.09443054  0.50121885  0.61841249  1
  V  V56  1  0.11376400  0.87371198  0.75209527  1
  V  V57  1  0.62151233  0.50076263  0.62342888  1
  V  V58  1  0.38826775  0.51373105  0.35464839  1
  V  V59  1  -0.00833530  -0.00519364  0.00177864  1
  V  V60  1  0.76103028  -0.01626137  0.24752073  1
  V  V61  1  0.00406324  0.26832371  0.74370185  1
  V  V62  1  0.62568015  0.49235484  0.12258546  1
  V  V63  1  0.50018878  0.49708890  0.00163983  1
  V  V64  1  -0.00092822  0.01014316  0.51772152  1
  V  V65  1  0.36838391  0.37265991  0.00020956  1
  V  V66  1  0.88293241  0.00096264  0.87365588  1
  V  V67  1  0.87541206  0.74387670  0.63703331  1
  V  V68  1  0.49848186  0.63143122  0.65139490  1
  V  V69  1  0.24941975  0.00612561  0.77293115  1
  Zn  Zn70  1  0.17425003  0.42257964  0.75496412  1
  Zn  Zn71  1  0.29398850  0.55835123  0.86625745  1
  Zn  Zn72  1  0.12272983  0.14207047  0.50528441  1
  Zn  Zn73  1  0.74814620  0.73628058  -0.00710105  1
  Zn  Zn74  1  0.14060255  0.60700925  -0.00247525  1
  Zn  Zn75  1  0.88262321  0.24582754  0.60925382  1
  Zn  Zn76  1  0.18317882  0.19092110  0.18049740  1
  Zn  Zn77  1  0.18975769  0.18233816  0.68248082  1
  Zn  Zn78  1  0.16787496  0.70643349  0.16744648  1
  Zn  Zn79  1  0.12126284  0.62805237  0.52208355  1
  Zn  Zn80  1  0.68701598  0.17735975  0.19362226  1
  Zn  Zn81  1  0.69099291  0.19406325  0.68657541  1
  Zn  Zn82  1  0.67414883  0.68464961  0.19157295  1
  Zn  Zn83  1  0.68587758  0.69239344  0.69399487  1
  Zn  Zn84  1  0.31898645  0.31231264  0.32222129  1
  Zn  Zn85  1  0.31938300  0.29428587  0.81770670  1
  Zn  Zn86  1  0.27942236  0.75834923  0.28094600  1
  Zn  Zn87  1  0.29833260  0.82388109  0.81509001  1
  Zn  Zn88  1  0.81216360  0.31266029  0.31966915  1
  Zn  Zn89  1  0.80605068  0.30834365  0.79866551  1
  Zn  Zn90  1  0.83099612  0.79917347  0.32705553  1
  Zn  Zn91  1  0.80833699  0.82052657  0.81868341  1
  Zn  Zn92  1  0.21055962  0.45514292  0.44711841  1
  Zn  Zn93  1  0.18942328  0.45154791  0.94093707  1
  Zn  Zn94  1  0.16812660  0.91893328  0.43830944  1
  Zn  Zn95  1  0.16927095  0.93748669  0.93611497  1
  Zn  Zn96  1  0.68079866  0.44697245  0.43814732  1
  Zn  Zn97  1  0.69004041  0.42240574  0.93388589  1
  Zn  Zn98  1  0.64199475  0.97788412  0.40376219  1
  Zn  Zn99  1  0.71216383  0.92050028  0.93253755  1
  Zn  Zn100  1  0.29960919  0.05915515  0.07193614  1
  Zn  Zn101  1  0.31905174  0.04926117  0.55089946  1
  Zn  Zn102  1  0.30312455  0.55173685  0.07680193  1
  Zn  Zn103  1  0.33242039  0.59211436  0.54275808  1
  Zn  Zn104  1  0.81694725  0.06439885  0.06707130  1
  Zn  Zn105  1  0.81543392  0.06249327  0.57135509  1
  Zn  Zn106  1  0.81168154  0.54677871  0.05830940  1
  Zn  Zn107  1  0.92618735  0.56627034  0.56381103  1
  Zn  Zn108  1  0.44067961  0.42183846  0.18301798  1
  Zn  Zn109  1  0.43733578  0.44136384  0.69691408  1
  Zn  Zn110  1  0.41919939  0.94032774  0.17527469  1
  Zn  Zn111  1  0.44162735  0.95799708  0.70888600  1
  Zn  Zn112  1  0.94216561  0.42790638  0.18799541  1
  Zn  Zn113  1  0.96614970  0.47986509  0.74636148  1
  Zn  Zn114  1  0.91782841  0.94497150  0.17517505  1
  Zn  Zn115  1  0.93676262  0.93858131  0.69045214  1
  Zn  Zn116  1  0.05176614  0.07116998  0.31660634  1
  Zn  Zn117  1  0.06339132  0.06555944  0.80941101  1
  Zn  Zn118  1  0.05661742  0.58116523  0.31104652  1
  Zn  Zn119  1  0.10525962  0.57389205  0.81156580  1
  Zn  Zn120  1  0.50914635  0.06152106  0.30024886  1
  Zn  Zn121  1  0.58190373  0.03159686  0.84677468  1
  Zn  Zn122  1  0.56870759  0.56418468  0.30772094  1
  Zn  Zn123  1  0.55757016  0.55555024  0.81699784  1
  Zn  Zn124  1  0.43437817  0.19052524  0.43281505  1
  Zn  Zn125  1  0.44189785  0.18519422  0.94196826  1
  Zn  Zn126  1  0.45292279  0.70087669  0.41027252  1
  Zn  Zn127  1  0.37849752  0.66953341  0.96593927  1
  Zn  Zn128  1  0.94518892  0.18688866  0.43376689  1
  Zn  Zn129  1  0.93779112  0.18329945  0.92368537  1
  Zn  Zn130  1  0.95991798  0.68920268  0.42975215  1
  Zn  Zn131  1  0.94945324  0.69499834  0.94449323  1
  Zn  Zn132  1  0.02377207  0.29147872  0.02583905  1
  Zn  Zn133  1  0.08449551  0.32848065  0.57811149  1
  Zn  Zn134  1  0.04860356  0.81565284  0.07432353  1
  Zn  Zn135  1  0.05726610  0.81733534  0.57583929  1
  Zn  Zn136  1  0.56569431  0.30408127  0.06243314  1
  Zn  Zn137  1  0.55235258  0.31246906  0.56476371  1
  Zn  Zn138  1  0.56384046  0.79283771  0.05727060  1
  Zn  Zn139  1  0.56560067  0.81575085  0.56389823  1
  O  O140  1  0.10714468  0.12837705  0.11679517  1
  O  O141  1  0.12866692  0.10518072  0.61937196  1
  O  O142  1  0.10052871  0.63651203  0.10517136  1
  O  O143  1  0.12214418  0.59629734  0.63625519  1
  O  O144  1  0.61022070  0.12178338  0.13774079  1
  O  O145  1  0.63154608  0.12378246  0.61594512  1
  O  O146  1  0.63230090  0.59360747  0.11325311  1
  O  O147  1  0.61410474  0.62678363  0.61747995  1
  O  O148  1  0.38929898  0.38612170  0.37618902  1
  O  O149  1  0.38771534  0.35683420  0.89172123  1
  O  O150  1  0.42946825  0.91676090  0.49968565  1
  O  O151  1  0.35095127  0.89331258  0.89244038  1
  O  O152  1  0.87484015  0.38392546  0.38480901  1
  O  O153  1  0.86010045  0.37258748  0.87646676  1
  O  O154  1  0.86528809  0.88708909  0.40258909  1
  O  O155  1  0.88365964  0.90378133  0.85964405  1
  O  O156  1  0.19691634  0.00294518  0.35492154  1
  O  O157  1  0.23703196  0.00971056  0.87326754  1
  O  O158  1  0.27401775  0.50924290  0.35505339  1
  O  O159  1  0.20229905  0.50577005  0.83697100  1
  O  O160  1  0.75608442  0.01829347  0.37201510  1
  O  O161  1  0.76482985  0.00539433  0.85872705  1
  O  O162  1  0.75307107  0.50479088  0.36642185  1
  O  O163  1  0.73940108  0.48698683  0.85457254  1
  O  O164  1  0.26557705  0.50411896  0.17164629  1
  O  O165  1  0.27165661  0.53965917  0.64953761  1
  O  O166  1  0.24271962  0.98175431  0.13257437  1
  O  O167  1  0.24079356  0.99197632  0.61566749  1
  O  O168  1  0.74557867  0.47857113  0.13361751  1
  O  O169  1  0.73194555  0.48176940  0.63574589  1
  O  O170  1  0.78229629  0.99175265  0.14887014  1
  O  O171  1  0.74907726  0.99564713  0.63701694  1
  O  O172  1  0.01776270  0.36205500  0.24957050  1
  O  O173  1  -0.00924503  0.36314044  0.75976801  1
  O  O174  1  -0.02456009  0.86398631  0.23193954  1
  O  O175  1  0.01097006  0.88545275  0.75385854  1
  O  O176  1  0.51570017  0.37159799  0.25897766  1
  O  O177  1  0.50602791  0.37306173  0.76160746  1
  O  O178  1  0.50676635  0.89089309  0.23473049  1
  O  O179  1  0.52445232  0.88836553  0.74747209  1
  O  O180  1  0.47282700  0.12936408  0.22481865  1
  O  O181  1  0.50620590  0.12949660  0.75077437  1
  O  O182  1  0.58699085  0.65931527  0.25736360  1
  O  O183  1  0.50737745  0.63383106  0.74959552  1
  O  O184  1  0.98804061  0.11789497  0.23484299  1
  O  O185  1  0.99462907  0.13156504  0.74359181  1
  O  O186  1  0.98313557  0.62869945  0.23346210  1
  O  O187  1  0.99929349  0.64218447  0.75536521  1
  O  O188  1  0.36382332  0.25438507  0.00770592  1
  O  O189  1  0.37446554  0.24960972  0.51851612  1
  O  O190  1  0.36446510  0.77924166  -0.00816699  1
  O  O191  1  0.37560383  0.76107099  0.46637954  1
  O  O192  1  0.89469057  0.26712087  -0.00963853  1
  O  O193  1  0.88849265  0.26705745  0.49252185  1
  O  O194  1  0.86705383  0.73268824  0.01411397  1
  O  O195  1  0.88285309  0.76825727  0.51941529  1
  O  O196  1  0.15488072  0.25556751  0.52322885  1
  O  O197  1  0.12314949  0.24547080  0.98457192  1
  O  O198  1  0.12353526  0.75044117  0.50962802  1
  O  O199  1  0.10861289  0.76535633  0.98832094  1
  O  O200  1  0.62205595  0.24074668  0.50018961  1
  O  O201  1  0.62736164  0.25137936  0.98251120  1
  O  O202  1  0.62969866  0.73588446  0.49852554  1
  O  O203  1  0.62839226  0.71578123  1.00745603  1
  O  O204  1  0.48290214  0.24734170  0.12315899  1
  O  O205  1  0.48770263  0.24879055  0.63818949  1
  O  O206  1  0.47052855  0.76182924  0.10632756  1
  O  O207  1  0.49717323  0.74581885  0.62734083  1
  O  O208  1  0.99454004  0.23786227  0.12118776  1
  O  O209  1  1.00541817  0.26308934  0.63928187  1
  O  O210  1  0.97461634  0.73926149  0.12814033  1
  O  O211  1  0.98327168  0.75988100  0.64460430  1
  O  O212  1  0.04454582  0.21879904  0.38142619  1
  O  O213  1  0.01899403  0.24525720  0.86124453  1
  O  O214  1  -0.05406665  0.75576554  0.34403822  1
  O  O215  1  -0.00145366  0.75720986  0.86446601  1
  O  O216  1  0.51757084  0.25949177  0.38046839  1
  O  O217  1  0.50534122  0.24862462  0.86185266  1
  O  O218  1  0.53667178  0.76475565  0.37498208  1
  O  O219  1  0.50239283  0.77780481  0.89033140  1
  O  O220  1  0.25428264  0.13429494  0.50350164  1
  O  O221  1  0.22533446  0.13135945  1.00922820  1
  O  O222  1  0.24711949  0.65560648  0.50709550  1
  O  O223  1  0.24206938  0.55591847  0.98351298  1
  O  O224  1  0.76182598  0.12777381  0.49331260  1
  O  O225  1  0.71382289  0.07187402  1.00890964  1
  O  O226  1  0.76085278  0.62280043  0.48935452  1
  O  O227  1  0.74007935  0.60804558  0.99598006  1
  O  O228  1  0.26339035  0.37109505  -0.01064762  1
  O  O229  1  0.27611625  0.36820521  0.49583014  1
  O  O230  1  0.23330739  0.87850973  0.00884238  1
  O  O231  1  0.24635335  0.85809683  0.49142042  1
  O  O232  1  0.76418091  0.37147162  0.01226941  1
  O  O233  1  0.73282549  0.37596928  0.51057004  1
  O  O234  1  0.75146687  0.81879339  -0.08274582  1
  O  O235  1  0.76542417  0.88557609  0.52443833  1
  O  O236  1  0.13571214  0.51628365  0.26538873  1
  O  O237  1  0.08193044  0.49488286  0.73880507  1
  O  O238  1  0.14971445  1.00571534  0.29524836  1
  O  O239  1  0.12808059  0.99824269  0.74015496  1
  O  O240  1  0.63398879  0.48210094  0.24289891  1
  O  O241  1  0.62231163  0.48554840  0.74444921  1
  O  O242  1  0.65264790  0.97605495  0.24712425  1
  O  O243  1  0.64093224  1.00840142  0.73797359  1
  O  O244  1  0.36348999  0.01479673  0.24622736  1
  O  O245  1  0.35809938  -0.00395180  0.77625102  1
  O  O246  1  0.39725687  0.49855374  0.25590513  1
  O  O247  1  0.34313790  0.45277614  0.76772522  1
  O  O248  1  0.87614144  0.01375211  0.26747456  1
  O  O249  1  0.87223153  0.01592799  0.75085076  1
  O  O250  1  0.86739658  0.49507933  0.25711922  1
  O  O251  1  0.85533585  0.49518747  0.74158928  1
  O  O252  1  0.16394114  0.37882818  0.35753594  1
  O  O253  1  0.13349868  0.36162287  0.86446392  1
  O  O254  1  0.09976711  0.84443297  0.38083562  1
  O  O255  1  0.11658237  0.86924315  0.86375999  1
  O  O256  1  0.62321678  0.36943272  0.37124496  1
  O  O257  1  0.61664679  0.35788630  0.86478925  1
  O  O258  1  0.65660656  0.86372977  0.40608173  1
  O  O259  1  0.62443445  0.91884305  0.85880616  1
  O  O260  1  0.36494876  0.13952985  0.12760573  1
  O  O261  1  0.38052346  0.12038936  0.62146479  1
  O  O262  1  0.35891521  0.65120273  0.08157843  1
  O  O263  1  0.40013522  0.63216259  0.62657562  1
  O  O264  1  0.87603293  0.13280648  0.13803775  1
  O  O265  1  0.87348802  0.13348629  0.63837651  1
  O  O266  1  0.87846207  0.61075774  0.13112725  1
  O  O267  1  0.86659431  0.64691059  0.62577190  1
  O  O268  1  0.24559642  0.25640654  0.10519207  1
  O  O269  1  0.27481791  0.24352512  0.62951609  1
  O  O270  1  0.25343679  0.76795589  0.12520207  1
  O  O271  1  0.30163921  0.76008946  0.60636612  1
  O  O272  1  0.74760291  0.25623915  0.13116686  1
  O  O273  1  0.75758131  0.26902766  0.63047169  1
  O  O274  1  0.75118786  0.73636600  0.12100933  1
  O  O275  1  0.76174699  0.76960126  0.64032711  1
  O  O276  1  0.26530872  0.24800654  0.39910216  1
  O  O277  1  0.23684725  0.24606729  0.88378225  1
  O  O278  1  0.23509114  0.74597926  0.38501444  1
  O  O279  1  0.22550994  0.75462868  0.87263981  1
  O  O280  1  0.74302449  0.23726063  0.37652710  1
  O  O281  1  0.73185812  0.24532618  0.85807975  1
  O  O282  1  0.74326285  0.72589665  0.36535190  1
  O  O283  1  0.80050907  0.66945047  0.86062592  1
  O  O284  1  0.00600352  0.12834517  0.00728430  1
  O  O285  1  0.00237739  0.11305422  0.50539397  1
  O  O286  1  -0.01968911  0.60456842  0.01004540  1
  O  O287  1  0.00031912  0.63115985  0.50964298  1
  O  O288  1  0.50039842  0.13228817  0.01958891  1
  O  O289  1  0.50916218  0.13025174  0.50140193  1
  O  O290  1  0.51143689  0.59556737  0.00356523  1
  O  O291  1  0.51001847  0.63226153  0.49571961  1
  O  O292  1  0.48769172  0.37093133  0.48767671  1
  O  O293  1  0.49399100  0.36774543  0.99170925  1
  O  O294  1  0.50708224  0.90251275  0.49853708  1
  O  O295  1  0.51938233  0.83080638  0.93728885  1
  O  O296  1  1.00250137  0.37453113  0.50212718  1
  O  O297  1  0.98581026  0.38644431  0.98254961  1
  O  O298  1  0.98579678  0.88895969  0.51276349  1
  O  O299  1  0.99591056  0.89704087  1.00721115  1
  O  O300  1  0.50272437  0.48961253  0.36971470  1
  O  O301  1  0.50705808  0.47893812  0.89125772  1
  O  O302  1  0.53767733  0.99712221  0.37603704  1
  O  O303  1  0.47844662  0.99980808  0.88062562  1
  O  O304  1  0.98483084  0.50314272  0.36089739  1
  O  O305  1  0.98333657  0.51237595  0.87096319  1
  O  O306  1  0.98696260  1.00630979  0.38965888  1
  O  O307  1  0.99087167  1.01409975  0.88572949  1
  O  O308  1  -0.02233568  0.01794972  0.10544662  1
  O  O309  1  0.00177876  0.00367333  0.61889554  1
  O  O310  1  0.00297177  0.50904082  0.13203870  1
  O  O311  1  -0.00973976  0.49230898  0.62082752  1
  O  O312  1  0.49383536  0.00923465  0.11836862  1
  O  O313  1  0.52142397  0.00727474  0.63640451  1
  O  O314  1  0.51435761  0.47495478  0.10999806  1
  O  O315  1  0.50952752  0.51864296  0.64141940  1
  O  O316  1  0.21077074  0.36887686  0.29849529  1
  O  O317  1  0.29105753  0.38957991  0.75218370  1
  O  O318  1  0.24444517  0.86465023  0.24878129  1
  O  O319  1  0.22898146  0.89610778  0.75488788  1
  O  O320  1  0.74568342  0.37534276  0.24564672  1
  O  O321  1  0.73515094  0.37746523  0.73696113  1
  O  O322  1  0.78373018  0.88943589  0.26867312  1
  O  O323  1  0.74612097  0.89498416  0.74354443  1
  O  O324  1  0.25624060  0.13719869  0.24555145  1
  O  O325  1  0.24283147  0.10217991  0.74423068  1
  O  O326  1  0.23130125  0.64609527  0.24926412  1
  O  O327  1  0.26756288  0.58980424  0.70305396  1
  O  O328  1  0.76329627  0.11585886  0.25776173  1
  O  O329  1  0.75868568  0.11818931  0.74271612  1
  O  O330  1  0.75530738  0.60353144  0.24560565  1
  O  O331  1  0.73341779  0.60314096  0.74064139  1
  O  O332  1  0.38171922  0.13583827  0.35116571  1
  O  O333  1  0.36762938  0.11164971  0.89561497  1
  O  O334  1  0.40184244  0.61203620  0.36455231  1
  O  O335  1  0.38622743  0.61018099  0.87687021  1
  O  O336  1  0.86902204  0.12079015  0.37338400  1
  O  O337  1  0.87661122  0.12051049  0.85287619  1
  O  O338  1  0.86327697  0.60838650  0.36255543  1
  O  O339  1  0.86271463  0.63053231  0.86880842  1
  O  O340  1  0.07827522  0.32904557  0.20732398  1
  O  O341  1  0.14389907  0.40553102  0.63869598  1
  O  O342  1  0.12775913  0.86783682  0.13439956  1
  O  O343  1  0.11938947  0.88928225  0.64002178  1
  O  O344  1  0.63652398  0.36910711  0.13292302  1
  O  O345  1  0.61990227  0.38063393  0.63025564  1
  O  O346  1  0.61833158  0.87262158  0.11413676  1
  O  O347  1  0.63716401  0.89033974  0.62996904  1
  O  O348  1  0.10825020  0.26558351  0.24290464  1
  O  O349  1  0.12085424  0.24706488  0.75409367  1
  O  O350  1  0.08619961  0.74824490  0.24371588  1
  O  O351  1  0.10604584  0.76624848  0.75478252  1
  O  O352  1  0.63542432  0.25558475  0.26686073  1
  O  O353  1  0.61000679  0.25489009  0.74672896  1
  O  O354  1  0.64638528  0.80265437  0.26158723  1
  O  O355  1  0.63964720  0.77706812  0.75855567  1
  O  O356  1  0.35925078  0.26183809  0.22898238  1
  O  O357  1  0.38782910  0.23878714  0.74240790  1
  O  O358  1  0.37615333  0.73771956  0.22642589  1
  O  O359  1  0.37505079  0.76850273  0.75097044  1
  O  O360  1  0.87595896  0.23330776  0.26514480  1
  O  O361  1  0.89066643  0.24328383  0.74992783  1
  O  O362  1  0.86392795  0.73257519  0.22765527  1
  O  O363  1  0.88069203  0.75972410  0.74805374  1
  O  O364  1  0.36888181  0.49869187  0.48285645  1
  O  O365  1  0.39041807  0.47910360  1.01145728  1
  O  O366  1  0.41056514  0.99386570  0.49258700  1
  O  O367  1  0.36088682  0.98817730  0.99877766  1
  O  O368  1  0.88075012  0.49026644  0.48327917  1
  O  O369  1  0.88257362  0.47883508  1.00129491  1
  O  O370  1  0.88542588  0.99827825  0.50296628  1
  O  O371  1  0.87883427  1.01413565  0.98232202  1
  O  O372  1  0.10437885  0.01527822  -0.00585291  1
  O  O373  1  0.11084341  -0.00833680  0.51172621  1
  O  O374  1  0.09154039  0.49503762  -0.01099777  1
  O  O375  1  0.13294351  0.50466523  0.51305357  1
  O  O376  1  0.67777072  0.00368464  0.01118050  1
  O  O377  1  0.63452625  0.02088490  0.51632925  1
  O  O378  1  0.62027739  0.48943479  0.00354378  1
  O  O379  1  0.62703169  0.51565466  0.51595104  1
  O  O380  1  0.37659855  0.36090265  0.10900407  1
  O  O381  1  0.38763771  0.39378757  0.60648876  1
  O  O382  1  0.35410264  0.86976290  0.11229901  1
  O  O383  1  0.39959324  0.87839187  0.63822568  1
  O  O384  1  0.86391703  0.36663860  0.13204268  1
  O  O385  1  0.86090581  0.37866067  0.59620737  1
  O  O386  1  0.86249575  0.85809789  0.11557452  1
  O  O387  1  0.86668109  0.87702099  0.62564337  1
  O  O388  1  0.09864572  0.15708711  0.38376206  1
  O  O389  1  0.12103838  0.13125446  0.88622824  1
  O  O390  1  0.08681613  0.66510427  0.37965943  1
  O  O391  1  0.11043919  0.64863527  0.89176181  1
  O  O392  1  0.64075546  0.13311713  0.39857710  1
  O  O393  1  0.61954596  0.13284903  0.87278527  1
  O  O394  1  0.64055639  0.61214964  0.39767681  1
  O  O395  1  0.62306326  0.61051200  0.88970813  1
