# generated using pymatgen
data_V35Zn35O128
_symmetry_space_group_name_H-M   'P 1'
_cell_length_a   16.85085938
_cell_length_b   16.85569405
_cell_length_c   16.84771017
_cell_angle_alpha   90.07049138
_cell_angle_beta   90.03235398
_cell_angle_gamma   90.05071879
_symmetry_Int_Tables_number   1
_chemical_formula_structural   V35Zn35O128
_chemical_formula_sum   'V70 Zn70 O256'
_cell_volume   4785.29822514
_cell_formula_units_Z   2
loop_
 _symmetry_equiv_pos_site_id
 _symmetry_equiv_pos_as_xyz
  1  'x, y, z'
loop_
 _atom_site_type_symbol
 _atom_site_label
 _atom_site_symmetry_multiplicity
 _atom_site_fract_x
 _atom_site_fract_y
 _atom_site_fract_z
 _atom_site_occupancy
  V  V0  1  0.01619127  0.48296827  -0.00102729  1
  V  V1  1  0.11635793  0.24869785  0.85482565  1
  V  V2  1  0.74824210  0.24328588  0.49482436  1
  V  V3  1  0.10915386  0.76121253  0.86998928  1
  V  V4  1  0.88666609  0.12975995  0.23933561  1
  V  V5  1  0.37219616  -0.00805149  0.38619879  1
  V  V6  1  0.60754683  0.83745218  0.74526993  1
  V  V7  1  0.63205366  0.24254805  0.87034315  1
  V  V8  1  0.24663658  0.00118842  0.24753868  1
  V  V9  1  0.10865434  0.61849953  0.51410807  1
  V  V10  1  0.62119128  0.62549682  0.48780150  1
  V  V11  1  0.88523231  0.26377055  0.12238408  1
  V  V12  1  0.12075881  0.88173741  0.72274524  1
  V  V13  1  0.12789779  0.39195457  0.24402710  1
  V  V14  1  0.62616215  0.50639899  0.63928941  1
  V  V15  1  0.74286653  0.48212224  0.24142440  1
  V  V16  1  0.36310591  0.24299589  0.12415198  1
  V  V17  1  -0.01551269  0.62988380  0.64512124  1
  V  V18  1  0.24806800  0.12855548  0.38453410  1
  V  V19  1  0.76978484  0.86484058  0.62682040  1
  V  V20  1  0.38910735  0.88460280  -0.00639984  1
  V  V21  1  0.74481452  0.87611772  0.10691317  1
  V  V22  1  0.10757091  -0.00032534  0.11237158  1
  V  V23  1  0.88005814  0.37130510  0.50483758  1
  V  V24  1  0.23697830  0.49821871  0.73991113  1
  V  V25  1  0.61542766  0.01052715  0.11554389  1
  V  V26  1  0.86301730  0.62371152  0.24034259  1
  V  V27  1  0.38474296  0.12459249  0.25374260  1
  V  V28  1  0.26328699  0.11618508  0.87883071  1
  V  V29  1  0.24712266  0.73770433  -0.00215540  1
  V  V30  1  0.11515122  0.12962518  -0.00229826  1
  V  V31  1  0.75032153  0.63653641  0.91748926  1
  V  V32  1  0.49474559  0.48875019  0.49185757  1
  V  V33  1  0.12146743  0.24936844  0.36840568  1
  V  V34  1  0.75528586  0.11444787  0.89208867  1
  V  V35  1  0.11179194  0.87606292  0.25549994  1
  V  V36  1  0.37074608  0.36232793  -0.01708980  1
  V  V37  1  0.89149405  0.87519845  0.48654859  1
  V  V38  1  0.74848313  0.74823625  0.47895136  1
  V  V39  1  0.56292312  0.05321541  0.56261649  1
  V  V40  1  0.48506396  0.23785684  0.74105575  1
  V  V41  1  0.62329149  0.87901646  0.25628981  1
  V  V42  1  0.51095159  0.38081519  0.86429143  1
  V  V43  1  0.88780416  -0.01437535  0.88007057  1
  V  V44  1  0.50077350  0.13190045  0.10904972  1
  V  V45  1  0.87858220  0.13414422  0.74406131  1
  V  V46  1  0.74671766  0.00498846  0.73227648  1
  V  V47  1  0.26555020  0.35568677  0.63197605  1
  V  V48  1  0.49787242  0.87588422  0.38506614  1
  V  V49  1  0.11126678  0.11211695  0.50041951  1
  V  V50  1  0.24674565  0.61105561  0.38449321  1
  V  V51  1  0.88682777  0.00772009  0.37446331  1
  V  V52  1  -0.01068760  0.75243990  0.25129352  1
  V  V53  1  0.74703976  0.37941261  0.63189947  1
  V  V54  1  0.60132125  0.36826747  0.25205922  1
  V  V55  1  -0.00186750  0.37510098  0.36831597  1
  V  V56  1  0.25022642  0.87475731  0.12443463  1
  V  V57  1  0.02340450  0.62114884  0.12518178  1
  V  V58  1  0.75465233  0.27782276  0.00434826  1
  V  V59  1  0.27045658  -0.00489102  0.74038524  1
  V  V60  1  0.50211973  0.74506053  0.25473334  1
  V  V61  1  0.61371195  0.24627832  0.37834682  1
  V  V62  1  0.36820239  0.60386192  0.26116745  1
  V  V63  1  0.86984713  0.50640814  0.37924433  1
  V  V64  1  0.37492465  0.74788450  0.13904632  1
  V  V65  1  0.00202325  0.12558559  0.63337943  1
  V  V66  1  0.25574475  0.39802521  0.12419544  1
  V  V67  1  0.37085866  0.50866892  0.87192302  1
  V  V68  1  0.38391571  0.63656276  0.74105002  1
  V  V69  1  0.73795508  0.01764463  0.25986658  1
  Zn  Zn70  1  0.12808342  0.75312442  0.38440103  1
  Zn  Zn71  1  0.88033854  0.50255973  0.88734055  1
  Zn  Zn72  1  0.87171074  0.61814775  0.76521602  1
  Zn  Zn73  1  0.23880329  0.61828358  0.87946786  1
  Zn  Zn74  1  0.54951035  0.54905365  0.04362287  1
  Zn  Zn75  1  0.24346651  0.76966752  0.52845654  1
  Zn  Zn76  1  0.17774353  0.18312437  0.18710953  1
  Zn  Zn77  1  0.19297277  0.17204207  0.68806329  1
  Zn  Zn78  1  0.19904477  0.68814040  0.21332248  1
  Zn  Zn79  1  0.18669441  0.68740095  0.69573212  1
  Zn  Zn80  1  0.68370549  0.20074861  0.18369595  1
  Zn  Zn81  1  0.68465713  0.19001351  0.67707225  1
  Zn  Zn82  1  0.68979665  0.69213315  0.18339448  1
  Zn  Zn83  1  0.69146619  0.68932378  0.67006959  1
  Zn  Zn84  1  0.30062454  0.30466849  0.29876398  1
  Zn  Zn85  1  0.29572881  0.29505442  0.80087508  1
  Zn  Zn86  1  0.29680597  0.81149610  0.33906370  1
  Zn  Zn87  1  0.31110130  0.82012545  0.80955454  1
  Zn  Zn88  1  0.81162022  0.30843753  0.31297437  1
  Zn  Zn89  1  0.80494547  0.30772590  0.81086317  1
  Zn  Zn90  1  0.80923284  0.82106586  0.30669765  1
  Zn  Zn91  1  0.77932731  0.81865774  0.84046105  1
  Zn  Zn92  1  0.17938365  0.44070660  0.44143002  1
  Zn  Zn93  1  0.18624031  0.42936216  0.93668930  1
  Zn  Zn94  1  0.18802632  0.93435156  0.44610473  1
  Zn  Zn95  1  0.19518944  0.93669629  0.93492568  1
  Zn  Zn96  1  0.68652173  0.43440735  0.43527779  1
  Zn  Zn97  1  0.66159137  0.48784027  0.90031891  1
  Zn  Zn98  1  0.69373000  0.94527503  0.43991973  1
  Zn  Zn99  1  0.65172896  0.93367606  0.92282143  1
  Zn  Zn100  1  0.30883168  0.06079599  0.05893462  1
  Zn  Zn101  1  0.36314650  0.06929166  0.58263161  1
  Zn  Zn102  1  0.37835778  0.55426595  0.06838761  1
  Zn  Zn103  1  0.31350374  0.56629886  0.56449632  1
  Zn  Zn104  1  0.81720782  0.04402117  0.06788317  1
  Zn  Zn105  1  0.82239689  0.06226048  0.55998931  1
  Zn  Zn106  1  0.82032200  0.53824551  0.06307220  1
  Zn  Zn107  1  0.80999568  0.56687889  0.56199513  1
  Zn  Zn108  1  0.44301840  0.42577352  0.18922726  1
  Zn  Zn109  1  0.43987508  0.44154733  0.68343491  1
  Zn  Zn110  1  0.43820862  0.93931570  0.18966249  1
  Zn  Zn111  1  0.44267386  0.93632596  0.68648104  1
  Zn  Zn112  1  0.94359400  0.44351739  0.18568845  1
  Zn  Zn113  1  0.92574397  0.46403592  0.68036615  1
  Zn  Zn114  1  0.92548951  0.93923168  0.18506412  1
  Zn  Zn115  1  0.93913144  0.94849498  0.68588316  1
  Zn  Zn116  1  0.06176829  0.06372692  0.30537379  1
  Zn  Zn117  1  0.07159309  0.05167614  0.81224641  1
  Zn  Zn118  1  0.05688467  0.56615857  0.31841971  1
  Zn  Zn119  1  0.06259442  0.57015880  0.81890458  1
  Zn  Zn120  1  0.55881930  0.06979495  0.34475210  1
  Zn  Zn121  1  0.55955660  0.05649799  0.81289140  1
  Zn  Zn122  1  0.56549124  0.55881132  0.31609317  1
  Zn  Zn123  1  0.56739003  0.66243207  0.82668039  1
  Zn  Zn124  1  0.45032086  0.19129038  0.47071822  1
  Zn  Zn125  1  0.44265511  0.19345737  0.93265550  1
  Zn  Zn126  1  0.43969305  0.68342054  0.43944321  1
  Zn  Zn127  1  0.43860494  0.70050052  0.94779495  1
  Zn  Zn128  1  0.93561292  0.19080700  0.43169820  1
  Zn  Zn129  1  0.93795646  0.18490084  0.94233575  1
  Zn  Zn130  1  0.93883886  0.69097864  0.43406599  1
  Zn  Zn131  1  0.94591292  0.68251020  0.94203516  1
  Zn  Zn132  1  0.07057725  0.30846658  0.06666154  1
  Zn  Zn133  1  0.06281150  0.30080308  0.55454797  1
  Zn  Zn134  1  0.06973085  0.79742638  0.07360325  1
  Zn  Zn135  1  0.05840283  0.80028040  0.56632451  1
  Zn  Zn136  1  0.59091447  0.36916073  0.03756211  1
  Zn  Zn137  1  0.56704720  0.31769743  0.56547251  1
  Zn  Zn138  1  0.56423548  0.81138261  0.06921534  1
  Zn  Zn139  1  0.59954322  0.84952454  0.54513878  1
  O  O140  1  0.12915412  0.10690247  0.11528632  1
  O  O141  1  0.11838235  0.12482674  0.60745706  1
  O  O142  1  0.12139054  0.63008145  0.14514619  1
  O  O143  1  0.11096411  0.63401948  0.61985778  1
  O  O144  1  0.60860462  0.12326021  0.13392920  1
  O  O145  1  0.62052842  0.11595900  0.61782174  1
  O  O146  1  0.61395305  0.65242531  0.09585943  1
  O  O147  1  0.64417414  0.61030578  0.60640588  1
  O  O148  1  0.36188687  0.37060839  0.38665692  1
  O  O149  1  0.36181195  0.35881486  0.88104216  1
  O  O150  1  0.38325730  0.88578645  0.36526971  1
  O  O151  1  0.37422670  0.86845172  0.89566274  1
  O  O152  1  0.88129007  0.38144751  0.37723858  1
  O  O153  1  0.91559500  0.36469604  0.84881939  1
  O  O154  1  0.86978691  0.89157145  0.37766082  1
  O  O155  1  0.86586222  0.88725001  0.86728358  1
  O  O156  1  0.25552120  0.00452971  0.36546641  1
  O  O157  1  0.25084346  0.00778242  0.86671997  1
  O  O158  1  0.25336839  0.50993481  0.38589902  1
  O  O159  1  0.25847438  0.49453196  0.86631784  1
  O  O160  1  0.75267209  0.00432600  0.36319326  1
  O  O161  1  0.75043136  0.01230524  0.86366818  1
  O  O162  1  0.76453069  0.49484652  0.36169875  1
  O  O163  1  0.76643663  0.52317343  0.88262074  1
  O  O164  1  0.27284759  0.49386087  0.11962588  1
  O  O165  1  0.25144409  0.49587169  0.63738214  1
  O  O166  1  0.24370675  0.99147103  0.13354975  1
  O  O167  1  0.27946709  1.01495794  0.63916507  1
  O  O168  1  0.74956288  0.49897670  0.14302360  1
  O  O169  1  0.74434858  0.48836501  0.61628753  1
  O  O170  1  0.72853410  1.00158858  0.13854367  1
  O  O171  1  0.75734209  0.99346687  0.62773378  1
  O  O172  1  0.01794317  0.37798401  0.25172700  1
  O  O173  1  -0.03405794  0.36587467  0.79376877  1
  O  O174  1  -0.00170080  0.86472033  0.23976350  1
  O  O175  1  0.01892869  0.88255315  0.73353834  1
  O  O176  1  0.50186261  0.37146403  0.26810870  1
  O  O177  1  0.48647841  0.36008023  0.76322184  1
  O  O178  1  0.50706782  0.87057330  0.25673909  1
  O  O179  1  0.51299922  0.87054179  0.74599935  1
  O  O180  1  0.48366578  0.11753393  0.26047255  1
  O  O181  1  0.51206727  0.14004918  0.75884948  1
  O  O182  1  0.49276827  0.64105023  0.26358109  1
  O  O183  1  0.48216752  0.61852731  0.76265575  1
  O  O184  1  0.98664784  0.12607840  0.24482642  1
  O  O185  1  0.99196138  0.11958588  0.74230193  1
  O  O186  1  0.99199865  0.63132545  0.24377312  1
  O  O187  1  0.99358726  0.63563765  0.74936439  1
  O  O188  1  0.37445605  0.25701975  0.00842533  1
  O  O189  1  0.36512561  0.33402371  0.45136355  1
  O  O190  1  0.36509330  0.76039418  0.02205091  1
  O  O191  1  0.37723411  0.75171681  0.51714925  1
  O  O192  1  0.86526798  0.24392570  0.01221680  1
  O  O193  1  0.86774176  0.26517732  0.49375525  1
  O  O194  1  0.90827256  0.79830935  0.00364207  1
  O  O195  1  0.86477557  0.76855776  0.47971246  1
  O  O196  1  0.12083848  0.23233896  0.47638535  1
  O  O197  1  0.12950941  0.23044968  1.00646411  1
  O  O198  1  0.12790774  0.73462142  0.49843105  1
  O  O199  1  0.14046840  0.75444100  0.99588535  1
  O  O200  1  0.63854443  0.25871202  0.49046488  1
  O  O201  1  0.64244037  0.27325871  0.98110589  1
  O  O202  1  0.64114606  0.74250145  0.50854043  1
  O  O203  1  0.61341016  0.70810291  1.03898394  1
  O  O204  1  0.48154253  0.23119586  0.12914829  1
  O  O205  1  0.51481987  0.25564674  0.64495094  1
  O  O206  1  0.48380954  0.75683928  0.14261382  1
  O  O207  1  0.41751701  0.78884907  0.57978507  1
  O  O208  1  0.98440690  0.24910150  0.11940336  1
  O  O209  1  1.00150414  0.22912739  0.61578371  1
  O  O210  1  0.99938378  0.73630009  0.14204936  1
  O  O211  1  0.98575411  0.72944841  0.61367439  1
  O  O212  1  0.00440040  0.26453016  0.36997388  1
  O  O213  1  0.01682278  0.23805754  0.88004114  1
  O  O214  1  0.01015581  0.74298903  0.35476406  1
  O  O215  1  0.00963321  0.75584383  0.88034339  1
  O  O216  1  0.51247539  0.24392482  0.39351298  1
  O  O217  1  0.51901000  0.25502204  0.86599256  1
  O  O218  1  0.48918034  0.76542222  0.36364365  1
  O  O219  1  0.52652207  0.74100002  0.89722409  1
  O  O220  1  0.23625832  0.11911690  0.48303867  1
  O  O221  1  0.23749710  0.11144877  0.98703846  1
  O  O222  1  0.25280316  0.63555262  0.48815549  1
  O  O223  1  0.25976560  0.63862922  1.00515405  1
  O  O224  1  0.76151505  0.14472734  0.50979753  1
  O  O225  1  0.75342907  0.11612635  0.99088186  1
  O  O226  1  0.75512977  0.64402618  0.49389676  1
  O  O227  1  0.75616669  0.62075702  1.01711157  1
  O  O228  1  0.25997798  0.37181139  0.01659376  1
  O  O229  1  0.21498063  0.36629183  0.52839224  1
  O  O230  1  0.25878809  0.87006162  0.01507311  1
  O  O231  1  0.24685188  0.84229825  0.44338727  1
  O  O232  1  0.76871457  0.37245384  -0.00665090  1
  O  O233  1  0.76367067  0.37077353  0.50371730  1
  O  O234  1  0.71757415  0.88563547  0.00886321  1
  O  O235  1  0.74837340  0.86626862  0.50873308  1
  O  O236  1  0.12648571  0.49021751  0.25537119  1
  O  O237  1  0.13866875  0.50504853  0.75761135  1
  O  O238  1  0.12569252  0.99279826  0.23694642  1
  O  O239  1  0.13709167  0.98745883  0.74292827  1
  O  O240  1  0.63444795  0.48523666  0.25925844  1
  O  O241  1  0.62948775  0.51367403  0.73556959  1
  O  O242  1  0.62928221  1.00051793  0.25663646  1
  O  O243  1  0.64749705  1.00293538  0.74408980  1
  O  O244  1  0.36361972  0.00805131  0.25307780  1
  O  O245  1  0.36933001  -0.01888870  0.76205074  1
  O  O246  1  0.39171722  0.50850881  0.26045708  1
  O  O247  1  0.36640803  0.50095343  0.76037235  1
  O  O248  1  0.86059200  0.01017634  0.25625326  1
  O  O249  1  0.86687709  0.01274255  0.75821120  1
  O  O250  1  0.86569688  0.50801711  0.25414510  1
  O  O251  1  0.87788893  0.50307805  0.77209193  1
  O  O252  1  0.12130465  0.37102427  0.36598381  1
  O  O253  1  0.13803555  0.34696443  0.87500899  1
  O  O254  1  0.11434247  0.88351580  0.35513683  1
  O  O255  1  0.12885730  0.86334696  0.88067312  1
  O  O256  1  0.63073969  0.36196243  0.36484815  1
  O  O257  1  0.61295987  0.38296333  0.86510256  1
  O  O258  1  0.60897939  0.88708591  0.36816534  1
  O  O259  1  0.66183205  0.85722441  0.83186419  1
  O  O260  1  0.38148799  0.12075919  0.13570671  1
  O  O261  1  0.37761299  0.17391254  0.54812897  1
  O  O262  1  0.36654103  0.64134957  0.15107008  1
  O  O263  1  0.37668845  0.62585499  0.64074488  1
  O  O264  1  0.87011738  0.12034684  0.13748231  1
  O  O265  1  0.88385194  0.12651970  0.63653266  1
  O  O266  1  0.88217755  0.61977057  0.14151797  1
  O  O267  1  0.87633112  0.61762418  0.63933723  1
  O  O268  1  0.26108796  0.23912646  0.12815557  1
  O  O269  1  0.25858200  0.25600716  0.64366612  1
  O  O270  1  0.25551549  0.75774084  0.12861246  1
  O  O271  1  0.25807084  0.74840114  0.63473644  1
  O  O272  1  0.75264768  0.25340551  0.10835892  1
  O  O273  1  0.74198416  0.26888298  0.61052887  1
  O  O274  1  0.74254495  0.77706937  0.12867822  1
  O  O275  1  0.76739270  0.76257513  0.61539986  1
  O  O276  1  0.24478700  0.23342795  0.37139268  1
  O  O277  1  0.23461169  0.22338706  0.86592415  1
  O  O278  1  0.22905550  0.72048529  0.33174433  1
  O  O279  1  0.25639574  0.75031191  0.89495790  1
  O  O280  1  0.74874625  0.25260032  0.38986583  1
  O  O281  1  0.75291071  0.24064697  0.88869423  1
  O  O282  1  0.74084351  0.76207137  0.38016102  1
  O  O283  1  0.74470661  0.73829626  0.91319034  1
  O  O284  1  0.01529611  0.11806731  -0.00059726  1
  O  O285  1  0.00746226  0.12422660  0.49599837  1
  O  O286  1  0.00945765  0.63638604  0.02418770  1
  O  O287  1  0.00755270  0.62212642  0.49479950  1
  O  O288  1  0.49833266  0.12771761  0.00988736  1
  O  O289  1  0.52796755  0.10171392  0.48053169  1
  O  O290  1  0.46319032  0.61449717  0.01384409  1
  O  O291  1  0.51819495  0.62713332  0.50129495  1
  O  O292  1  0.50632654  0.38776472  0.50012739  1
  O  O293  1  0.48237485  0.36423197  0.97590686  1
  O  O294  1  0.50321962  0.86563160  0.48433108  1
  O  O295  1  0.48896474  0.86912237  1.01066315  1
  O  O296  1  0.98735405  0.37160895  0.48914691  1
  O  O297  1  1.01227355  0.38236579  1.00347112  1
  O  O298  1  0.98953109  0.86852040  0.49193697  1
  O  O299  1  0.96408890  0.84666028  1.01512135  1
  O  O300  1  0.50102861  0.50475837  0.39114763  1
  O  O301  1  0.47848211  0.48043815  0.86666002  1
  O  O302  1  0.48258900  0.98871270  0.37201751  1
  O  O303  1  0.55276844  0.97545460  0.88521052  1
  O  O304  1  0.98464696  0.48649221  0.36547349  1
  O  O305  1  1.00188838  0.51025113  0.89404780  1
  O  O306  1  0.98543676  0.99906716  0.36336970  1
  O  O307  1  0.98720163  0.99675918  0.86638409  1
  O  O308  1  0.00891688  -0.00807061  0.12436010  1
  O  O309  1  -0.00670499  0.02380953  0.61523825  1
  O  O310  1  0.00652486  0.51264546  0.11791407  1
  O  O311  1  0.00195461  0.52547861  0.62631815  1
  O  O312  1  0.50756238  0.01469855  0.13484996  1
  O  O313  1  0.47538522  0.01841061  0.61319693  1
  O  O314  1  0.47304644  0.50016981  0.11476362  1
  O  O315  1  0.52058075  0.49542144  0.61764776  1
  O  O316  1  0.24317626  0.37995882  0.23803238  1
  O  O317  1  0.25043843  0.38413828  0.73884115  1
  O  O318  1  0.23366338  0.88325263  0.24582183  1
  O  O319  1  0.24219764  0.88793190  0.74836644  1
  O  O320  1  0.75087882  0.38140730  0.24701508  1
  O  O321  1  0.76543942  0.37482869  0.73095429  1
  O  O322  1  0.73609102  0.88915105  0.24535226  1
  O  O323  1  0.77581038  0.88986325  0.72984446  1
  O  O324  1  0.24964732  0.11270319  0.25567549  1
  O  O325  1  0.24880341  0.10514402  0.76297675  1
  O  O326  1  0.26376820  0.59859917  0.25840093  1
  O  O327  1  0.25895603  0.60996139  0.75540180  1
  O  O328  1  0.74902776  0.11762651  0.24488500  1
  O  O329  1  0.76133605  0.11803324  0.74193801  1
  O  O330  1  0.75853778  0.62347695  0.24549542  1
  O  O331  1  0.75798929  0.66893735  0.76648107  1
  O  O332  1  0.36191215  0.11320797  0.36625436  1
  O  O333  1  0.36312696  0.12779743  0.88505869  1
  O  O334  1  0.36223153  0.63476599  0.36753041  1
  O  O335  1  0.36901008  0.61108208  0.87681099  1
  O  O336  1  0.87648854  0.11641368  0.36146208  1
  O  O337  1  0.86445231  0.12038752  0.86692172  1
  O  O338  1  0.88211281  0.61068264  0.36456027  1
  O  O339  1  0.86243747  0.63457974  0.88647638  1
  O  O340  1  0.14134505  0.37610349  0.13467683  1
  O  O341  1  0.15235412  0.37151401  0.58950321  1
  O  O342  1  0.12983115  0.88430766  0.12892918  1
  O  O343  1  0.13152107  0.87018265  0.62202039  1
  O  O344  1  0.60802967  0.36460862  0.15023353  1
  O  O345  1  0.63998490  0.38933903  0.62551040  1
  O  O346  1  0.62188725  0.89312447  0.13704070  1
  O  O347  1  0.64860587  0.86274766  0.64810794  1
  O  O348  1  0.13128435  0.25800632  0.26063221  1
  O  O349  1  0.11926844  0.23580392  0.75410683  1
  O  O350  1  0.11161835  0.77037295  0.24160880  1
  O  O351  1  0.13083025  0.77077995  0.76121881  1
  O  O352  1  0.62542483  0.25995425  0.26383725  1
  O  O353  1  0.64635573  0.25557616  0.77015123  1
  O  O354  1  0.60908288  0.75947109  0.24352109  1
  O  O355  1  0.60597047  0.73389625  0.73683172  1
  O  O356  1  0.36940525  0.22962259  0.24539789  1
  O  O357  1  0.38541634  0.23886298  0.75082126  1
  O  O358  1  0.38016190  0.75674596  0.24734372  1
  O  O359  1  0.37018957  0.73515631  0.76203056  1
  O  O360  1  0.86418796  0.23678313  0.23599421  1
  O  O361  1  0.87303165  0.23262620  0.75645699  1
  O  O362  1  0.88050348  0.73963900  0.25870114  1
  O  O363  1  0.81481157  0.73093811  0.76252556  1
  O  O364  1  0.39639611  0.50910537  0.51002063  1
  O  O365  1  0.36702174  0.47615606  0.97775351  1
  O  O366  1  0.36309800  0.99636016  0.48343533  1
  O  O367  1  0.37650788  0.98384548  1.01138183  1
  O  O368  1  0.86804252  0.49207776  0.48378060  1
  O  O369  1  0.90115309  0.49582665  1.00142688  1
  O  O370  1  0.87139978  0.99336503  0.48141702  1
  O  O371  1  0.87380454  1.00295888  0.97975761  1
  O  O372  1  0.12482948  -0.00295484  0.01036075  1
  O  O373  1  0.12173999  0.01250571  0.48709666  1
  O  O374  1  0.11890012  0.50032447  -0.00300471  1
  O  O375  1  0.13306471  0.52037858  0.50775652  1
  O  O376  1  0.62260058  0.01061060  0.01881063  1
  O  O377  1  0.61918933  -0.02695292  0.52336390  1
  O  O378  1  0.62020130  0.47428274  0.00557458  1
  O  O379  1  0.62207542  0.51181054  0.49768051  1
  O  O380  1  0.36350646  0.36168272  0.12682320  1
  O  O381  1  0.36370841  0.37753267  0.62086525  1
  O  O382  1  0.36489908  0.86790149  0.13156301  1
  O  O383  1  0.37879196  0.84904385  0.60887178  1
  O  O384  1  0.87865362  0.36293684  0.13448417  1
  O  O385  1  0.87278407  0.38633901  0.60892225  1
  O  O386  1  0.84399948  0.90352672  0.11546996  1
  O  O387  1  0.87291131  0.88718699  0.59991673  1
  O  O388  1  0.13229807  0.12650782  0.37184800  1
  O  O389  1  0.12741064  0.12463904  0.88579394  1
  O  O390  1  0.13380577  0.61857517  0.38626321  1
  O  O391  1  0.13017274  0.65238004  0.86771534  1
  O  O392  1  0.63650096  0.14636593  0.36687890  1
  O  O393  1  0.64221990  0.13764993  0.87530885  1
  O  O394  1  0.63058523  0.62701599  0.38741891  1
  O  O395  1  0.64688890  0.60661023  0.88650875  1
