# generated using pymatgen
data_V35Zn35O128
_symmetry_space_group_name_H-M   'P 1'
_cell_length_a   16.85427694
_cell_length_b   16.86416054
_cell_length_c   16.86300579
_cell_angle_alpha   90.16924986
_cell_angle_beta   89.92938325
_cell_angle_gamma   90.04563721
_symmetry_Int_Tables_number   1
_chemical_formula_structural   V35Zn35O128
_chemical_formula_sum   'V70 Zn70 O256'
_cell_volume   4793.00058087
_cell_formula_units_Z   2
loop_
 _symmetry_equiv_pos_site_id
 _symmetry_equiv_pos_as_xyz
  1  'x, y, z'
loop_
 _atom_site_type_symbol
 _atom_site_label
 _atom_site_symmetry_multiplicity
 _atom_site_fract_x
 _atom_site_fract_y
 _atom_site_fract_z
 _atom_site_occupancy
  V  V0  1  0.87071820  0.49790578  0.86075916  1
  V  V1  1  0.63589014  0.25629582  0.86819183  1
  V  V2  1  0.00508311  0.37832744  0.86575894  1
  V  V3  1  0.37697272  0.87427593  0.00500333  1
  V  V4  1  0.87972584  0.75374245  0.13329485  1
  V  V5  1  0.50324106  0.88624262  0.86887750  1
  V  V6  1  0.13712266  0.23411189  0.39151541  1
  V  V7  1  0.62376380  0.26649472  0.37445698  1
  V  V8  1  0.22642397  0.24856005  0.00887518  1
  V  V9  1  0.24845976  0.87598877  0.12583557  1
  V  V10  1  0.50939803  0.37087917  0.87932261  1
  V  V11  1  0.12152484  0.50189039  0.61383272  1
  V  V12  1  -0.00148483  0.51781396  0.49750375  1
  V  V13  1  0.11956238  0.74352129  0.87374298  1
  V  V14  1  0.00405597  0.63595077  0.13687987  1
  V  V15  1  0.75659862  0.62125902  0.35822321  1
  V  V16  1  0.25878057  0.51804466  0.25332975  1
  V  V17  1  0.01249475  0.00415458  0.50422611  1
  V  V18  1  0.74505130  0.12862082  0.37702756  1
  V  V19  1  0.49794909  0.01544726  0.00533003  1
  V  V20  1  0.00079656  0.86142173  0.35362679  1
  V  V21  1  0.00334485  0.87473013  0.86602392  1
  V  V22  1  -0.01088475  0.50680735  0.00392092  1
  V  V23  1  0.49857208  0.24730012  0.23952181  1
  V  V24  1  0.50123341  0.75204518  0.22091858  1
  V  V25  1  0.62224678  0.87884247  0.26857833  1
  V  V26  1  0.59379018  0.71051928  0.87027878  1
  V  V27  1  0.87636325  0.00653532  0.85631191  1
  V  V28  1  0.24816998  0.62074235  0.87000723  1
  V  V29  1  0.74677456  0.26198961  0.49474793  1
  V  V30  1  0.00608110  0.00769442  0.00019395  1
  V  V31  1  0.36568606  0.00694749  0.87224639  1
  V  V32  1  0.73192080  0.46238709  0.23393247  1
  V  V33  1  0.14059955  0.87881342  0.74548330  1
  V  V34  1  0.01788482  0.38263241  0.37324594  1
  V  V35  1  -0.00035479  0.12806319  0.12745582  1
  V  V36  1  0.24399101  0.12781134  0.87987042  1
  V  V37  1  0.00600804  0.25024650  0.25428789  1
  V  V38  1  0.22977958  0.47973709  0.75598339  1
  V  V39  1  0.89276774  0.74146370  0.62924279  1
  V  V40  1  0.24962150  -0.00573667  0.27018603  1
  V  V41  1  0.12159844  0.25381549  0.85311841  1
  V  V42  1  0.74396138  0.88424394  0.11526217  1
  V  V43  1  0.76944540  0.26150490  0.01382402  1
  V  V44  1  0.24103908  0.37530310  0.13848816  1
  V  V45  1  0.49819597  0.00316202  0.50520871  1
  V  V46  1  0.37387460  0.37268559  0.00621112  1
  V  V47  1  0.88256691  0.24813956  0.63328979  1
  V  V48  1  0.87383123  0.87337126  -0.00500858  1
  V  V49  1  0.12651326  0.00041308  0.12835091  1
  V  V50  1  0.74919295  0.38779759  0.64581892  1
  V  V51  1  0.70369661  0.69686694  0.04074352  1
  V  V52  1  0.63144973  0.88787576  0.74364133  1
  V  V53  1  0.12935944  0.50649456  0.12221850  1
  V  V54  1  0.25061609  0.74703625  -0.00146550  1
  V  V55  1  0.26138946  0.87375529  0.60959699  1
  V  V56  1  0.37760857  0.49459272  0.86799835  1
  V  V57  1  0.75739312  0.12692310  0.85987013  1
  V  V58  1  0.62761002  0.51249697  0.63912399  1
  V  V59  1  0.63423033  0.12769332  0.00462043  1
  V  V60  1  0.51014446  0.50720840  0.51345207  1
  V  V61  1  0.36335803  0.72021712  0.64636283  1
  V  V62  1  0.72936924  0.74122489  0.50460638  1
  V  V63  1  0.38203940  0.52280867  0.37193573  1
  V  V64  1  0.48298389  0.37267487  0.38162634  1
  V  V65  1  0.87891530  0.00225289  0.37436286  1
  V  V66  1  0.87190234  0.38597358  0.48470691  1
  V  V67  1  0.36697719  0.12247391  0.27134018  1
  V  V68  1  0.76643114  0.63360458  0.86249638  1
  V  V69  1  0.36364129  0.23745033  0.12451508  1
  Zn  Zn70  1  0.87032251  0.86985467  0.50212342  1
  Zn  Zn71  1  0.74520589  0.00865360  0.24685840  1
  Zn  Zn72  1  0.42887623  0.20940242  0.66710394  1
  Zn  Zn73  1  0.86920017  0.13634930  0.24526207  1
  Zn  Zn74  1  0.24905107  0.01643637  0.72908666  1
  Zn  Zn75  1  0.61931655  0.00701912  0.12819973  1
  Zn  Zn76  1  0.18134063  0.18253683  0.20174009  1
  Zn  Zn77  1  0.23498458  0.22201477  0.70360998  1
  Zn  Zn78  1  0.20321960  0.67844386  0.17206634  1
  Zn  Zn79  1  0.17928936  0.68654448  0.68549027  1
  Zn  Zn80  1  0.69010819  0.20403888  0.18945954  1
  Zn  Zn81  1  0.70355340  0.20637492  0.68784849  1
  Zn  Zn82  1  0.64830789  0.66537298  0.21874222  1
  Zn  Zn83  1  0.69205134  0.69643112  0.69184813  1
  Zn  Zn84  1  0.30606515  0.31201741  0.31458359  1
  Zn  Zn85  1  0.31795898  0.31105528  0.81830151  1
  Zn  Zn86  1  0.31378634  0.79697683  0.29453816  1
  Zn  Zn87  1  0.32078917  0.80574818  0.81117104  1
  Zn  Zn88  1  0.81727959  0.31931332  0.30636855  1
  Zn  Zn89  1  0.82280819  0.31524526  0.82060164  1
  Zn  Zn90  1  0.79535879  0.81299969  0.31720792  1
  Zn  Zn91  1  0.81419115  0.81404877  0.80481134  1
  Zn  Zn92  1  0.19695585  0.44034523  0.44064565  1
  Zn  Zn93  1  0.18391747  0.43285138  0.94444650  1
  Zn  Zn94  1  0.17315926  0.90037614  0.44036011  1
  Zn  Zn95  1  0.18557803  0.93365170  0.94063756  1
  Zn  Zn96  1  0.68384602  0.46301939  0.42259920  1
  Zn  Zn97  1  0.69548209  0.44452627  0.96143886  1
  Zn  Zn98  1  0.70192543  0.93959415  0.45853047  1
  Zn  Zn99  1  0.69092363  0.94587637  0.93009658  1
  Zn  Zn100  1  0.30605516  0.06312258  0.05831985  1
  Zn  Zn101  1  0.31959136  0.07896655  0.56947493  1
  Zn  Zn102  1  0.30880391  0.55625445  0.05321656  1
  Zn  Zn103  1  0.31349833  0.52632137  0.56698891  1
  Zn  Zn104  1  0.81823021  0.06488854  0.05612252  1
  Zn  Zn105  1  0.81099467  0.06757801  0.55967966  1
  Zn  Zn106  1  0.82125922  0.55446501  0.09266425  1
  Zn  Zn107  1  0.80995601  0.57180131  0.56271259  1
  Zn  Zn108  1  0.43769605  0.43086199  0.18966276  1
  Zn  Zn109  1  0.44796444  0.40880091  0.68523029  1
  Zn  Zn110  1  0.43708944  0.94169970  0.19019518  1
  Zn  Zn111  1  0.42417432  0.93419312  0.68944643  1
  Zn  Zn112  1  0.93213886  0.42888330  0.18422796  1
  Zn  Zn113  1  0.93922939  0.43867865  0.67914176  1
  Zn  Zn114  1  0.92678316  0.94741048  0.18760385  1
  Zn  Zn115  1  0.93770153  0.92164626  0.67757079  1
  Zn  Zn116  1  0.06941095  0.06308130  0.31680397  1
  Zn  Zn117  1  0.07248386  0.06020101  0.81578900  1
  Zn  Zn118  1  0.06700482  0.56738156  0.30985307  1
  Zn  Zn119  1  0.05264227  0.56998839  0.80714028  1
  Zn  Zn120  1  0.56600115  0.07346851  0.30980465  1
  Zn  Zn121  1  0.55961929  0.07505297  0.72278923  1
  Zn  Zn122  1  0.57049489  0.55679414  0.30834371  1
  Zn  Zn123  1  0.57592932  0.54406804  0.83262351  1
  Zn  Zn124  1  0.42927295  0.19531530  0.44893623  1
  Zn  Zn125  1  0.47355944  0.15495012  0.86724580  1
  Zn  Zn126  1  0.43022321  0.67990905  0.47422773  1
  Zn  Zn127  1  0.42963220  0.68653393  0.92583415  1
  Zn  Zn128  1  0.94000318  0.19030142  0.44363621  1
  Zn  Zn129  1  0.94559207  0.18769319  0.93410325  1
  Zn  Zn130  1  0.91816283  0.68787980  0.42800524  1
  Zn  Zn131  1  0.93915433  0.68372531  0.94167638  1
  Zn  Zn132  1  0.04457931  0.32783019  0.07030711  1
  Zn  Zn133  1  0.06388772  0.32181764  0.56423305  1
  Zn  Zn134  1  0.06402396  0.81742960  0.05907519  1
  Zn  Zn135  1  0.05034380  0.81062051  0.53962328  1
  Zn  Zn136  1  0.52652582  0.25450574  0.02414444  1
  Zn  Zn137  1  0.56241655  0.32116330  0.56850147  1
  Zn  Zn138  1  0.56369658  0.81663510  0.04507295  1
  Zn  Zn139  1  0.54571757  0.79291443  0.57124283  1
  O  O140  1  0.11756864  0.10933894  0.13274116  1
  O  O141  1  0.06618181  0.12751213  0.65886332  1
  O  O142  1  0.11278625  0.62746656  0.12966240  1
  O  O143  1  0.11945121  0.60386813  0.63998689  1
  O  O144  1  0.63303759  0.12725378  0.10835737  1
  O  O145  1  0.61432090  0.14537796  0.63397469  1
  O  O146  1  0.64381375  0.64997072  0.10389611  1
  O  O147  1  0.62966906  0.61208101  0.63589609  1
  O  O148  1  0.38131273  0.37341541  0.37953990  1
  O  O149  1  0.38183602  0.37386894  0.88774777  1
  O  O150  1  0.38114792  0.82325463  0.39817724  1
  O  O151  1  0.38020617  0.88588356  0.88460353  1
  O  O152  1  0.88791997  0.37705274  0.38213601  1
  O  O153  1  0.89203360  0.38771478  0.88012046  1
  O  O154  1  0.86409883  0.89745903  0.36409638  1
  O  O155  1  0.88373075  0.88640508  0.87558622  1
  O  O156  1  0.24523039  -0.02379088  0.36616348  1
  O  O157  1  0.25639751  0.00956728  0.88918926  1
  O  O158  1  0.26657255  0.50736096  0.36262441  1
  O  O159  1  0.25359755  0.49914871  0.87220794  1
  O  O160  1  0.74877692  0.02114340  0.37996194  1
  O  O161  1  0.76934143  0.00965262  0.87193563  1
  O  O162  1  0.76209312  0.48361039  0.33537936  1
  O  O163  1  0.76758156  0.50288205  0.88667592  1
  O  O164  1  0.25102021  0.49639055  0.13408603  1
  O  O165  1  0.23408529  0.50192323  0.65134929  1
  O  O166  1  0.24182398  0.99251397  0.12409852  1
  O  O167  1  0.26730139  0.98176617  0.62136157  1
  O  O168  1  0.73667842  0.48844436  0.12448852  1
  O  O169  1  0.74110939  0.49607501  0.62482823  1
  O  O170  1  0.75020345  0.99573829  0.12382597  1
  O  O171  1  0.72736415  0.99267177  0.55783661  1
  O  O172  1  0.00060807  0.36971428  0.26623209  1
  O  O173  1  0.00287890  0.39066844  0.76669791  1
  O  O174  1  -0.01427662  0.87933408  0.25364128  1
  O  O175  1  0.01560402  0.88063672  0.76156924  1
  O  O176  1  0.48600091  0.35198626  0.26164365  1
  O  O177  1  0.49851988  0.36446157  0.78156480  1
  O  O178  1  0.51226156  0.87094062  0.24315365  1
  O  O179  1  0.49810601  0.88702953  0.76615635  1
  O  O180  1  0.48220050  0.13713527  0.26038170  1
  O  O181  1  0.49313508  0.15345686  0.75612640  1
  O  O182  1  0.53301569  0.65304980  0.25110492  1
  O  O183  1  0.51612183  0.64441705  0.85067860  1
  O  O184  1  1.00151608  0.13468854  0.24824753  1
  O  O185  1  1.01874016  0.11775751  0.71504500  1
  O  O186  1  0.99569343  0.62170885  0.23521379  1
  O  O187  1  0.99385082  0.64034649  0.74761167  1
  O  O188  1  0.35436174  0.25751843  0.01423445  1
  O  O189  1  0.37279692  0.18191262  0.54426676  1
  O  O190  1  0.36454831  0.76388087  -0.01306952  1
  O  O191  1  0.29561665  0.68988379  0.48126635  1
  O  O192  1  0.86706963  0.24463258  -0.00881470  1
  O  O193  1  0.86760579  0.27034299  0.50126090  1
  O  O194  1  0.88826427  0.76903305  0.00448786  1
  O  O195  1  0.86978313  0.74857215  0.51141730  1
  O  O196  1  0.11546033  0.25529380  0.48952053  1
  O  O197  1  0.12607913  0.26009214  1.01084320  1
  O  O198  1  0.13965817  0.79401947  0.47779866  1
  O  O199  1  0.13908433  0.76212050  0.98531225  1
  O  O200  1  0.63791224  0.27087271  0.48961194  1
  O  O201  1  0.64252224  0.24053106  0.99866037  1
  O  O202  1  0.62803074  0.74931047  0.50506639  1
  O  O203  1  0.63230838  0.74781851  0.97407227  1
  O  O204  1  0.48521504  0.24874438  0.13539586  1
  O  O205  1  0.55694039  0.19139306  0.60679144  1
  O  O206  1  0.50413896  0.75577992  0.12042692  1
  O  O207  1  0.44497662  0.73828906  0.57484816  1
  O  O208  1  1.02193994  0.23781669  0.14562305  1
  O  O209  1  0.98110985  0.26429865  0.61777477  1
  O  O210  1  0.99496489  0.74753281  0.12450113  1
  O  O211  1  0.99472769  0.75721684  0.61766360  1
  O  O212  1  0.01091763  0.26083036  0.37311613  1
  O  O213  1  0.01026477  0.26496667  0.87470822  1
  O  O214  1  -0.02233732  0.76309223  0.36564861  1
  O  O215  1  0.01309992  0.75848795  0.88381361  1
  O  O216  1  0.50120998  0.25887267  0.38158084  1
  O  O217  1  0.52295710  0.25819246  0.89407034  1
  O  O218  1  0.44518809  0.78212906  0.40385545  1
  O  O219  1  0.50412862  0.78065332  0.89220304  1
  O  O220  1  0.20830560  0.12616981  0.56671229  1
  O  O221  1  0.24488763  0.13724312  0.99289769  1
  O  O222  1  0.25159276  0.63070943  0.49016336  1
  O  O223  1  0.25506220  0.63772498  0.99290693  1
  O  O224  1  0.75401132  0.15077219  0.48528958  1
  O  O225  1  0.74533705  0.12632886  0.98618115  1
  O  O226  1  0.75084728  0.63408536  0.48770483  1
  O  O227  1  0.76537176  0.62562254  1.00402390  1
  O  O228  1  0.25118806  0.36598027  0.01518869  1
  O  O229  1  0.27046899  0.43022474  0.52181804  1
  O  O230  1  0.25849106  0.87004017  0.00583912  1
  O  O231  1  0.26367111  0.87163472  0.51025002  1
  O  O232  1  0.75549552  0.36082183  0.00595163  1
  O  O233  1  0.76319070  0.38206537  0.48713458  1
  O  O234  1  0.76300151  0.88769199  -0.00004302  1
  O  O235  1  0.75707830  0.84370984  0.47422643  1
  O  O236  1  0.14777743  0.51396484  0.24220294  1
  O  O237  1  0.12901725  0.49573888  0.76435017  1
  O  O238  1  0.14294946  1.00137306  0.24518722  1
  O  O239  1  0.13525120  0.98556165  0.75581149  1
  O  O240  1  0.63200599  0.48736285  0.23786354  1
  O  O241  1  0.61238431  0.49480031  0.73837700  1
  O  O242  1  0.62157527  0.99504103  0.24579961  1
  O  O243  1  0.62412815  0.98859711  0.72936849  1
  O  O244  1  0.36763530  0.01305043  0.25324627  1
  O  O245  1  0.36463230  -0.00693605  0.77039460  1
  O  O246  1  0.37131550  0.49862698  0.25830747  1
  O  O247  1  0.36798391  0.47840954  0.76568074  1
  O  O248  1  0.86409389  0.01450668  0.26050860  1
  O  O249  1  0.88838015  -0.00401991  0.75878473  1
  O  O250  1  0.84401978  0.49607935  0.19992022  1
  O  O251  1  0.87645989  0.49746186  0.76185339  1
  O  O252  1  0.11996813  0.37606059  0.38185380  1
  O  O253  1  0.11918302  0.36327801  0.87581162  1
  O  O254  1  0.10233830  0.87000956  0.35388481  1
  O  O255  1  0.12078732  0.86804449  0.86996356  1
  O  O256  1  0.61170475  0.36956693  0.36862007  1
  O  O257  1  0.61750146  0.37257608  0.89434357  1
  O  O258  1  0.63452263  0.88731813  0.36645680  1
  O  O259  1  0.60986735  0.89486367  0.86544115  1
  O  O260  1  0.36462500  0.13459275  0.13027601  1
  O  O261  1  0.38748945  0.09740036  0.65987808  1
  O  O262  1  0.40885782  0.61972799  0.08981401  1
  O  O263  1  0.35214428  0.62097772  0.62465638  1
  O  O264  1  0.89384541  0.11918757  0.12779525  1
  O  O265  1  0.86394092  0.14861531  0.61592762  1
  O  O266  1  0.88857670  0.64708312  0.11811914  1
  O  O267  1  0.87745296  0.63861711  0.62250802  1
  O  O268  1  0.24574872  0.25487804  0.12917880  1
  O  O269  1  0.21284745  0.20007343  0.58741710  1
  O  O270  1  0.24567725  0.76337813  0.11484291  1
  O  O271  1  0.25938759  0.75235424  0.63263145  1
  O  O272  1  0.76269560  0.23863323  0.11268140  1
  O  O273  1  0.75779261  0.27237455  0.61307645  1
  O  O274  1  0.76282818  0.76186506  0.10455980  1
  O  O275  1  0.75058593  0.74375160  0.60827636  1
  O  O276  1  0.23725907  0.25551067  0.38163068  1
  O  O277  1  0.23311636  0.24920744  0.88678431  1
  O  O278  1  0.22659570  0.74534169  0.35375578  1
  O  O279  1  0.24511233  0.74105334  0.87955794  1
  O  O280  1  0.74306913  0.25365446  0.37645804  1
  O  O281  1  0.74917710  0.24896656  0.88438593  1
  O  O282  1  0.74386364  0.72784730  0.37375066  1
  O  O283  1  0.77154236  0.73359285  0.88039102  1
  O  O284  1  -0.00021668  0.11605996  0.00897996  1
  O  O285  1  -0.00344623  0.10609904  0.49438749  1
  O  O286  1  0.00377018  0.61426986  0.00901350  1
  O  O287  1  -0.00472244  0.61483817  0.48291555  1
  O  O288  1  0.51826506  0.12973660  -0.01380021  1
  O  O289  1  0.50546163  0.10658430  0.49693476  1
  O  O290  1  0.46147651  0.62540971  0.03484886  1
  O  O291  1  0.51594621  0.60501084  0.49143105  1
  O  O292  1  0.50163578  0.38935973  0.48282012  1
  O  O293  1  0.48099850  0.36007860  0.99954273  1
  O  O294  1  0.49604887  0.89917767  0.51340844  1
  O  O295  1  0.49414421  0.89439705  0.99239402  1
  O  O296  1  0.99100478  0.38573476  0.48647297  1
  O  O297  1  1.02082775  0.40406016  0.98259797  1
  O  O298  1  0.98667979  0.88773163  0.47237942  1
  O  O299  1  0.99633441  0.88625317  0.98796808  1
  O  O300  1  0.49072966  0.48647369  0.36182742  1
  O  O301  1  0.48692306  0.48402787  0.88253950  1
  O  O302  1  0.50439831  0.99418063  0.40120011  1
  O  O303  1  0.48128280  1.00061318  0.88542993  1
  O  O304  1  1.01336459  0.49270957  0.38192272  1
  O  O305  1  0.99062623  0.50180345  0.88383715  1
  O  O306  1  0.98560542  0.99988050  0.36963326  1
  O  O307  1  0.99563780  0.99795165  0.87971839  1
  O  O308  1  0.00704990  0.00464033  0.11996775  1
  O  O309  1  -0.00168875  -0.01602330  0.60312584  1
  O  O310  1  0.00923855  0.51364679  0.11947660  1
  O  O311  1  0.00440251  0.50236967  0.60654609  1
  O  O312  1  0.49853689  0.00587857  0.10960408  1
  O  O313  1  0.49234829  0.00878166  0.61040221  1
  O  O314  1  0.51121984  0.49257136  0.11597392  1
  O  O315  1  0.50389778  0.49574892  0.61942734  1
  O  O316  1  0.25601789  0.38717896  0.24182477  1
  O  O317  1  0.23967345  0.38103204  0.76274350  1
  O  O318  1  0.26693036  0.88712532  0.23730320  1
  O  O319  1  0.24395051  0.87652155  0.76077293  1
  O  O320  1  0.73960690  0.35952955  0.23449820  1
  O  O321  1  0.75730225  0.38041209  0.74409314  1
  O  O322  1  0.73343085  0.88093462  0.23581669  1
  O  O323  1  0.73010506  0.87360965  0.75882104  1
  O  O324  1  0.25774117  0.10951219  0.25554798  1
  O  O325  1  0.24167957  0.12333399  0.77316508  1
  O  O326  1  0.27021051  0.61791635  0.23835353  1
  O  O327  1  0.24357953  0.61455348  0.76819727  1
  O  O328  1  0.74870148  0.13444090  0.26360192  1
  O  O329  1  0.74781218  0.13066336  0.75995589  1
  O  O330  1  0.74494232  0.62321770  0.25410249  1
  O  O331  1  0.75568862  0.62759493  0.76385956  1
  O  O332  1  0.36720189  0.13345161  0.37000939  1
  O  O333  1  0.36466044  0.11376680  0.88214255  1
  O  O334  1  0.39211294  0.62122785  0.37238324  1
  O  O335  1  0.36431176  0.60058133  0.88033382  1
  O  O336  1  0.86261177  0.12255805  0.37505501  1
  O  O337  1  0.87663998  0.11361184  0.87146782  1
  O  O338  1  0.85757472  0.60855406  0.37123065  1
  O  O339  1  0.87475649  0.60963492  0.87936448  1
  O  O340  1  0.13325396  0.39096421  0.12790449  1
  O  O341  1  0.11640178  0.39890536  0.62842607  1
  O  O342  1  0.13577531  0.88496684  0.12362340  1
  O  O343  1  0.14663665  0.86597584  0.64213874  1
  O  O344  1  0.57270194  0.45503271  0.08089304  1
  O  O345  1  0.64611379  0.37943597  0.62798003  1
  O  O346  1  0.63806430  0.88275680  0.10699017  1
  O  O347  1  0.60311289  0.84174870  0.65653094  1
  O  O348  1  0.11572452  0.24786657  0.27183011  1
  O  O349  1  0.13131876  0.25247686  0.75462900  1
  O  O350  1  0.16216192  0.71048030  0.31760455  1
  O  O351  1  0.13162079  0.76090884  0.76767699  1
  O  O352  1  0.60242700  0.24321538  0.25458388  1
  O  O353  1  0.63728142  0.26188012  0.76952840  1
  O  O354  1  0.61767258  0.77548754  0.24637101  1
  O  O355  1  0.62770498  0.74667527  0.78243609  1
  O  O356  1  0.37277287  0.23748647  0.24570531  1
  O  O357  1  0.33921916  0.25520880  0.72511778  1
  O  O358  1  0.40247044  0.75152529  0.24467758  1
  O  O359  1  0.38363756  0.73336519  0.74626292  1
  O  O360  1  0.89876777  0.25072886  0.25985858  1
  O  O361  1  0.87123299  0.25793032  0.73438880  1
  O  O362  1  0.86300223  0.76249811  0.22966075  1
  O  O363  1  0.87660233  0.75854652  0.73129188  1
  O  O364  1  0.39605799  0.50880681  0.48066197  1
  O  O365  1  0.36168008  0.47948776  0.98695972  1
  O  O366  1  0.39385445  1.00796132  0.49878195  1
  O  O367  1  0.37870819  0.99577011  0.99509769  1
  O  O368  1  0.88592457  0.49308768  0.50328065  1
  O  O369  1  0.88907275  0.49960736  1.00726678  1
  O  O370  1  0.87587289  1.00073853  0.48235116  1
  O  O371  1  0.88900642  0.99271555  0.99189323  1
  O  O372  1  0.11429805  -0.00505454  0.00955425  1
  O  O373  1  0.11146884  -0.01132219  0.48647002  1
  O  O374  1  0.13440608  0.50941512  0.01813363  1
  O  O375  1  0.11533482  0.50734957  0.50600916  1
  O  O376  1  0.61817996  0.01723503  -0.00747853  1
  O  O377  1  0.60386181  0.00055048  0.51162650  1
  O  O378  1  0.60575050  0.49922246  0.02286209  1
  O  O379  1  0.61530075  0.48655845  0.51906594  1
  O  O380  1  0.36319785  0.36515990  0.12292922  1
  O  O381  1  0.46568096  0.31270234  0.62679700  1
  O  O382  1  0.36688761  0.88466835  0.11236989  1
  O  O383  1  0.36296268  0.85553121  0.63721336  1
  O  O384  1  0.93842338  0.35438813  0.10275185  1
  O  O385  1  0.86254674  0.37735377  0.61377716  1
  O  O386  1  0.86694016  0.87246461  0.11503892  1
  O  O387  1  0.86750904  0.85881711  0.61770339  1
  O  O388  1  0.12975879  0.13323223  0.38300102  1
  O  O389  1  0.12313364  0.14510167  0.87593006  1
  O  O390  1  0.12683406  0.65668038  0.36497219  1
  O  O391  1  0.12783996  0.63896875  0.87669905  1
  O  O392  1  0.63618554  0.14378889  0.37319959  1
  O  O393  1  0.63896767  0.14524034  0.88085856  1
  O  O394  1  0.65647120  0.57505277  0.38467530  1
  O  O395  1  0.65519678  0.61877094  0.88639532  1
