# generated using pymatgen
data_V35Zn35O128
_symmetry_space_group_name_H-M   'P 1'
_cell_length_a   16.89372620
_cell_length_b   16.90000390
_cell_length_c   16.89939751
_cell_angle_alpha   90.03915751
_cell_angle_beta   90.11008887
_cell_angle_gamma   89.84653541
_symmetry_Int_Tables_number   1
_chemical_formula_structural   V35Zn35O128
_chemical_formula_sum   'V70 Zn70 O256'
_cell_volume   4824.81891750
_cell_formula_units_Z   2
loop_
 _symmetry_equiv_pos_site_id
 _symmetry_equiv_pos_as_xyz
  1  'x, y, z'
loop_
 _atom_site_type_symbol
 _atom_site_label
 _atom_site_symmetry_multiplicity
 _atom_site_fract_x
 _atom_site_fract_y
 _atom_site_fract_z
 _atom_site_occupancy
  V  V0  1  0.61204752  0.49909332  0.62286144  1
  V  V1  1  0.00620835  0.12805649  0.12205404  1
  V  V2  1  -0.02423181  0.64474308  0.63436853  1
  V  V3  1  -0.01721669  -0.00053785  0.48554230  1
  V  V4  1  -0.00152129  0.00102070  -0.00373776  1
  V  V5  1  -0.00870369  0.86705732  0.37017582  1
  V  V6  1  0.25112220  0.85570694  0.62266105  1
  V  V7  1  0.34265932  0.50236245  0.85397601  1
  V  V8  1  0.13559497  0.39114929  0.24566694  1
  V  V9  1  0.61759719  0.74241671  0.87410588  1
  V  V10  1  0.38168827  0.37852063  0.02666703  1
  V  V11  1  0.61053368  0.86776700  0.75230430  1
  V  V12  1  0.75146053  0.73750105  0.00396988  1
  V  V13  1  0.87258108  0.11351325  0.25138230  1
  V  V14  1  0.74028060  -0.00010210  0.75100429  1
  V  V15  1  0.01214111  0.48504868  -0.00132500  1
  V  V16  1  0.63042190  0.00032550  0.13724358  1
  V  V17  1  0.01768330  0.24344767  0.76559743  1
  V  V18  1  0.50720013  0.50823239  -0.00476638  1
  V  V19  1  -0.00479634  0.11932472  0.61923848  1
  V  V20  1  0.25796923  0.00461459  0.25457191  1
  V  V21  1  0.15172654  0.73934515  0.86413584  1
  V  V22  1  0.75340791  0.25756752  -0.01194700  1
  V  V23  1  0.62595619  0.66346133  0.47200038  1
  V  V24  1  -0.00261882  0.38178320  0.37487123  1
  V  V25  1  0.37809182  0.76017009  0.12495118  1
  V  V26  1  0.60608616  0.24936209  0.87257725  1
  V  V27  1  0.87023234  0.37768123  0.49893405  1
  V  V28  1  0.35140863  0.87384522  -0.00510916  1
  V  V29  1  0.49562878  0.02582570  0.50088624  1
  V  V30  1  0.39171973  0.17344794  0.71841125  1
  V  V31  1  0.85578212  0.50326361  0.36336242  1
  V  V32  1  0.62620646  0.51481993  0.13168983  1
  V  V33  1  0.33957837  0.36501542  0.50267263  1
  V  V34  1  0.27858279  0.62188843  0.35717718  1
  V  V35  1  0.87599061  0.48260570  0.87641335  1
  V  V36  1  0.12747210  0.25261268  0.37883804  1
  V  V37  1  0.49150831  0.39315487  0.38401011  1
  V  V38  1  0.14070989  0.00639519  0.62011947  1
  V  V39  1  0.75623036  0.86292486  0.61584563  1
  V  V40  1  0.75342387  0.38444183  0.63649550  1
  V  V41  1  0.49866654  0.63835984  0.63701135  1
  V  V42  1  0.49568979  0.13274920  0.13329846  1
  V  V43  1  0.25572507  0.24858614  0.02040374  1
  V  V44  1  0.63252279  0.12204256  -0.00738230  1
  V  V45  1  0.75203173  0.87647092  0.12814776  1
  V  V46  1  0.38236360  0.00531040  0.86460438  1
  V  V47  1  0.75145234  0.11027244  0.37231779  1
  V  V48  1  0.87540146  0.24819562  0.62507128  1
  V  V49  1  0.12698183  0.63765065  0.49858812  1
  V  V50  1  0.87425852  0.26198606  0.12134982  1
  V  V51  1  0.87073697  0.63457269  0.24078348  1
  V  V52  1  0.12759639  0.86441255  0.25738550  1
  V  V53  1  0.61369221  0.85947031  0.25371407  1
  V  V54  1  0.61069977  0.37941899  0.76037038  1
  V  V55  1  0.37587102  0.85223917  0.49976837  1
  V  V56  1  0.61924952  0.25299077  0.35615757  1
  V  V57  1  0.87832026  0.87294524  -0.00351176  1
  V  V58  1  -0.00151496  0.25469051  0.24939575  1
  V  V59  1  0.13148992  -0.00730044  0.12459450  1
  V  V60  1  0.11551638  0.88821308  0.75300479  1
  V  V61  1  -0.00865430  0.50512693  0.51162618  1
  V  V62  1  0.76141780  0.62097067  0.85342562  1
  V  V63  1  0.13078978  0.12845930  0.49323953  1
  V  V64  1  0.86470374  0.12301743  0.75290976  1
  V  V65  1  0.74238405  0.24394930  0.49578216  1
  V  V66  1  0.86909368  0.00029791  0.87523549  1
  V  V67  1  0.73487575  0.37368806  0.13743116  1
  V  V68  1  0.12672567  0.49451191  0.63759093  1
  V  V69  1  0.50778522  -0.01540908  -0.00638230  1
  Zn  Zn70  1  0.61601427  -0.00671251  0.61591966  1
  Zn  Zn71  1  0.38326940  -0.01799598  0.37248873  1
  Zn  Zn72  1  0.09862959  0.17472407  0.94434668  1
  Zn  Zn73  1  0.26330672  0.13145303  0.37426761  1
  Zn  Zn74  1  0.01091961  0.62012373  0.12056035  1
  Zn  Zn75  1  0.90888713  0.75967923  0.13453123  1
  Zn  Zn76  1  0.18799781  0.19046522  0.19286296  1
  Zn  Zn77  1  0.24897827  0.12073224  0.84857711  1
  Zn  Zn78  1  0.22497291  0.69947156  0.18650313  1
  Zn  Zn79  1  0.14167494  0.70260153  0.67427424  1
  Zn  Zn80  1  0.68903877  0.18550195  0.18400683  1
  Zn  Zn81  1  0.69144998  0.19805216  0.69540542  1
  Zn  Zn82  1  0.69383239  0.68477212  0.19372766  1
  Zn  Zn83  1  0.68688516  0.68729699  0.68312635  1
  Zn  Zn84  1  0.31402104  0.32639578  0.32667860  1
  Zn  Zn85  1  0.39857777  0.30793920  0.85517384  1
  Zn  Zn86  1  0.30430599  0.80269133  0.32012010  1
  Zn  Zn87  1  0.29138012  0.85955602  0.82244839  1
  Zn  Zn88  1  0.81158776  0.31062373  0.31030840  1
  Zn  Zn89  1  0.82015841  0.31501644  0.81202730  1
  Zn  Zn90  1  0.81451551  0.81958876  0.30970330  1
  Zn  Zn91  1  0.79711956  0.82029256  0.81842820  1
  Zn  Zn92  1  0.17888052  0.45532571  0.43756994  1
  Zn  Zn93  1  0.20323437  0.42271653  0.93808600  1
  Zn  Zn94  1  0.19146672  0.93459858  0.43612453  1
  Zn  Zn95  1  0.18323389  0.97593261  0.92923594  1
  Zn  Zn96  1  0.68091518  0.43055419  0.43704259  1
  Zn  Zn97  1  0.68817891  0.44222519  0.93963076  1
  Zn  Zn98  1  0.67296546  0.93174014  0.43825126  1
  Zn  Zn99  1  0.68802441  0.93032282  0.93575118  1
  Zn  Zn100  1  0.31477014  0.06491146  0.05486023  1
  Zn  Zn101  1  0.32491065  0.08228624  0.56353722  1
  Zn  Zn102  1  0.33103154  0.58688777  0.02288188  1
  Zn  Zn103  1  0.30684286  0.55545080  0.57434720  1
  Zn  Zn104  1  0.81233608  0.06698129  0.06538307  1
  Zn  Zn105  1  0.80286511  0.05424588  0.56225065  1
  Zn  Zn106  1  0.81588251  0.55043240  0.06503275  1
  Zn  Zn107  1  0.79968098  0.57190689  0.55736691  1
  Zn  Zn108  1  0.47357188  0.41366090  0.18455317  1
  Zn  Zn109  1  0.42504847  0.43068119  0.68455142  1
  Zn  Zn110  1  0.43886728  0.93525104  0.17863830  1
  Zn  Zn111  1  0.43558569  0.93736362  0.67361605  1
  Zn  Zn112  1  0.94259860  0.44446990  0.18197960  1
  Zn  Zn113  1  0.97748315  0.45069394  0.72577379  1
  Zn  Zn114  1  0.94415117  0.93408315  0.18570613  1
  Zn  Zn115  1  0.93226871  0.93898608  0.68100707  1
  Zn  Zn116  1  0.06243173  0.06153743  0.30764554  1
  Zn  Zn117  1  0.05970445  0.06305326  0.80715289  1
  Zn  Zn118  1  0.05809131  0.57327267  0.31203851  1
  Zn  Zn119  1  0.05312423  0.57218466  0.82013557  1
  Zn  Zn120  1  0.55776356  0.07115954  0.32359961  1
  Zn  Zn121  1  0.55261928  0.06691486  0.80566957  1
  Zn  Zn122  1  0.59051492  0.55064680  0.32315223  1
  Zn  Zn123  1  0.56305896  0.56439449  0.81031906  1
  Zn  Zn124  1  0.45339225  0.22402425  0.46858002  1
  Zn  Zn125  1  0.43580095  0.17714855  0.96377549  1
  Zn  Zn126  1  0.42523369  0.64394116  0.47879888  1
  Zn  Zn127  1  0.43037501  0.68451151  0.93756823  1
  Zn  Zn128  1  0.93512121  0.18817631  0.43483972  1
  Zn  Zn129  1  0.92803682  0.18705502  0.93585360  1
  Zn  Zn130  1  0.94108664  0.67931102  0.42874672  1
  Zn  Zn131  1  0.92690387  0.65697461  0.96301907  1
  Zn  Zn132  1  0.06896663  0.32488754  0.06037471  1
  Zn  Zn133  1  0.06199322  0.31255178  0.56591006  1
  Zn  Zn134  1  0.07563241  0.80623818  0.05110504  1
  Zn  Zn135  1  0.05210114  0.82016721  0.55968309  1
  Zn  Zn136  1  0.56117675  0.31314043  0.05550558  1
  Zn  Zn137  1  0.57081045  0.32323969  0.55977199  1
  Zn  Zn138  1  0.56799399  0.79977388  0.06661930  1
  Zn  Zn139  1  0.55905060  0.81732400  0.56266821  1
  O  O140  1  0.11037914  0.11847885  0.13355669  1
  O  O141  1  0.11091838  0.11774859  0.60636080  1
  O  O142  1  0.17145660  0.60514768  0.09895754  1
  O  O143  1  0.09823530  0.61354834  0.61924278  1
  O  O144  1  0.62812188  0.11072441  0.11769729  1
  O  O145  1  0.59989394  0.16240850  0.62765131  1
  O  O146  1  0.63505805  0.61383952  0.12325813  1
  O  O147  1  0.61753926  0.60467895  0.64164463  1
  O  O148  1  0.37920362  0.38987238  0.39600224  1
  O  O149  1  0.37147007  0.40971719  0.89470235  1
  O  O150  1  0.35946711  0.87087459  0.39533850  1
  O  O151  1  0.38012808  0.88936882  0.88815560  1
  O  O152  1  0.87732448  0.37999154  0.38159471  1
  O  O153  1  0.86606832  0.38256150  0.88858054  1
  O  O154  1  0.89256753  0.88587456  0.35863894  1
  O  O155  1  0.86878245  0.88778667  0.88543518  1
  O  O156  1  0.25808095  0.00851380  0.36601300  1
  O  O157  1  0.27656625  0.00288549  0.86981500  1
  O  O158  1  0.23969617  0.52960095  0.38296683  1
  O  O159  1  0.24199284  0.49166453  0.85501497  1
  O  O160  1  0.74777295  0.01320571  0.38134106  1
  O  O161  1  0.75678006  -0.00332370  0.86448879  1
  O  O162  1  0.75664142  0.49127329  0.37717399  1
  O  O163  1  0.75959178  0.51439378  0.88203743  1
  O  O164  1  0.30908219  0.49859886  0.18130291  1
  O  O165  1  0.22512350  0.51028764  0.64408050  1
  O  O166  1  0.23584029  1.00963498  0.12846987  1
  O  O167  1  0.23925686  1.01538289  0.61563682  1
  O  O168  1  0.73828420  0.48073446  0.11336737  1
  O  O169  1  0.74736854  0.48511379  0.62628689  1
  O  O170  1  0.73969891  0.99116167  0.11642460  1
  O  O171  1  0.73448158  1.00039280  0.63594852  1
  O  O172  1  0.00049759  0.36961252  0.25828054  1
  O  O173  1  -0.00442914  0.34098684  0.75055942  1
  O  O174  1  0.01385562  0.87877715  0.25865493  1
  O  O175  1  0.01540113  0.89359837  0.74142484  1
  O  O176  1  0.48269152  0.36780583  0.28480975  1
  O  O177  1  0.51275164  0.37468881  0.74813533  1
  O  O178  1  0.51532042  0.88241722  0.24543361  1
  O  O179  1  0.51277352  0.87474394  0.74464322  1
  O  O180  1  0.50767234  0.11439682  0.23176668  1
  O  O181  1  0.48090922  0.13114840  0.74934483  1
  O  O182  1  0.48714505  0.61876342  0.23942991  1
  O  O183  1  0.49401790  0.61955127  0.73710934  1
  O  O184  1  0.99026233  0.13506106  0.24477329  1
  O  O185  1  0.98512058  0.12710457  0.73843500  1
  O  O186  1  0.98076553  0.61267454  0.24071831  1
  O  O187  1  0.98708976  0.62344339  0.73268088  1
  O  O188  1  0.36916000  0.26832500  -0.01996643  1
  O  O189  1  0.34948592  0.26262513  0.48611672  1
  O  O190  1  0.37488875  0.77145760  -0.00758223  1
  O  O191  1  0.38004838  0.75428912  0.50085567  1
  O  O192  1  0.86043539  0.24156073  0.00831956  1
  O  O193  1  0.86976504  0.25865633  0.50525736  1
  O  O194  1  0.86619421  0.75697288  -0.00104280  1
  O  O195  1  0.83617802  0.74701921  0.46498646  1
  O  O196  1  0.11048976  0.23693885  0.49274421  1
  O  O197  1  0.14625495  0.25756223  1.00567628  1
  O  O198  1  0.11640878  0.73732824  0.51445332  1
  O  O199  1  0.10560317  0.77302866  0.94763918  1
  O  O200  1  0.64211713  0.24811532  0.49626096  1
  O  O201  1  0.63400922  0.24491977  0.98653794  1
  O  O202  1  0.62450495  0.76412050  0.48609484  1
  O  O203  1  0.64269084  0.75728204  0.98603367  1
  O  O204  1  0.51429215  0.23151032  0.11965609  1
  O  O205  1  0.54482598  0.21621101  0.62315421  1
  O  O206  1  0.47970318  0.75203494  0.11441095  1
  O  O207  1  0.51063612  0.73768851  0.63266225  1
  O  O208  1  0.99428772  0.24657631  0.12987834  1
  O  O209  1  0.98768166  0.23760436  0.62303205  1
  O  O210  1  1.01624743  0.73512495  0.11417232  1
  O  O211  1  0.99790105  0.74518281  0.62798811  1
  O  O212  1  0.00024695  0.26136847  0.36834701  1
  O  O213  1  0.01400098  0.22492733  0.87119452  1
  O  O214  1  -0.00646106  0.76767995  0.38272522  1
  O  O215  1  -0.04609724  0.75559598  0.81989005  1
  O  O216  1  0.52393858  0.22692510  0.37133035  1
  O  O217  1  0.50691918  0.25467480  0.88513714  1
  O  O218  1  0.47757994  0.68302078  0.27182053  1
  O  O219  1  0.51909596  0.73503175  0.88365315  1
  O  O220  1  0.23276895  0.12524552  0.49218969  1
  O  O221  1  0.26421463  0.14776678  0.98710840  1
  O  O222  1  0.22623947  0.61988104  0.51598587  1
  O  O223  1  0.20200010  0.59607806  1.03125863  1
  O  O224  1  0.76309847  0.13635374  0.48531005  1
  O  O225  1  0.73914433  0.13752974  1.00593668  1
  O  O226  1  0.71423833  0.62412072  0.50690961  1
  O  O227  1  0.75664355  0.63769390  1.00179733  1
  O  O228  1  0.26777406  0.36472913  0.01465550  1
  O  O229  1  0.23982889  0.37532872  0.49100055  1
  O  O230  1  0.25359318  0.89208609  -0.00994770  1
  O  O231  1  0.25545215  0.87883149  0.51530276  1
  O  O232  1  0.74268682  0.35890746  0.00829864  1
  O  O233  1  0.75520310  0.36322248  0.50931502  1
  O  O234  1  0.76176866  0.86994668  0.00653278  1
  O  O235  1  0.73984732  0.88767065  0.51897432  1
  O  O236  1  0.11637831  0.48895924  0.25963011  1
  O  O237  1  0.08841039  0.49610557  0.73492906  1
  O  O238  1  0.12897160  0.99656464  0.23818496  1
  O  O239  1  0.12100973  1.00525152  0.72435280  1
  O  O240  1  0.62695442  0.49897229  0.23276939  1
  O  O241  1  0.62726838  0.48293308  0.74661615  1
  O  O242  1  0.62884699  0.99645495  0.23677441  1
  O  O243  1  0.62780192  0.99024692  0.75669029  1
  O  O244  1  0.35991504  -0.00787121  0.24517693  1
  O  O245  1  0.39505961  -0.01002235  0.76649464  1
  O  O246  1  0.37030051  0.50206171  0.22095967  1
  O  O247  1  0.37412542  0.50147840  0.75796265  1
  O  O248  1  0.88172906  0.01551163  0.24249896  1
  O  O249  1  0.86493689  0.00575184  0.75529241  1
  O  O250  1  0.87203222  0.49258912  0.26241229  1
  O  O251  1  0.88122508  0.48943190  0.77372298  1
  O  O252  1  0.11052871  0.37094592  0.37253706  1
  O  O253  1  0.19479200  0.32136237  0.85563969  1
  O  O254  1  0.11681735  0.88020097  0.36385179  1
  O  O255  1  0.13319241  0.90519434  0.85017611  1
  O  O256  1  0.61026882  0.35906815  0.38168749  1
  O  O257  1  0.62921667  0.36577306  0.86759351  1
  O  O258  1  0.64053929  0.87148495  0.35024800  1
  O  O259  1  0.63267471  0.85928705  0.86275470  1
  O  O260  1  0.39691702  0.11941997  0.11270634  1
  O  O261  1  0.38119743  0.16366992  0.61581898  1
  O  O262  1  0.34564464  0.65894156  0.10704105  1
  O  O263  1  0.40195800  0.62003571  0.59708007  1
  O  O264  1  0.88147173  0.13546875  0.13484189  1
  O  O265  1  0.87669950  0.12853095  0.62847210  1
  O  O266  1  0.87281895  0.62697623  0.13324170  1
  O  O267  1  0.87696842  0.63326950  0.61155297  1
  O  O268  1  0.26068205  0.23803005  0.11969478  1
  O  O269  1  0.24884390  0.29390653  0.67353406  1
  O  O270  1  0.25897462  0.76233800  0.10103548  1
  O  O271  1  0.23536195  0.75810745  0.62925629  1
  O  O272  1  0.75535061  0.25765720  0.11796562  1
  O  O273  1  0.75773083  0.25127292  0.61350209  1
  O  O274  1  0.74554093  0.75881787  0.10938377  1
  O  O275  1  0.74677494  0.76264583  0.62549174  1
  O  O276  1  0.22888556  0.24748545  0.36628755  1
  O  O277  1  0.24390087  0.26557437  0.87445272  1
  O  O278  1  0.25188535  0.72044517  0.37924774  1
  O  O279  1  0.25092657  0.75988652  0.86497813  1
  O  O280  1  0.74516790  0.25203477  0.38521439  1
  O  O281  1  0.75104630  0.25251337  0.88652255  1
  O  O282  1  0.78313540  0.75786384  0.41208950  1
  O  O283  1  0.74885199  0.73795995  0.88302762  1
  O  O284  1  -0.00048294  0.12122199  0.00784066  1
  O  O285  1  -0.00026442  0.11672459  0.50121645  1
  O  O286  1  0.01674177  0.60618144  0.00082310  1
  O  O287  1  -0.00496672  0.61959518  0.51073556  1
  O  O288  1  0.51989173  0.11379773  0.01066108  1
  O  O289  1  0.49959469  0.12540423  0.49924734  1
  O  O290  1  0.48989473  0.60726222  0.00838227  1
  O  O291  1  0.53468736  0.62922221  0.51566627  1
  O  O292  1  0.49131533  0.34210423  0.48498330  1
  O  O293  1  0.48841967  0.38163863  1.00061441  1
  O  O294  1  0.47545727  0.87966103  0.51166413  1
  O  O295  1  0.51701049  0.88625087  1.00097241  1
  O  O296  1  0.98581394  0.38000540  0.49515146  1
  O  O297  1  0.98839617  0.38400324  1.00710014  1
  O  O298  1  1.00269250  0.89198428  0.48530467  1
  O  O299  1  0.98605623  0.88897131  1.00881567  1
  O  O300  1  0.51661726  0.48980880  0.38837092  1
  O  O301  1  0.50869649  0.50467885  0.89272763  1
  O  O302  1  0.49331491  1.00738065  0.38858638  1
  O  O303  1  0.50312598  1.00052727  0.88978465  1
  O  O304  1  0.98738023  0.49035662  0.38719896  1
  O  O305  1  0.98801565  0.49983096  0.88378069  1
  O  O306  1  1.00015977  1.00131075  0.38301885  1
  O  O307  1  0.98630592  1.00878826  0.88748386  1
  O  O308  1  0.00390052  0.01040575  0.11708255  1
  O  O309  1  -0.00056499  0.00858908  0.60894569  1
  O  O310  1  0.00281967  0.50278694  0.10887543  1
  O  O311  1  -0.01796619  0.50025263  0.61433623  1
  O  O312  1  0.51813579  0.00277839  0.11295772  1
  O  O313  1  0.49982861  0.00665799  0.61149673  1
  O  O314  1  0.51994272  0.49322800  0.12058832  1
  O  O315  1  0.51187030  0.49331242  0.63085402  1
  O  O316  1  0.23448204  0.37578667  0.26303442  1
  O  O317  1  0.23042825  0.34728252  0.71826221  1
  O  O318  1  0.23414072  0.89386284  0.25896988  1
  O  O319  1  0.23509065  0.88598308  0.72716861  1
  O  O320  1  0.74977386  0.37056724  0.23620346  1
  O  O321  1  0.74727901  0.36571166  0.73717094  1
  O  O322  1  0.74464864  0.86629545  0.23224391  1
  O  O323  1  0.74260271  0.88521484  0.74108154  1
  O  O324  1  0.24176088  0.10966846  0.25465113  1
  O  O325  1  0.30260591  0.13678053  0.75213341  1
  O  O326  1  0.26348878  0.62262187  0.25517624  1
  O  O327  1  0.28262568  0.64229289  0.73935117  1
  O  O328  1  0.76488926  0.12753865  0.25585508  1
  O  O329  1  0.75518283  0.11573653  0.74254003  1
  O  O330  1  0.76901037  0.62149560  0.25025480  1
  O  O331  1  0.75770407  0.62673414  0.75457596  1
  O  O332  1  0.37645621  0.16844295  0.34101334  1
  O  O333  1  0.38851152  0.10702622  0.88708425  1
  O  O334  1  0.37967748  0.61559560  0.38166841  1
  O  O335  1  0.35661725  0.59658384  0.90723704  1
  O  O336  1  0.86737852  0.13150604  0.35972362  1
  O  O337  1  0.87144260  0.11572958  0.86238986  1
  O  O338  1  0.87659005  0.60805397  0.36396688  1
  O  O339  1  0.86307453  0.62711989  0.87239679  1
  O  O340  1  0.12364178  0.37292591  0.14746798  1
  O  O341  1  0.11533634  0.39473323  0.61727299  1
  O  O342  1  0.11868986  0.88868728  0.13446482  1
  O  O343  1  0.13217311  0.89270480  0.62099681  1
  O  O344  1  0.63330172  0.36849713  0.12795276  1
  O  O345  1  0.63551627  0.37504237  0.63979393  1
  O  O346  1  0.63270782  0.88510244  0.12787729  1
  O  O347  1  0.63155683  0.87384694  0.64171472  1
  O  O348  1  0.11065818  0.25454648  0.25833886  1
  O  O349  1  0.11036469  0.22881340  0.74385136  1
  O  O350  1  0.14112962  0.76731866  0.24179356  1
  O  O351  1  0.11985245  0.77508497  0.76223499  1
  O  O352  1  0.63266406  0.25173242  0.25726100  1
  O  O353  1  0.62760823  0.25928099  0.76791232  1
  O  O354  1  0.62005303  0.76031699  0.23301361  1
  O  O355  1  0.62916330  0.75874329  0.76098657  1
  O  O356  1  0.37408335  0.22403468  0.28759295  1
  O  O357  1  0.39155985  0.27289182  0.75018288  1
  O  O358  1  0.36147200  0.77568649  0.22477919  1
  O  O359  1  0.33745638  0.68904140  0.74693066  1
  O  O360  1  0.88452830  0.24662532  0.24197595  1
  O  O361  1  0.87076220  0.23785761  0.74047633  1
  O  O362  1  0.87407637  0.73985261  0.24769792  1
  O  O363  1  0.90111605  0.76676752  0.76914378  1
  O  O364  1  0.37100589  0.47020812  0.52920886  1
  O  O365  1  0.38757684  0.48627751  1.02852686  1
  O  O366  1  0.38425530  1.00905738  0.49721099  1
  O  O367  1  0.39370350  0.98904263  0.99798613  1
  O  O368  1  0.87075917  0.49234630  0.49039068  1
  O  O369  1  0.88637208  0.51113604  0.98628754  1
  O  O370  1  0.88408958  1.00536091  0.49691902  1
  O  O371  1  0.87718663  0.99805683  0.99468136  1
  O  O372  1  0.11218885  -0.00377273  0.01685317  1
  O  O373  1  0.11743855  0.01217562  0.50249391  1
  O  O374  1  0.11278034  0.47308036  -0.01753038  1
  O  O375  1  0.10537062  0.50978971  0.51352582  1
  O  O376  1  0.62388062  0.00482601  -0.00144695  1
  O  O377  1  0.60256437  -0.00251478  0.49837747  1
  O  O378  1  0.61482196  0.49488860  0.01047768  1
  O  O379  1  0.62698297  0.48080704  0.52450614  1
  O  O380  1  0.39078781  0.35674734  0.12419218  1
  O  O381  1  0.36662852  0.37156408  0.60843436  1
  O  O382  1  0.37542790  0.87589245  0.10195177  1
  O  O383  1  0.35744604  0.86955307  0.62095384  1
  O  O384  1  0.86638487  0.36466926  0.12915303  1
  O  O385  1  0.86290365  0.36531178  0.61801619  1
  O  O386  1  0.87004510  0.87225268  0.11878654  1
  O  O387  1  0.85691926  0.87899776  0.62701211  1
  O  O388  1  0.11580174  0.13365609  0.38409544  1
  O  O389  1  0.14186449  0.09243337  0.88040638  1
  O  O390  1  0.10681867  0.62647902  0.39808041  1
  O  O391  1  0.13789514  0.63999513  0.85153400  1
  O  O392  1  0.64835277  0.13504482  0.36471892  1
  O  O393  1  0.61924273  0.14016359  0.87877091  1
  O  O394  1  0.61904546  0.64510918  0.37108213  1
  O  O395  1  0.64268291  0.63625157  0.86433837  1
