# generated using pymatgen
data_V35Zn35O128
_symmetry_space_group_name_H-M   'P 1'
_cell_length_a   16.89257056
_cell_length_b   16.90155833
_cell_length_c   16.87918787
_cell_angle_alpha   89.72709674
_cell_angle_beta   89.91483719
_cell_angle_gamma   90.10494902
_symmetry_Int_Tables_number   1
_chemical_formula_structural   V35Zn35O128
_chemical_formula_sum   'V70 Zn70 O256'
_cell_volume   4819.12173139
_cell_formula_units_Z   2
loop_
 _symmetry_equiv_pos_site_id
 _symmetry_equiv_pos_as_xyz
  1  'x, y, z'
loop_
 _atom_site_type_symbol
 _atom_site_label
 _atom_site_symmetry_multiplicity
 _atom_site_fract_x
 _atom_site_fract_y
 _atom_site_fract_z
 _atom_site_occupancy
  V  V0  1  0.26397205  0.61814625  0.86921315  1
  V  V1  1  0.74199863  0.25561510  0.50305215  1
  V  V2  1  0.24803736  0.62875391  0.37387543  1
  V  V3  1  0.63165537  0.49597516  0.64566492  1
  V  V4  1  0.87547880  0.75576259  0.62990486  1
  V  V5  1  0.00787294  0.62239131  0.63458388  1
  V  V6  1  -0.00137694  0.37888947  0.88570099  1
  V  V7  1  0.61887370  0.11678119  0.49579595  1
  V  V8  1  0.24940508  0.12753741  0.87127563  1
  V  V9  1  0.74501921  0.62936943  0.89133334  1
  V  V10  1  0.49490045  0.38129722  0.87131075  1
  V  V11  1  0.12077968  0.11876061  0.00775560  1
  V  V12  1  0.85672820  0.38422224  0.51388497  1
  V  V13  1  0.74942134  0.01030161  0.25534612  1
  V  V14  1  0.63187772  0.51595495  0.11814708  1
  V  V15  1  0.12561879  0.25300944  0.86515603  1
  V  V16  1  0.37790906  0.37600898  0.01034332  1
  V  V17  1  0.42158247  0.68777728  0.16148326  1
  V  V18  1  0.60926612  0.27174159  0.37901621  1
  V  V19  1  0.11542611  0.60401879  -0.00208522  1
  V  V20  1  0.49308226  0.25762180  0.22828230  1
  V  V21  1  0.87950349  0.86962018  0.48236478  1
  V  V22  1  0.86780808  0.74850936  0.12343223  1
  V  V23  1  0.74818047  0.74312547  0.48185999  1
  V  V24  1  0.63747839  0.88422882  0.72892220  1
  V  V25  1  0.90521888  0.25525642  0.16297436  1
  V  V26  1  0.12974193  0.14097899  0.48913769  1
  V  V27  1  0.01232873  0.60877463  0.13530042  1
  V  V28  1  0.87436777  0.49828708  0.88728328  1
  V  V29  1  0.50535185  0.50519756  0.49399236  1
  V  V30  1  0.01094616  0.49753833  0.50400169  1
  V  V31  1  0.14150275  0.88290107  0.26253987  1
  V  V32  1  0.00878760  -0.01287061  0.48208426  1
  V  V33  1  0.10918624  0.86850573  0.75939228  1
  V  V34  1  0.51546771  0.87965475  0.87743738  1
  V  V35  1  0.38149082  -0.00496400  0.87452490  1
  V  V36  1  0.38289976  0.11259218  0.23659516  1
  V  V37  1  0.37572014  0.49728220  0.36697183  1
  V  V38  1  0.37368454  0.12518593  0.74744184  1
  V  V39  1  0.25434065  0.76283712  -0.01107048  1
  V  V40  1  0.36924311  0.25497476  0.61632317  1
  V  V41  1  0.25582371  0.25622787  0.01226990  1
  V  V42  1  -0.01442016  0.23988264  0.73872786  1
  V  V43  1  0.50224485  0.00607757  0.01328213  1
  V  V44  1  0.36892550  0.74211243  0.63234118  1
  V  V45  1  0.88215861  0.00461120  0.89817085  1
  V  V46  1  0.62477056  0.23896616  0.86827159  1
  V  V47  1  0.50049486  0.51869264  0.00408640  1
  V  V48  1  0.86297118  0.61955341  0.25596509  1
  V  V49  1  0.10562038  0.74212623  0.87242368  1
  V  V50  1  0.23178479  0.48665306  0.24071976  1
  V  V51  1  0.13001201  0.63837343  0.49890901  1
  V  V52  1  0.62940754  0.12790108  0.01577929  1
  V  V53  1  0.50242258  0.11207116  0.62049118  1
  V  V54  1  0.75105517  0.27264085  -0.00292613  1
  V  V55  1  0.27060986  0.13138832  0.38143750  1
  V  V56  1  0.50086943  0.25465081  0.74851949  1
  V  V57  1  0.24321313  0.38010391  0.61638160  1
  V  V58  1  0.24961706  -0.01288538  0.75578167  1
  V  V59  1  0.25598620  0.49873756  0.75094729  1
  V  V60  1  0.00168685  0.35887084  0.37806039  1
  V  V61  1  0.62851946  0.38887768  0.24094208  1
  V  V62  1  0.51399882  0.62783663  0.63361955  1
  V  V63  1  0.76191248  0.01645485  0.72550928  1
  V  V64  1  0.54742021  0.77346817  0.31632485  1
  V  V65  1  0.39528354  0.88360988  0.50151243  1
  V  V66  1  0.86201220  0.50240888  0.37467653  1
  V  V67  1  0.24890907  0.87135484  0.61270530  1
  V  V68  1  0.11789898  0.00482847  0.62313901  1
  V  V69  1  0.86375680  0.61879621  0.74821412  1
  Zn  Zn70  1  0.50349204  0.74933535  0.75791123  1
  Zn  Zn71  1  0.11543611  0.38180775  0.73856156  1
  Zn  Zn72  1  0.74534248  0.37390788  0.66199867  1
  Zn  Zn73  1  0.00874296  0.74986428  0.25724926  1
  Zn  Zn74  1  0.37939800  0.37325827  0.49208612  1
  Zn  Zn75  1  0.63843030  0.75407177  0.86793740  1
  Zn  Zn76  1  0.20556600  0.16789540  0.18556902  1
  Zn  Zn77  1  0.18376426  0.18849698  0.68374222  1
  Zn  Zn78  1  0.23633211  0.68806967  0.18722110  1
  Zn  Zn79  1  0.18560396  0.68555856  0.69136521  1
  Zn  Zn80  1  0.69000714  0.20804351  0.18492309  1
  Zn  Zn81  1  0.69091545  0.18779810  0.67977762  1
  Zn  Zn82  1  0.68265468  0.68565720  0.20339641  1
  Zn  Zn83  1  0.69235422  0.69916891  0.68444539  1
  Zn  Zn84  1  0.31733889  0.31118710  0.31067566  1
  Zn  Zn85  1  0.31536718  0.31753852  0.80844971  1
  Zn  Zn86  1  0.33814112  0.79654541  0.30886180  1
  Zn  Zn87  1  0.32901451  0.79404139  0.83389336  1
  Zn  Zn88  1  0.80718048  0.31745115  0.32238672  1
  Zn  Zn89  1  0.82099141  0.29912671  0.82696380  1
  Zn  Zn90  1  0.82078191  0.81247575  0.30413750  1
  Zn  Zn91  1  0.81599595  0.81635887  0.80921589  1
  Zn  Zn92  1  0.18981421  0.42974201  0.43026595  1
  Zn  Zn93  1  0.19039126  0.43293757  0.93293589  1
  Zn  Zn94  1  0.25088108  0.91358325  0.38734609  1
  Zn  Zn95  1  0.05866841  0.92939043  0.95056619  1
  Zn  Zn96  1  0.67741565  0.44765534  0.43665008  1
  Zn  Zn97  1  0.69708554  0.42203934  0.85627919  1
  Zn  Zn98  1  0.61418258  0.93893228  0.41401139  1
  Zn  Zn99  1  0.68657101  0.96015888  0.92896559  1
  Zn  Zn100  1  0.31697656  0.06647209  0.05103956  1
  Zn  Zn101  1  0.30670128  0.05919311  0.56160826  1
  Zn  Zn102  1  0.30356746  0.55221499  0.05228871  1
  Zn  Zn103  1  0.31341615  0.55761400  0.55919392  1
  Zn  Zn104  1  0.82418391  0.08666082  0.06144284  1
  Zn  Zn105  1  0.82011443  0.06389980  0.53735771  1
  Zn  Zn106  1  0.81564010  0.56304052  0.06879546  1
  Zn  Zn107  1  0.80874316  0.56808080  0.56284779  1
  Zn  Zn108  1  0.44192525  0.44062712  0.18665983  1
  Zn  Zn109  1  0.43709140  0.44251740  0.68580293  1
  Zn  Zn110  1  0.44308380  0.93518812  0.31933176  1
  Zn  Zn111  1  0.43801562  0.92978311  0.69334916  1
  Zn  Zn112  1  0.93698496  0.42909728  0.18969448  1
  Zn  Zn113  1  0.93696495  0.43536666  0.69425577  1
  Zn  Zn114  1  0.98191716  0.90272366  0.14538014  1
  Zn  Zn115  1  0.93293537  0.94266050  0.68728008  1
  Zn  Zn116  1  0.12487548  0.02748418  0.33835033  1
  Zn  Zn117  1  0.05297999  0.06124997  0.81646270  1
  Zn  Zn118  1  0.06351691  0.55183105  0.31966049  1
  Zn  Zn119  1  0.06863914  0.55151314  0.80789249  1
  Zn  Zn120  1  0.56764071  0.08107721  0.30359629  1
  Zn  Zn121  1  0.56990924  0.06179868  0.80305063  1
  Zn  Zn122  1  0.55239432  0.58267167  0.29677943  1
  Zn  Zn123  1  0.56016249  0.56781018  0.81813271  1
  Zn  Zn124  1  0.44158325  0.18675334  0.43479392  1
  Zn  Zn125  1  0.44066561  0.18668895  0.94148329  1
  Zn  Zn126  1  0.42041327  0.68062642  0.45778488  1
  Zn  Zn127  1  0.45734133  0.72672064  0.98351630  1
  Zn  Zn128  1  0.93537476  0.18023158  0.46632840  1
  Zn  Zn129  1  0.93377504  0.18648140  0.93018227  1
  Zn  Zn130  1  0.94411846  0.68863823  0.43559555  1
  Zn  Zn131  1  0.93163639  0.68310545  0.94554346  1
  Zn  Zn132  1  0.04204755  0.26998436  0.05033150  1
  Zn  Zn133  1  0.05463416  0.31410155  0.55921241  1
  Zn  Zn134  1  0.07382035  0.78162698  0.07176618  1
  Zn  Zn135  1  0.06258326  0.80942164  0.56517798  1
  Zn  Zn136  1  0.57208648  0.32157939  0.05616565  1
  Zn  Zn137  1  0.55860078  0.32238634  0.56930710  1
  Zn  Zn138  1  0.49190980  0.86431288  0.14105020  1
  Zn  Zn139  1  0.56646462  0.80651449  0.55842420  1
  O  O140  1  0.13965592  0.12347148  0.10786210  1
  O  O141  1  0.14012968  0.10730480  0.61569541  1
  O  O142  1  0.11876173  0.62188506  0.10714350  1
  O  O143  1  0.11510014  0.62787627  0.61678524  1
  O  O144  1  0.62291727  0.13837327  0.11477316  1
  O  O145  1  0.60631583  0.13065994  0.61666670  1
  O  O146  1  0.62458224  0.61540311  0.13018910  1
  O  O147  1  0.61705837  0.62154711  0.63127144  1
  O  O148  1  0.37675006  0.39226112  0.37679951  1
  O  O149  1  0.38900461  0.36851587  0.88115578  1
  O  O150  1  0.36821111  0.87534970  0.39433690  1
  O  O151  1  0.39473366  0.89053348  0.85950753  1
  O  O152  1  0.87698575  0.38927743  0.39014748  1
  O  O153  1  0.88702020  0.39010469  0.87580604  1
  O  O154  1  0.88845571  0.86603442  0.38224833  1
  O  O155  1  0.86196001  0.89515891  0.87416674  1
  O  O156  1  0.23902058  0.02612233  0.37551475  1
  O  O157  1  0.26321886  0.01466039  0.86752232  1
  O  O158  1  0.26048826  0.49884037  0.36781703  1
  O  O159  1  0.24987475  0.50381312  0.86148604  1
  O  O160  1  0.71568727  -0.00808005  0.35457933  1
  O  O161  1  0.77141947  -0.00801937  0.86548371  1
  O  O162  1  0.76262151  0.50088578  0.37893973  1
  O  O163  1  0.76612465  0.51542908  0.87490558  1
  O  O164  1  0.24997246  0.50753968  0.14253578  1
  O  O165  1  0.25322217  0.48599316  0.63028944  1
  O  O166  1  0.25885320  0.96951315  0.11076795  1
  O  O167  1  0.24369335  0.98474969  0.63565375  1
  O  O168  1  0.73149038  0.50220415  0.11519672  1
  O  O169  1  0.73209907  0.50626857  0.62365212  1
  O  O170  1  0.77591251  1.01768471  0.15486898  1
  O  O171  1  0.76325528  1.01348428  0.62420526  1
  O  O172  1  -0.01050970  0.37385221  0.27878567  1
  O  O173  1  0.00009332  0.36485068  0.75974462  1
  O  O174  1  0.03217562  0.86400930  0.24096302  1
  O  O175  1  0.01285390  0.87432421  0.74406258  1
  O  O176  1  0.50818273  0.36430887  0.24600108  1
  O  O177  1  0.48969675  0.36720749  0.76005155  1
  O  O178  1  0.48091457  0.83987237  0.25488259  1
  O  O179  1  0.51750113  0.87928591  0.75931581  1
  O  O180  1  0.49095901  0.14360218  0.25029406  1
  O  O181  1  0.49138763  0.13162285  0.73849690  1
  O  O182  1  0.48366680  0.64227834  0.22500081  1
  O  O183  1  0.49868695  0.62808232  0.73922477  1
  O  O184  1  0.98153688  0.07177433  0.20806475  1
  O  O185  1  1.01420742  0.14207993  0.74932311  1
  O  O186  1  1.01187718  0.61985222  0.24199621  1
  O  O187  1  1.00047080  0.61880593  0.73688994  1
  O  O188  1  0.36308171  0.25472791  -0.00462762  1
  O  O189  1  0.38290032  0.25248374  0.51431805  1
  O  O190  1  0.35477741  0.76284266  -0.04881526  1
  O  O191  1  0.37785773  0.76722115  0.52390476  1
  O  O192  1  0.84810147  0.25568472  -0.03591911  1
  O  O193  1  0.84954514  0.27568450  0.49906150  1
  O  O194  1  0.87398477  0.73981955  0.02181553  1
  O  O195  1  0.88031934  0.75438065  0.50658257  1
  O  O196  1  0.12135361  0.23720898  0.50848714  1
  O  O197  1  0.14452687  0.25001722  0.98497604  1
  O  O198  1  0.12758062  0.73697026  0.50229053  1
  O  O199  1  0.13282967  0.73323484  0.98175815  1
  O  O200  1  0.62122359  0.26493108  0.49106690  1
  O  O201  1  0.62475363  0.24182721  0.98786620  1
  O  O202  1  0.65000402  0.75446536  0.50749482  1
  O  O203  1  0.69098254  0.80599180  1.01318769  1
  O  O204  1  0.50675202  0.25467951  0.12984996  1
  O  O205  1  0.48861044  0.24921815  0.63367909  1
  O  O206  1  0.46969193  0.76064465  0.09567410  1
  O  O207  1  0.49383587  0.73658150  0.62522007  1
  O  O208  1  1.01002665  0.24944352  0.15483434  1
  O  O209  1  0.99741913  0.25921484  0.63964290  1
  O  O210  1  0.99146166  0.72544008  0.13458117  1
  O  O211  1  0.99077631  0.72902856  0.61707465  1
  O  O212  1  -0.01756265  0.26172450  0.40149219  1
  O  O213  1  0.00840640  0.25977678  0.86457790  1
  O  O214  1  0.02062226  0.73285197  0.36807039  1
  O  O215  1  0.00677563  0.74240506  0.87830179  1
  O  O216  1  0.50687890  0.25941464  0.37457907  1
  O  O217  1  0.49934281  0.25273760  0.86376826  1
  O  O218  1  0.47448778  0.73459781  0.37420006  1
  O  O219  1  0.51367911  0.76964023  0.88311083  1
  O  O220  1  0.24221066  0.12502705  0.49522118  1
  O  O221  1  0.24736780  0.13679902  0.98890157  1
  O  O222  1  0.23405151  0.61505165  0.49735095  1
  O  O223  1  0.23618613  0.61238254  0.97770932  1
  O  O224  1  0.72399242  0.14958264  0.51344038  1
  O  O225  1  0.73177166  0.12928802  1.00133899  1
  O  O226  1  0.76374976  0.64228435  0.49162084  1
  O  O227  1  0.75473840  0.62690635  0.98970294  1
  O  O228  1  0.26429479  0.36538077  -0.00826110  1
  O  O229  1  0.25747453  0.38023833  0.51317641  1
  O  O230  1  0.23149365  0.85717957  -0.01064219  1
  O  O231  1  0.24849565  0.87355210  0.51427037  1
  O  O232  1  0.73284319  0.36747483  -0.02868897  1
  O  O233  1  0.75136190  0.38316113  0.50193084  1
  O  O234  1  0.73245469  0.86726357  0.01250225  1
  O  O235  1  0.77965847  0.86441290  0.49899510  1
  O  O236  1  0.13190723  0.48473339  0.25620712  1
  O  O237  1  0.14128034  0.49347128  0.74506631  1
  O  O238  1  0.13768239  0.98159459  0.23354797  1
  O  O239  1  0.13088887  0.98636776  0.74740458  1
  O  O240  1  0.60983272  0.49591002  0.23857654  1
  O  O241  1  0.62614460  0.50151090  0.74719113  1
  O  O242  1  0.64367225  1.01151285  0.23127633  1
  O  O243  1  0.64289053  0.99257031  0.74929816  1
  O  O244  1  0.39089714  0.01426035  0.25279928  1
  O  O245  1  0.36857334  0.00864122  0.75261675  1
  O  O246  1  0.38478378  0.50456587  0.26567569  1
  O  O247  1  0.35769672  0.50011691  0.74284941  1
  O  O248  1  0.84279141  0.03124037  0.29026689  1
  O  O249  1  0.86344440  0.00346241  0.74666333  1
  O  O250  1  0.88268250  0.50509695  0.26657815  1
  O  O251  1  0.88081900  0.51531608  0.75888464  1
  O  O252  1  0.10237990  0.36911177  0.39429436  1
  O  O253  1  0.11626729  0.36787483  0.87128563  1
  O  O254  1  0.13681443  0.88527338  0.36593461  1
  O  O255  1  0.11574712  0.85921112  0.86697937  1
  O  O256  1  0.61585859  0.37700204  0.36525273  1
  O  O257  1  0.60247222  0.35474692  0.87459678  1
  O  O258  1  0.60189753  0.83584671  0.37263392  1
  O  O259  1  0.62330427  0.88100623  0.86819540  1
  O  O260  1  0.36724946  0.11846399  0.13672867  1
  O  O261  1  0.37969910  0.13386122  0.62902846  1
  O  O262  1  0.38028106  0.61882631  0.10301906  1
  O  O263  1  0.36687767  0.64056794  0.62542079  1
  O  O264  1  0.87431554  0.17411178  0.10806898  1
  O  O265  1  0.89278818  0.14572894  0.56896769  1
  O  O266  1  0.88629393  0.61864912  0.14342841  1
  O  O267  1  0.88440031  0.62617396  0.63655089  1
  O  O268  1  0.24663422  0.25167007  0.11025032  1
  O  O269  1  0.26406108  0.25797619  0.63112587  1
  O  O270  1  0.26117181  0.72836232  0.08412817  1
  O  O271  1  0.25838864  0.76288276  0.63809184  1
  O  O272  1  0.73936806  0.26492174  0.09909969  1
  O  O273  1  0.72862876  0.26992674  0.60992282  1
  O  O274  1  0.76789893  0.73339244  0.14270319  1
  O  O275  1  0.77266314  0.74395275  0.61403717  1
  O  O276  1  0.26587752  0.23522016  0.37970535  1
  O  O277  1  0.24667549  0.24036192  0.86866121  1
  O  O278  1  0.25931142  0.72692373  0.37302920  1
  O  O279  1  0.23444222  0.72950518  0.86946658  1
  O  O280  1  0.72812185  0.26389234  0.39362253  1
  O  O281  1  0.72575050  0.24295116  0.87412414  1
  O  O282  1  0.75463398  0.75840063  0.38113183  1
  O  O283  1  0.75647442  0.73453575  0.87005856  1
  O  O284  1  0.02258472  0.15512461  0.00024778  1
  O  O285  1  0.02838567  0.10234880  0.49611240  1
  O  O286  1  0.01086732  0.62118167  0.00759857  1
  O  O287  1  0.01213685  0.61270636  0.50617671  1
  O  O288  1  0.50472683  0.11395427  0.00536724  1
  O  O289  1  0.50446896  0.12628731  0.51253990  1
  O  O290  1  0.49389591  0.61548383  -0.01717476  1
  O  O291  1  0.48960739  0.61436313  0.52403780  1
  O  O292  1  0.49620831  0.39935788  0.50930452  1
  O  O293  1  0.48935510  0.37004909  0.98846445  1
  O  O294  1  0.49554737  0.87934982  0.50315539  1
  O  O295  1  0.50930174  0.89623865  0.98013377  1
  O  O296  1  0.98130394  0.38703498  0.50595494  1
  O  O297  1  1.00549770  0.35961219  0.98390111  1
  O  O298  1  1.00261869  0.87992332  0.50150865  1
  O  O299  1  1.02948338  0.88149387  1.04582642  1
  O  O300  1  0.49304810  0.52367528  0.38697911  1
  O  O301  1  0.50746048  0.48556459  0.88391983  1
  O  O302  1  0.53085827  0.99177107  0.35895834  1
  O  O303  1  0.49737358  0.99830119  0.87165713  1
  O  O304  1  0.99217921  0.49228225  0.39445857  1
  O  O305  1  0.99448385  0.48693524  0.87258464  1
  O  O306  1  1.01790048  0.99524871  0.38437557  1
  O  O307  1  0.99145200  0.98933122  0.87867302  1
  O  O308  1  -0.03691338  0.02854234  0.15138080  1
  O  O309  1  0.01755862  -0.00063772  0.63175739  1
  O  O310  1  -0.00409221  0.50969769  0.12977379  1
  O  O311  1  -0.00844271  0.51112013  0.61430107  1
  O  O312  1  0.49026165  -0.02312071  0.10861374  1
  O  O313  1  0.49374713  0.01447322  0.63207334  1
  O  O314  1  0.50101880  0.50402464  0.10900679  1
  O  O315  1  0.51029078  0.51196107  0.62674891  1
  O  O316  1  0.26095150  0.38912934  0.25082332  1
  O  O317  1  0.24965496  0.38268856  0.74000095  1
  O  O318  1  0.25325560  0.86975000  0.27257264  1
  O  O319  1  0.24768280  0.88331876  0.75628278  1
  O  O320  1  0.72684049  0.37574707  0.25595513  1
  O  O321  1  0.75512737  0.37328305  0.77216976  1
  O  O322  1  0.76288243  0.90786654  0.24801964  1
  O  O323  1  0.74125632  0.88038507  0.73974763  1
  O  O324  1  0.27509387  0.13170834  0.26407071  1
  O  O325  1  0.25697063  0.11695562  0.75156658  1
  O  O326  1  0.23905621  0.60586856  0.26912285  1
  O  O327  1  0.24214586  0.61165966  0.75750427  1
  O  O328  1  0.73227403  0.11683732  0.25757850  1
  O  O329  1  0.74482812  0.11483199  0.74524630  1
  O  O330  1  0.76561702  0.61614744  0.25510542  1
  O  O331  1  0.76282367  0.62487728  0.74948407  1
  O  O332  1  0.37376664  0.11640087  0.37872972  1
  O  O333  1  0.37195397  0.12172930  0.86271372  1
  O  O334  1  0.35493541  0.60889612  0.39175483  1
  O  O335  1  0.35944601  0.62376140  0.86992117  1
  O  O336  1  0.85124822  0.11038576  0.43301705  1
  O  O337  1  0.88199789  0.10395020  0.87388058  1
  O  O338  1  0.88513274  0.61084963  0.36764620  1
  O  O339  1  0.87250735  0.61984754  0.86477851  1
  O  O340  1  0.12418558  0.31684859  0.22499422  1
  O  O341  1  0.14130884  0.36472913  0.62127633  1
  O  O342  1  0.15220300  0.81542100  0.16039145  1
  O  O343  1  0.13717738  0.87343511  0.63908389  1
  O  O344  1  0.62103572  0.38858692  0.13520059  1
  O  O345  1  0.62348960  0.39354662  0.63204561  1
  O  O346  1  0.61692729  0.85444683  0.14803348  1
  O  O347  1  0.61828762  0.88083552  0.63158455  1
  O  O348  1  0.14219025  0.25592241  0.26128978  1
  O  O349  1  0.12555705  0.25566778  0.75716415  1
  O  O350  1  0.14598166  0.75862524  0.22322278  1
  O  O351  1  0.12442770  0.75856100  0.75991553  1
  O  O352  1  0.61527948  0.26051029  0.26106191  1
  O  O353  1  0.61086251  0.24052478  0.75680548  1
  O  O354  1  0.63354237  0.80931666  0.20696761  1
  O  O355  1  0.62551728  0.76780145  0.74878358  1
  O  O356  1  0.39025357  0.24913467  0.24543282  1
  O  O357  1  0.38088782  0.24027218  0.74181582  1
  O  O358  1  0.34612061  0.72919186  0.21976084  1
  O  O359  1  0.38609602  0.76268380  0.73667128  1
  O  O360  1  0.86594878  0.24662505  0.25824465  1
  O  O361  1  0.88617057  0.24099198  0.75645586  1
  O  O362  1  0.88329557  0.72748413  0.25400598  1
  O  O363  1  0.87626934  0.73812615  0.73837741  1
  O  O364  1  0.38575668  0.49796131  0.49393859  1
  O  O365  1  0.38517908  0.48319500  0.99678573  1
  O  O366  1  0.37353446  0.98187582  0.51168736  1
  O  O367  1  0.39004466  1.00819107  0.98425607  1
  O  O368  1  0.87615245  0.49781527  0.49387269  1
  O  O369  1  0.88043778  0.51169931  0.98546105  1
  O  O370  1  0.90005478  0.97919227  0.50408701  1
  O  O371  1  0.87332415  1.00603961  0.99980041  1
  O  O372  1  0.12218288  0.02220414  -0.01380407  1
  O  O373  1  0.12008534  -0.01351622  0.51989384  1
  O  O374  1  0.12326819  0.50485364  -0.00806015  1
  O  O375  1  0.11145568  0.49518488  0.50302037  1
  O  O376  1  0.61491478  0.01512704  0.00009783  1
  O  O377  1  0.63241032  0.01888699  0.49423129  1
  O  O378  1  0.60633337  0.50297257  0.00999950  1
  O  O379  1  0.60946205  0.50767075  0.50640812  1
  O  O380  1  0.38125797  0.37363848  0.10935185  1
  O  O381  1  0.36984449  0.36294637  0.62675262  1
  O  O382  1  0.30170270  0.91330428  0.13166183  1
  O  O383  1  0.36422404  0.87243146  0.62133092  1
  O  O384  1  0.88417221  0.35031016  0.12797691  1
  O  O385  1  0.86065386  0.39214828  0.61696590  1
  O  O386  1  0.88124155  0.84755973  0.14573943  1
  O  O387  1  0.89059458  0.85595011  0.62391903  1
  O  O388  1  0.13633789  0.13653870  0.38453129  1
  O  O389  1  0.13510134  0.13419249  0.87600984  1
  O  O390  1  0.13396703  0.61521406  0.39172186  1
  O  O391  1  0.11685535  0.62871776  0.87954333  1
  O  O392  1  0.61406875  0.14615464  0.39321029  1
  O  O393  1  0.60805293  0.13661441  0.88254970  1
  O  O394  1  0.60977173  0.68794356  0.29632200  1
  O  O395  1  0.64067395  0.63011240  0.87331312  1
