# generated using pymatgen
data_V35Zn35O128
_symmetry_space_group_name_H-M   'P 1'
_cell_length_a   16.99503658
_cell_length_b   17.12238839
_cell_length_c   16.97508963
_cell_angle_alpha   89.85366744
_cell_angle_beta   90.11609062
_cell_angle_gamma   90.92301790
_symmetry_Int_Tables_number   1
_chemical_formula_structural   V35Zn35O128
_chemical_formula_sum   'V70 Zn70 O256'
_cell_volume   4939.00987468
_cell_formula_units_Z   2
loop_
 _symmetry_equiv_pos_site_id
 _symmetry_equiv_pos_as_xyz
  1  'x, y, z'
loop_
 _atom_site_type_symbol
 _atom_site_label
 _atom_site_symmetry_multiplicity
 _atom_site_fract_x
 _atom_site_fract_y
 _atom_site_fract_z
 _atom_site_occupancy
  V  V0  1  0.00130625  0.86644580  0.38005272  1
  V  V1  1  0.87254434  0.12616103  0.23470517  1
  V  V2  1  0.49270900  0.73853989  0.75402439  1
  V  V3  1  0.40293292  0.11878958  0.74532567  1
  V  V4  1  0.39334497  0.24754803  0.62837176  1
  V  V5  1  0.63081704  0.37481191  0.74182442  1
  V  V6  1  0.00815501  0.50413568  0.51163406  1
  V  V7  1  0.26472093  0.24639290  0.00108347  1
  V  V8  1  0.91179050  0.88598805  0.00269121  1
  V  V9  1  0.74759699  0.62066200  0.38650670  1
  V  V10  1  0.25356922  0.88354669  0.13260585  1
  V  V11  1  0.50371060  0.61060625  0.12551481  1
  V  V12  1  0.74442016  0.24810495  0.48317681  1
  V  V13  1  0.12283842  0.24215002  0.87160216  1
  V  V14  1  0.62735406  0.86002347  0.24851953  1
  V  V15  1  0.37954433  0.37140099  -0.00078746  1
  V  V16  1  0.12331599  0.22525870  0.35306319  1
  V  V17  1  0.87457014  0.62817592  0.25027408  1
  V  V18  1  0.49856445  0.35641448  0.86148325  1
  V  V19  1  0.38017686  0.87742069  0.00468461  1
  V  V20  1  0.86523455  0.23011242  0.62715898  1
  V  V21  1  0.12697918  0.64711427  0.50490434  1
  V  V22  1  0.29112361  0.87899494  0.62031733  1
  V  V23  1  0.11015352  0.62759084  -0.01307246  1
  V  V24  1  0.49969553  0.73699987  0.25051713  1
  V  V25  1  0.87188456  0.37120863  0.50711041  1
  V  V26  1  0.08601749  -0.02502893  0.64207720  1
  V  V27  1  0.61962479  -0.00751120  0.11739379  1
  V  V28  1  0.61213858  0.36204036  0.24975979  1
  V  V29  1  0.64201743  0.24257103  0.88151436  1
  V  V30  1  0.47917185  0.15038549  0.12899570  1
  V  V31  1  0.24135509  0.63724788  0.36076008  1
  V  V32  1  0.11630301  0.76999330  0.85947403  1
  V  V33  1  0.86057018  0.36773695  -0.00200932  1
  V  V34  1  0.59611777  0.13496331  0.46971743  1
  V  V35  1  0.76696765  0.62000695  0.89265022  1
  V  V36  1  0.75576230  0.48524374  0.23877087  1
  V  V37  1  0.13794964  0.87953491  0.25637006  1
  V  V38  1  0.87754704  0.49580453  0.37314589  1
  V  V39  1  0.13734814  0.10723182  0.00595643  1
  V  V40  1  0.73867816  0.87209370  0.60362052  1
  V  V41  1  0.33168290  0.03112552  0.36527193  1
  V  V42  1  0.24850836  0.74307796  -0.00647693  1
  V  V43  1  0.92230404  0.04374022  0.41797618  1
  V  V44  1  0.36661791  0.52719138  0.43469099  1
  V  V45  1  0.00590854  0.75349531  0.24363525  1
  V  V46  1  0.50325779  0.50607987  -0.02510118  1
  V  V47  1  0.86632295  0.86835493  0.48888807  1
  V  V48  1  0.20972738  0.23235019  0.51937627  1
  V  V49  1  0.62811506  0.73229372  0.89409255  1
  V  V50  1  -0.00366139  0.48601311  -0.03428266  1
  V  V51  1  -0.00775292  0.63619418  0.64120439  1
  V  V52  1  0.24549201  0.37794710  0.63687265  1
  V  V53  1  -0.02910720  0.07702611  0.08528632  1
  V  V54  1  0.49751836  0.87611321  0.88078942  1
  V  V55  1  0.75707255  0.51123963  0.74659041  1
  V  V56  1  0.86563581  0.03129636  0.86448941  1
  V  V57  1  0.74406781  0.11770649  0.36938802  1
  V  V58  1  0.02410505  0.58060279  0.15373713  1
  V  V59  1  0.01609882  0.37717959  0.36667384  1
  V  V60  1  0.27109888  0.11393260  0.86923832  1
  V  V61  1  0.64103665  0.87261340  0.76394802  1
  V  V62  1  0.75144577  -0.01191764  0.25274060  1
  V  V63  1  0.11631488  0.38494253  0.76082194  1
  V  V64  1  0.53375219  0.62412534  0.62513408  1
  V  V65  1  0.50097424  0.87292928  0.38905736  1
  V  V66  1  0.63279250  0.74009587  0.39209964  1
  V  V67  1  0.75315186  0.85587871  0.11080429  1
  V  V68  1  0.62553667  0.04564859  0.61417395  1
  V  V69  1  0.37108505  0.73581922  0.13436284  1
  Zn  Zn70  1  0.87665698  0.73057756  0.10613216  1
  Zn  Zn71  1  0.24470494  -0.00535791  0.74599085  1
  Zn  Zn72  1  0.64302576  0.49682808  0.10905978  1
  Zn  Zn73  1  0.86138215  0.73574107  0.61953006  1
  Zn  Zn74  1  0.50168695  0.01068987  -0.00131626  1
  Zn  Zn75  1  0.31358328  0.56986277  0.79838019  1
  Zn  Zn76  1  0.13813491  0.24115153  0.14397136  1
  Zn  Zn77  1  0.21584124  0.20058323  0.71228076  1
  Zn  Zn78  1  0.18458522  0.68696645  0.18438167  1
  Zn  Zn79  1  0.18937654  0.69971492  0.67932695  1
  Zn  Zn80  1  0.65150251  0.16501888  0.20770262  1
  Zn  Zn81  1  0.65806765  0.21614010  0.65989686  1
  Zn  Zn82  1  0.68729028  0.67655798  0.18737609  1
  Zn  Zn83  1  0.69413414  0.69804902  0.70473865  1
  Zn  Zn84  1  0.35285462  0.35464358  0.50108787  1
  Zn  Zn85  1  0.31654955  0.30609180  0.81144375  1
  Zn  Zn86  1  0.31597229  0.81039900  0.32404120  1
  Zn  Zn87  1  0.31344610  0.81318456  0.80705289  1
  Zn  Zn88  1  0.82861025  0.30593269  0.30966838  1
  Zn  Zn89  1  0.80863433  0.32194555  0.80650940  1
  Zn  Zn90  1  0.81308450  0.80496420  0.31051863  1
  Zn  Zn91  1  0.81020836  0.81646544  0.85436474  1
  Zn  Zn92  1  0.19523953  0.44175553  0.45135865  1
  Zn  Zn93  1  0.18869872  0.43275693  0.93898322  1
  Zn  Zn94  1  0.19520014  0.97001882  0.48430811  1
  Zn  Zn95  1  0.20096512  0.93306657  0.93740547  1
  Zn  Zn96  1  0.68657962  0.42634422  0.42409769  1
  Zn  Zn97  1  0.68677500  0.43643033  0.92993080  1
  Zn  Zn98  1  0.66326782  0.94454958  0.43564585  1
  Zn  Zn99  1  0.68879586  0.93981081  0.93226196  1
  Zn  Zn100  1  0.31807095  0.06470453  0.06961019  1
  Zn  Zn101  1  0.32152328  0.06260290  0.56599691  1
  Zn  Zn102  1  0.30275920  0.55233269  -0.03462068  1
  Zn  Zn103  1  0.30870970  0.56840620  0.62895982  1
  Zn  Zn104  1  0.79757203  0.03501738  0.04625132  1
  Zn  Zn105  1  0.80081910  0.05770960  0.56111581  1
  Zn  Zn106  1  0.83796306  0.54807161  0.06219318  1
  Zn  Zn107  1  0.81487061  0.55281999  0.56662728  1
  Zn  Zn108  1  0.47119450  0.40282935  0.16572202  1
  Zn  Zn109  1  0.44075324  0.44311124  0.68331830  1
  Zn  Zn110  1  0.43475365  0.93234371  0.20314195  1
  Zn  Zn111  1  0.45399630  0.93823743  0.69242752  1
  Zn  Zn112  1  1.00496721  0.40243849  0.15510142  1
  Zn  Zn113  1  0.93699779  0.43983913  0.69659455  1
  Zn  Zn114  1  0.93372192  0.93103719  0.18841973  1
  Zn  Zn115  1  0.89518908  0.95135396  0.69973729  1
  Zn  Zn116  1  0.05905915  0.05250306  0.28931784  1
  Zn  Zn117  1  0.06954203  0.04710902  0.82821079  1
  Zn  Zn118  1  0.06542252  0.56397563  0.32676479  1
  Zn  Zn119  1  0.07776503  0.57322797  0.80956074  1
  Zn  Zn120  1  0.55241438  0.05066512  0.29792606  1
  Zn  Zn121  1  0.60238522  0.07906175  0.79012496  1
  Zn  Zn122  1  0.56080495  0.55406276  0.44967493  1
  Zn  Zn123  1  0.57671131  0.56267808  0.80267405  1
  Zn  Zn124  1  0.38547514  0.16242785  0.44022955  1
  Zn  Zn125  1  0.44999766  0.18314651  0.93980750  1
  Zn  Zn126  1  0.44732176  0.67308713  0.42828750  1
  Zn  Zn127  1  0.43442378  0.68648580  0.93834790  1
  Zn  Zn128  1  0.99147231  0.21536777  0.49248726  1
  Zn  Zn129  1  0.91062265  0.22968408  0.89942075  1
  Zn  Zn130  1  0.93496478  0.68915748  0.43996527  1
  Zn  Zn131  1  0.94047030  0.70329721  0.92766853  1
  Zn  Zn132  1  -0.02586621  0.26865741  0.07584351  1
  Zn  Zn133  1  0.05032270  0.32746589  0.59066370  1
  Zn  Zn134  1  0.07126143  0.81244785  0.06785792  1
  Zn  Zn135  1  0.05258273  0.80982492  0.56765375  1
  Zn  Zn136  1  0.57369027  0.31565120  0.05807756  1
  Zn  Zn137  1  0.63224866  0.48040203  0.60743742  1
  Zn  Zn138  1  0.56089550  0.80465957  0.06511349  1
  Zn  Zn139  1  0.56097166  0.80826061  0.57380411  1
  O  O140  1  0.15173173  0.13218731  0.10212600  1
  O  O141  1  0.04111188  0.14205118  0.67608402  1
  O  O142  1  0.10594606  0.63256526  0.11376759  1
  O  O143  1  0.09838694  0.63807556  0.61359979  1
  O  O144  1  0.64112412  0.08969818  0.11982646  1
  O  O145  1  0.59750150  0.14666544  0.57775660  1
  O  O146  1  0.60818725  0.61223454  0.12941396  1
  O  O147  1  0.63245418  0.63478237  0.62706143  1
  O  O148  1  0.38214466  0.42737701  0.42536586  1
  O  O149  1  0.39488768  0.36848992  0.86845920  1
  O  O150  1  0.40214544  0.85348550  0.38335817  1
  O  O151  1  0.39022512  0.86170095  0.88897838  1
  O  O152  1  0.89054804  0.37997705  0.38277093  1
  O  O153  1  0.88120488  0.34585574  0.89106426  1
  O  O154  1  0.87879899  0.87016730  0.37946366  1
  O  O155  1  0.87446441  0.89454921  0.90611719  1
  O  O156  1  0.23781388  -0.00651969  0.38206021  1
  O  O157  1  0.26051415  0.01151629  0.87258657  1
  O  O158  1  0.26066763  0.52235542  0.40226363  1
  O  O159  1  0.24749534  0.50715290  0.87191638  1
  O  O160  1  0.73331841  0.00230723  0.36196341  1
  O  O161  1  0.77467042  0.01340972  0.93221119  1
  O  O162  1  0.75986416  0.50843448  0.36339471  1
  O  O163  1  0.74329606  0.51654301  0.86738803  1
  O  O164  1  0.24362473  0.48294120  0.03024597  1
  O  O165  1  0.24389415  0.47209902  0.61279978  1
  O  O166  1  0.26394875  0.98016705  0.13076820  1
  O  O167  1  0.26679167  0.98725938  0.62948915  1
  O  O168  1  0.75872479  0.50528678  0.13510256  1
  O  O169  1  0.74240565  0.50821366  0.64018300  1
  O  O170  1  0.73779959  0.97194497  0.12906643  1
  O  O171  1  0.71941755  0.98615850  0.60755158  1
  O  O172  1  -0.00187484  0.37739009  0.26946960  1
  O  O173  1  0.01583125  0.37637506  0.74572845  1
  O  O174  1  0.00102278  0.86501378  0.25634084  1
  O  O175  1  -0.06206554  0.84300698  0.74902791  1
  O  O176  1  0.51126947  0.36533635  0.26297167  1
  O  O177  1  0.51185378  0.38482902  0.75825740  1
  O  O178  1  0.51251780  0.85497102  0.25839533  1
  O  O179  1  0.50625105  0.85970168  0.76883602  1
  O  O180  1  0.53160256  0.12800445  0.21989082  1
  O  O181  1  0.50044470  0.12868535  0.75506199  1
  O  O182  1  0.49636183  0.63619580  0.23634981  1
  O  O183  1  0.51055177  0.63419400  0.74155956  1
  O  O184  1  0.96740812  0.11163686  0.26171991  1
  O  O185  1  1.00139318  0.13688229  0.73644646  1
  O  O186  1  0.99580244  0.64162699  0.25497787  1
  O  O187  1  1.00248761  0.62284460  0.73833894  1
  O  O188  1  0.37574634  0.25682042  -0.01117365  1
  O  O189  1  0.36274883  0.24223732  0.51667104  1
  O  O190  1  0.36461239  0.75564354  0.01452274  1
  O  O191  1  0.37368424  0.74927365  0.50723049  1
  O  O192  1  0.88619782  0.25824286  0.00794652  1
  O  O193  1  0.87074873  0.26316376  0.50072151  1
  O  O194  1  0.89278272  0.77665767  0.00238724  1
  O  O195  1  0.87112379  0.76521779  0.50140196  1
  O  O196  1  0.10862309  0.23649662  0.53317913  1
  O  O197  1  0.15430339  0.23007517  0.98125619  1
  O  O198  1  0.10801252  0.74398511  0.49502246  1
  O  O199  1  0.13671987  0.75095533  0.99739453  1
  O  O200  1  0.64315320  0.24041972  0.47378546  1
  O  O201  1  0.62481020  0.25906007  0.98085951  1
  O  O202  1  0.63072986  0.74946660  0.48862784  1
  O  O203  1  0.61899150  0.74133502  0.99284653  1
  O  O204  1  0.49234602  0.24834826  0.11832939  1
  O  O205  1  0.48734672  0.26277354  0.62386288  1
  O  O206  1  0.48933329  0.74019619  0.12997667  1
  O  O207  1  0.50784575  0.74096070  0.64681414  1
  O  O208  1  0.99849751  0.16698983  0.12261294  1
  O  O209  1  0.96858831  0.24885342  0.60669465  1
  O  O210  1  0.99442959  0.75848643  0.14060014  1
  O  O211  1  0.98080463  0.73969026  0.62615784  1
  O  O212  1  0.02689508  0.26856966  0.38944469  1
  O  O213  1  0.02565429  0.23013203  0.88366809  1
  O  O214  1  -0.01102073  0.76122588  0.36223288  1
  O  O215  1  0.01679932  0.76470145  0.87066353  1
  O  O216  1  0.46696006  0.27383439  0.37179076  1
  O  O217  1  0.50732394  0.25669422  0.86772476  1
  O  O218  1  0.51880310  0.74574614  0.37048195  1
  O  O219  1  0.51096819  0.74552539  0.87297181  1
  O  O220  1  0.23503268  0.13722736  0.52415141  1
  O  O221  1  0.27024510  0.12980455  0.98619579  1
  O  O222  1  0.22270634  0.63833917  0.52197481  1
  O  O223  1  0.23179001  0.64287370  1.00901652  1
  O  O224  1  0.74980421  0.13004413  0.48132956  1
  O  O225  1  0.75138776  0.15659510  1.01615923  1
  O  O226  1  0.76186002  0.61714991  0.48328231  1
  O  O227  1  0.76743090  0.61124943  0.99329485  1
  O  O228  1  0.27301622  0.35228378  -0.02710320  1
  O  O229  1  0.23389476  0.35413901  0.51788758  1
  O  O230  1  0.25863380  0.86423276  0.01818219  1
  O  O231  1  0.25434762  0.88317380  0.52345648  1
  O  O232  1  0.76119503  0.38148846  0.00126016  1
  O  O233  1  0.76378036  0.35817820  0.48033948  1
  O  O234  1  0.74221017  0.86254522  0.01337671  1
  O  O235  1  0.74019851  0.87282167  0.50005066  1
  O  O236  1  0.06691644  0.51933986  0.22146026  1
  O  O237  1  0.13091291  0.48227747  0.76784713  1
  O  O238  1  0.12931497  0.97624424  0.24960950  1
  O  O239  1  0.12685742  1.01390181  0.73444744  1
  O  O240  1  0.65357667  0.47475516  0.24497741  1
  O  O241  1  0.63513949  0.48875666  0.74532255  1
  O  O242  1  0.63247098  0.97598142  0.23831603  1
  O  O243  1  0.62733731  0.96990705  0.77809226  1
  O  O244  1  0.37844852  -0.01571878  0.28543665  1
  O  O245  1  0.39087278  0.01843772  0.74281279  1
  O  O246  1  0.32829597  0.47969823  0.23553290  1
  O  O247  1  0.37737986  0.52659939  0.71485230  1
  O  O248  1  0.85404022  -0.00727179  0.24433425  1
  O  O249  1  0.83125839  0.00449887  0.77234630  1
  O  O250  1  0.87732081  0.51450925  0.26370964  1
  O  O251  1  0.85571189  0.49321980  0.74931900  1
  O  O252  1  0.11349029  0.40023785  0.37704333  1
  O  O253  1  0.13713300  0.35378227  0.86735781  1
  O  O254  1  0.10492337  0.87177702  0.36280028  1
  O  O255  1  0.13939623  0.86847752  0.87206341  1
  O  O256  1  0.64456766  0.35998449  0.34604886  1
  O  O257  1  0.61361274  0.36795687  0.86715833  1
  O  O258  1  0.62833672  0.85233763  0.36587612  1
  O  O259  1  0.61807239  0.85751176  0.88034107  1
  O  O260  1  0.38287394  0.12461685  0.14272044  1
  O  O261  1  0.38497817  0.13501487  0.63469828  1
  O  O262  1  0.38054139  0.63859839  0.12443283  1
  O  O263  1  0.35347306  0.71775038  0.56980955  1
  O  O264  1  0.86589026  0.09935869  0.12963625  1
  O  O265  1  0.86194215  0.13029719  0.62313138  1
  O  O266  1  0.90314496  0.61619327  0.13753103  1
  O  O267  1  0.88553077  0.62356814  0.61984528  1
  O  O268  1  0.25158694  0.25467548  0.09812805  1
  O  O269  1  0.24843486  0.25636328  0.62229895  1
  O  O270  1  0.26099449  0.75177537  0.12413647  1
  O  O271  1  0.26044954  0.77817525  0.63744747  1
  O  O272  1  0.74489202  0.20741986  0.06673660  1
  O  O273  1  0.75416959  0.24202281  0.59284509  1
  O  O274  1  0.75844190  0.75293036  0.13130278  1
  O  O275  1  0.75443732  0.77054345  0.63413968  1
  O  O276  1  0.20914514  0.24854490  0.41000702  1
  O  O277  1  0.25258041  0.22778098  0.87120863  1
  O  O278  1  0.23996486  0.73767328  0.36677004  1
  O  O279  1  0.25127797  0.75826255  0.89308417  1
  O  O280  1  0.76755210  0.23032071  0.37627194  1
  O  O281  1  0.74089979  0.25196080  0.87216901  1
  O  O282  1  0.74186822  0.73103302  0.36804684  1
  O  O283  1  0.73818883  0.73254595  0.88177289  1
  O  O284  1  0.03241679  0.09564299  -0.00286144  1
  O  O285  1  -0.02527675  0.10691101  0.47251392  1
  O  O286  1  0.00799051  0.63549949  -0.00613299  1
  O  O287  1  0.00058515  0.61170056  0.49499055  1
  O  O288  1  0.49399974  0.12048456  0.02538901  1
  O  O289  1  0.50213220  0.14396069  0.44649660  1
  O  O290  1  0.49343548  0.60939390  0.01136014  1
  O  O291  1  0.50993844  0.64363245  0.52629517  1
  O  O292  1  0.49947825  0.31494440  0.42150364  1
  O  O293  1  0.49484069  0.38000600  0.97727280  1
  O  O294  1  0.52466693  0.86815780  0.48757825  1
  O  O295  1  0.49239957  0.86089186  0.99333173  1
  O  O296  1  0.99037754  0.38838079  0.50089629  1
  O  O297  1  1.01610019  0.39256913  0.96889925  1
  O  O298  1  0.98672728  0.87106408  0.48425674  1
  O  O299  1  1.01101556  0.88527397  1.00651106  1
  O  O300  1  0.46412811  0.55898200  0.39779908  1
  O  O301  1  0.50553030  0.50537745  0.87566751  1
  O  O302  1  0.52153625  0.97037286  0.36894430  1
  O  O303  1  0.50672269  0.97416482  0.88478907  1
  O  O304  1  0.99257595  0.49390856  0.38848487  1
  O  O305  1  0.99770664  0.51405213  0.86953976  1
  O  O306  1  0.98925430  0.98241876  0.36614352  1
  O  O307  1  0.96744710  1.01347406  0.85707634  1
  O  O308  1  0.01061964  0.00949687  0.14759700  1
  O  O309  1  -0.01404132  -0.01153202  0.64763495  1
  O  O310  1  0.00159477  0.50435665  0.09004512  1
  O  O311  1  -0.01242850  0.51104356  0.61388738  1
  O  O312  1  0.51559698  -0.01740961  0.13291266  1
  O  O313  1  0.54345124  -0.00162641  0.64270851  1
  O  O314  1  0.48191599  0.51441916  0.13183325  1
  O  O315  1  0.52013960  0.52054226  0.62846627  1
  O  O316  1  0.27094542  0.46830805  0.19297956  1
  O  O317  1  0.24673268  0.36782766  0.74235872  1
  O  O318  1  0.24413370  0.86459901  0.24756026  1
  O  O319  1  0.27276133  0.88590340  0.73561235  1
  O  O320  1  0.78320375  0.39110453  0.24895980  1
  O  O321  1  0.73616410  0.39458806  0.76143942  1
  O  O322  1  0.74294527  0.87014447  0.24583045  1
  O  O323  1  0.74052760  0.86425627  0.77184062  1
  O  O324  1  0.33556991  0.26890489  0.24832989  1
  O  O325  1  0.26608542  0.11398448  0.75990925  1
  O  O326  1  0.22953266  0.61913679  0.26181692  1
  O  O327  1  0.25291472  0.61651055  0.71261169  1
  O  O328  1  0.74976562  0.10820103  0.25216319  1
  O  O329  1  0.66517543  0.10201723  0.69393964  1
  O  O330  1  0.76092329  0.61310231  0.25369996  1
  O  O331  1  0.74831104  0.61592328  0.76110002  1
  O  O332  1  0.33043608  0.12973392  0.34352864  1
  O  O333  1  0.37768363  0.12902822  0.86177283  1
  O  O334  1  0.34531982  0.63465719  0.38660708  1
  O  O335  1  0.35880523  0.61832244  0.89393722  1
  O  O336  1  0.85800967  0.10102164  0.35897844  1
  O  O337  1  0.86642575  0.13120167  0.86863330  1
  O  O338  1  0.86740890  0.61947694  0.36972284  1
  O  O339  1  0.86345952  0.63936751  0.87293937  1
  O  O340  1  0.06735344  0.32026877  0.11184707  1
  O  O341  1  0.13416528  0.36691797  0.65092355  1
  O  O342  1  0.14541915  0.86673346  0.14018592  1
  O  O343  1  0.10352605  0.87657823  0.64049279  1
  O  O344  1  0.59241698  0.39543303  0.13397655  1
  O  O345  1  0.62603862  0.36692827  0.64199858  1
  O  O346  1  0.63581642  0.86202270  0.13392707  1
  O  O347  1  0.63719873  0.86374077  0.64841328  1
  O  O348  1  0.14153082  0.25003505  0.25923602  1
  O  O349  1  0.12920441  0.24455954  0.76661245  1
  O  O350  1  0.10996590  0.75819001  0.24670168  1
  O  O351  1  0.13260881  0.74974677  0.76333917  1
  O  O352  1  0.64578636  0.27305998  0.21506660  1
  O  O353  1  0.63335648  0.26831727  0.75920369  1
  O  O354  1  0.61951599  0.74729702  0.25157792  1
  O  O355  1  0.61787711  0.75685966  0.77065113  1
  O  O356  1  0.31820775  0.32434807  0.28964234  1
  O  O357  1  0.37193794  0.23632328  0.73552276  1
  O  O358  1  0.38377175  0.75397503  0.23946690  1
  O  O359  1  0.39443332  0.74238071  0.76487650  1
  O  O360  1  0.86287245  0.22447894  0.23862401  1
  O  O361  1  0.85389942  0.25952208  0.72150056  1
  O  O362  1  0.88137909  0.73734396  0.24654310  1
  O  O363  1  0.88699429  0.78685338  0.75904531  1
  O  O364  1  0.36624172  0.54887820  0.53214066  1
  O  O365  1  0.39674392  0.48026448  0.98988090  1
  O  O366  1  0.37259059  1.04061419  0.46397617  1
  O  O367  1  0.38288929  0.97982846  1.01274415  1
  O  O368  1  0.87425489  0.48793102  0.48802337  1
  O  O369  1  0.88813442  0.48011693  0.98548945  1
  O  O370  1  0.86419877  0.98976541  0.48609890  1
  O  O371  1  0.90593852  0.99721161  1.02509896  1
  O  O372  1  0.16096753  0.01089029  0.00603220  1
  O  O373  1  0.11625350  0.01100722  0.55074538  1
  O  O374  1  0.10875236  0.52500602  -0.01864219  1
  O  O375  1  0.10746440  0.50308729  0.50862483  1
  O  O376  1  0.61593660  -0.02341227  0.01436110  1
  O  O377  1  0.61753149  0.03147813  0.49758072  1
  O  O378  1  0.60497087  0.49072448  -0.00151061  1
  O  O379  1  0.63441810  0.49016215  0.49492988  1
  O  O380  1  0.38477812  0.37101710  0.09869318  1
  O  O381  1  0.36418889  0.36213596  0.62562350  1
  O  O382  1  0.36821926  0.86353900  0.12628988  1
  O  O383  1  0.39335436  0.88002990  0.61667129  1
  O  O384  1  0.90251402  0.37328585  0.09574958  1
  O  O385  1  0.87216269  0.38137728  0.60647924  1
  O  O386  1  0.86376778  0.87407604  0.11302532  1
  O  O387  1  0.84407848  0.89225361  0.60886651  1
  O  O388  1  0.10995963  0.12763632  0.35856564  1
  O  O389  1  0.14610729  0.12117192  0.88115517  1
  O  O390  1  0.13466944  0.61802711  0.39541215  1
  O  O391  1  0.12504667  0.64960925  0.88507517  1
  O  O392  1  0.63285040  0.12192576  0.36437517  1
  O  O393  1  0.62105684  0.14325718  0.87734563  1
  O  O394  1  0.63811435  0.62931196  0.38106991  1
  O  O395  1  0.62963939  0.63157009  0.87951865  1
