# generated using pymatgen
data_V35Zn35O128
_symmetry_space_group_name_H-M   'P 1'
_cell_length_a   16.90632762
_cell_length_b   16.93151935
_cell_length_c   16.99050293
_cell_angle_alpha   90.04885992
_cell_angle_beta   89.79334963
_cell_angle_gamma   89.63438748
_symmetry_Int_Tables_number   1
_chemical_formula_structural   V35Zn35O128
_chemical_formula_sum   'V70 Zn70 O256'
_cell_volume   4863.39577341
_cell_formula_units_Z   2
loop_
 _symmetry_equiv_pos_site_id
 _symmetry_equiv_pos_as_xyz
  1  'x, y, z'
loop_
 _atom_site_type_symbol
 _atom_site_label
 _atom_site_symmetry_multiplicity
 _atom_site_fract_x
 _atom_site_fract_y
 _atom_site_fract_z
 _atom_site_occupancy
  V  V0  1  0.00803328  0.34187843  0.88491931  1
  V  V1  1  0.25524356  -0.00616175  0.23431327  1
  V  V2  1  0.02975685  0.74942132  0.24288220  1
  V  V3  1  0.63050306  0.22419447  0.88043151  1
  V  V4  1  0.87533075  0.63288858  0.25034282  1
  V  V5  1  0.62453965  0.25866298  0.38564223  1
  V  V6  1  0.36903575  0.37326136  0.51908609  1
  V  V7  1  0.77436143  -0.02022027  0.75793363  1
  V  V8  1  0.86200442  0.14703354  0.75293469  1
  V  V9  1  0.87776141  0.13931932  0.26618310  1
  V  V10  1  0.37307481  -0.02801716  0.87507251  1
  V  V11  1  0.50460333  0.87413012  0.38713664  1
  V  V12  1  0.37674957  0.63500977  0.24674347  1
  V  V13  1  0.76801486  0.76670892  0.01943018  1
  V  V14  1  -0.02507739  0.14579793  0.62291187  1
  V  V15  1  0.50808314  0.49866312  0.51797359  1
  V  V16  1  0.11028772  0.86263999  0.74446978  1
  V  V17  1  0.49634786  0.10858731  0.62218813  1
  V  V18  1  0.38657032  0.00099867  0.37881405  1
  V  V19  1  0.24896535  0.64126696  0.39887436  1
  V  V20  1  0.62173513  0.61404668  0.00806940  1
  V  V21  1  0.61662106  0.87561602  0.21181303  1
  V  V22  1  0.50915029  0.37209540  0.88587189  1
  V  V23  1  0.19533442  0.45735055  0.20247010  1
  V  V24  1  0.76374966  0.62378883  0.87625103  1
  V  V25  1  0.40276189  0.12157967  0.24008377  1
  V  V26  1  0.85589904  0.35873618  0.51973489  1
  V  V27  1  0.62114968  0.11176768  0.49655084  1
  V  V28  1  0.37653049  0.49189251  0.87710516  1
  V  V29  1  0.24034510  0.22738223  -0.00673854  1
  V  V30  1  0.28019936  0.73304083  -0.00158104  1
  V  V31  1  0.86668636  0.74508428  0.61629058  1
  V  V32  1  0.13248011  0.62691991  0.00619819  1
  V  V33  1  0.25984350  0.84630666  0.12016870  1
  V  V34  1  0.88150838  0.25691687  0.12811791  1
  V  V35  1  0.62817803  0.75146206  0.37307249  1
  V  V36  1  0.62819952  0.76672431  0.88244437  1
  V  V37  1  0.49679687  0.74725575  0.23682700  1
  V  V38  1  0.74492544  0.62724671  0.37443079  1
  V  V39  1  0.35860947  0.87580510  0.51104733  1
  V  V40  1  0.25544383  -0.01150352  0.73477164  1
  V  V41  1  0.38566499  0.24518750  0.13123985  1
  V  V42  1  -0.00745247  0.01273600  0.50694496  1
  V  V43  1  0.74140765  0.50346737  0.24428547  1
  V  V44  1  0.86556968  0.87405656  0.48542172  1
  V  V45  1  0.00046513  0.61701023  0.12942650  1
  V  V46  1  0.01664346  0.12970933  0.12587717  1
  V  V47  1  0.00550997  0.88734230  0.36058303  1
  V  V48  1  0.65494978  0.03476433  0.11346027  1
  V  V49  1  0.24715451  0.12891758  0.36252496  1
  V  V50  1  0.13257990  0.76663534  0.39843764  1
  V  V51  1  0.61490948  0.37736807  0.24250290  1
  V  V52  1  0.24321987  0.47512178  0.74562102  1
  V  V53  1  0.01094863  0.49421559  -0.00470633  1
  V  V54  1  0.14832498  0.13565689  0.53098411  1
  V  V55  1  0.87080170  0.38191260  -0.00174634  1
  V  V56  1  0.88177310  0.48781550  0.37965311  1
  V  V57  1  0.48913936  0.38015493  0.36532381  1
  V  V58  1  0.36180889  0.36510523  0.00342908  1
  V  V59  1  0.62180966  0.87598417  0.73605263  1
  V  V60  1  0.74356842  0.37978197  0.12188096  1
  V  V61  1  0.01982073  0.27201115  0.25528698  1
  V  V62  1  0.37373506  0.52115236  0.39027575  1
  V  V63  1  -0.00374179  -0.04344180  -0.00721374  1
  V  V64  1  0.37416656  0.13129134  0.75741617  1
  V  V65  1  0.24569226  0.61544343  0.86272972  1
  V  V66  1  0.50879769  0.25724325  0.74636919  1
  V  V67  1  0.62366929  0.62686216  0.51401026  1
  V  V68  1  0.72586640  0.50509469  0.74715106  1
  V  V69  1  0.11653479  0.35060996  0.74412097  1
  Zn  Zn70  1  0.12743487  0.26527506  0.38212315  1
  Zn  Zn71  1  0.77546572  -0.01749527  0.25110869  1
  Zn  Zn72  1  0.71979618  0.19235965  0.02475275  1
  Zn  Zn73  1  0.75950377  0.12867838  0.38001640  1
  Zn  Zn74  1  0.13748806  0.00257915  0.10821125  1
  Zn  Zn75  1  0.07140001  0.58528750  0.52584439  1
  Zn  Zn76  1  0.20255400  0.19238818  0.18393785  1
  Zn  Zn77  1  0.16659810  0.15312585  0.70301667  1
  Zn  Zn78  1  0.20263669  0.64779713  0.18797335  1
  Zn  Zn79  1  0.05012475  0.69562686  0.67566454  1
  Zn  Zn80  1  0.68949335  0.20486071  0.19800290  1
  Zn  Zn81  1  0.67560001  0.07822403  0.68050117  1
  Zn  Zn82  1  0.68712309  0.69197038  0.18287041  1
  Zn  Zn83  1  0.69465615  0.69531022  0.69271217  1
  Zn  Zn84  1  0.28305214  0.33666337  0.32975788  1
  Zn  Zn85  1  0.31129187  0.30160421  0.81615790  1
  Zn  Zn86  1  0.31278003  0.81721538  0.31759186  1
  Zn  Zn87  1  0.25236702  0.83555038  0.84804624  1
  Zn  Zn88  1  0.80607995  0.31186672  0.30896600  1
  Zn  Zn89  1  0.79667341  0.32177072  0.82099776  1
  Zn  Zn90  1  0.81602939  0.82173771  0.29038371  1
  Zn  Zn91  1  0.80879367  0.78983659  0.79814749  1
  Zn  Zn92  1  0.18778675  0.44002061  0.44266450  1
  Zn  Zn93  1  0.18503997  0.42720835  0.93652246  1
  Zn  Zn94  1  0.18603053  0.96284357  0.43962536  1
  Zn  Zn95  1  0.16261692  0.98841567  0.90379970  1
  Zn  Zn96  1  0.68537588  0.44010768  0.43545976  1
  Zn  Zn97  1  0.68854133  0.44588150  0.93266603  1
  Zn  Zn98  1  0.68811658  0.95319375  0.41699319  1
  Zn  Zn99  1  0.70702658  0.94379704  0.94241811  1
  Zn  Zn100  1  0.33959092  0.06684749  0.04257352  1
  Zn  Zn101  1  0.31056426  0.08347101  0.56435812  1
  Zn  Zn102  1  0.32989813  0.54939391  0.07233029  1
  Zn  Zn103  1  0.22430465  0.60008059  0.60481683  1
  Zn  Zn104  1  0.84159118  0.05420096  0.06918012  1
  Zn  Zn105  1  0.80979930  0.05508092  0.56217416  1
  Zn  Zn106  1  0.81548017  0.56683593  0.06286402  1
  Zn  Zn107  1  0.81240571  0.55589415  0.56276271  1
  Zn  Zn108  1  0.39070266  0.43788217  0.19955033  1
  Zn  Zn109  1  0.43953957  0.43642428  0.69769704  1
  Zn  Zn110  1  0.42799064  0.92294910  0.18611704  1
  Zn  Zn111  1  0.43911169  0.93372247  0.69274241  1
  Zn  Zn112  1  0.93405245  0.44553953  0.19092186  1
  Zn  Zn113  1  0.92994160  0.32352707  0.69287389  1
  Zn  Zn114  1  0.94217104  0.94526481  0.18213987  1
  Zn  Zn115  1  0.93479659  0.91459173  0.67227857  1
  Zn  Zn116  1  0.06532505  0.06708380  0.28548821  1
  Zn  Zn117  1  -0.01032388  0.02021991  0.79868543  1
  Zn  Zn118  1  0.05906777  0.56755713  0.33746038  1
  Zn  Zn119  1  0.06977032  0.54613329  0.81776403  1
  Zn  Zn120  1  0.58770894  0.05477720  0.30708114  1
  Zn  Zn121  1  0.55807574  0.04511735  0.81850101  1
  Zn  Zn122  1  0.55731603  0.56165749  0.31288984  1
  Zn  Zn123  1  0.56775467  0.58098964  0.81348718  1
  Zn  Zn124  1  0.43298708  0.19075706  0.42781875  1
  Zn  Zn125  1  0.44340069  0.18244731  0.93894521  1
  Zn  Zn126  1  0.41729354  0.67857616  0.50364290  1
  Zn  Zn127  1  0.45107735  0.67767194  0.90681262  1
  Zn  Zn128  1  0.94220875  0.22739369  0.44781152  1
  Zn  Zn129  1  0.90771520  0.17041099  0.95243344  1
  Zn  Zn130  1  0.92287236  0.66845538  0.46309661  1
  Zn  Zn131  1  0.93667304  0.67910603  0.94589884  1
  Zn  Zn132  1  0.08152691  0.32239642  0.08217342  1
  Zn  Zn133  1  0.04726137  0.39385948  0.54406810  1
  Zn  Zn134  1  0.08101882  0.80870462  0.06887424  1
  Zn  Zn135  1  0.05654061  0.83339287  0.56205335  1
  Zn  Zn136  1  0.56079515  0.30895727  0.05794531  1
  Zn  Zn137  1  0.51419028  0.28125334  0.53701339  1
  Zn  Zn138  1  0.54019016  0.76465439  0.03324358  1
  Zn  Zn139  1  0.56926834  0.81601266  0.55538862  1
  O  O140  1  0.12025863  0.13170035  0.12777715  1
  O  O141  1  0.08569547  0.12315998  0.61817445  1
  O  O142  1  0.11594889  0.62203425  0.11244980  1
  O  O143  1  0.11610373  0.62258479  0.61935635  1
  O  O144  1  0.64708726  0.13792683  0.11424331  1
  O  O145  1  0.61156171  0.12910589  0.60586263  1
  O  O146  1  0.63481263  0.62605551  0.10853599  1
  O  O147  1  0.62922034  0.63837099  0.61075696  1
  O  O148  1  0.38273404  0.39108764  0.37762888  1
  O  O149  1  0.37807246  0.37237218  0.88682672  1
  O  O150  1  0.38682410  0.88694612  0.37665694  1
  O  O151  1  0.36047136  0.87281083  0.85295696  1
  O  O152  1  0.85379395  0.38898621  0.37525973  1
  O  O153  1  0.88797789  0.36601925  0.89565488  1
  O  O154  1  0.90083544  0.87231697  0.37234749  1
  O  O155  1  0.92211473  0.82212839  0.86013061  1
  O  O156  1  0.27357652  0.00239359  0.35482957  1
  O  O157  1  0.26304881  0.00521321  0.84731204  1
  O  O158  1  0.26757465  0.52302583  0.39182888  1
  O  O159  1  0.25184492  0.49630555  0.86820409  1
  O  O160  1  0.70433478  0.03005293  0.33385414  1
  O  O161  1  0.76048909  -0.00457042  0.85726870  1
  O  O162  1  0.74548971  0.51132708  0.35991097  1
  O  O163  1  0.74670761  0.51719687  0.86551031  1
  O  O164  1  0.24092582  0.53320145  0.14741666  1
  O  O165  1  0.25751678  0.50085934  0.65031600  1
  O  O166  1  0.25955683  1.00712057  0.13110867  1
  O  O167  1  0.25346030  1.01511626  0.63755360  1
  O  O168  1  0.75589355  0.49145899  0.13439274  1
  O  O169  1  0.75413178  0.52167136  0.65087109  1
  O  O170  1  0.75254432  1.01659361  0.13770951  1
  O  O171  1  0.75405096  1.00050960  0.64581322  1
  O  O172  1  0.00443642  0.36987540  0.23746972  1
  O  O173  1  0.00362552  0.35511982  0.77614686  1
  O  O174  1  0.01026987  0.85862432  0.25114243  1
  O  O175  1  0.01438656  0.90781372  0.75419255  1
  O  O176  1  0.49804022  0.39251238  0.26064164  1
  O  O177  1  0.49367657  0.36198080  0.76985098  1
  O  O178  1  0.50757306  0.86747586  0.24938588  1
  O  O179  1  0.52211352  0.87975298  0.74866700  1
  O  O180  1  0.50134258  0.11564154  0.25139880  1
  O  O181  1  0.50045320  0.12987488  0.73365622  1
  O  O182  1  0.49418865  0.64154020  0.25662771  1
  O  O183  1  0.48088351  0.64635984  0.80334055  1
  O  O184  1  0.99481318  0.15246621  0.24679046  1
  O  O185  1  0.97385849  0.11752170  0.72738298  1
  O  O186  1  0.99936803  0.63363373  0.24686790  1
  O  O187  1  1.00398274  0.62298473  0.76043519  1
  O  O188  1  0.36751090  0.25478991  -0.00061690  1
  O  O189  1  0.39641513  0.27232296  0.50084147  1
  O  O190  1  0.37823762  0.72399494  -0.00662818  1
  O  O191  1  0.36442287  0.77577745  0.49489380  1
  O  O192  1  0.88672143  0.27283508  0.01901297  1
  O  O193  1  0.84334754  0.25902990  0.50630837  1
  O  O194  1  0.86628290  0.73918387  0.00767663  1
  O  O195  1  0.87329377  0.77049396  0.48158390  1
  O  O196  1  0.11261748  0.21745556  0.48653360  1
  O  O197  1  0.14419795  0.25453706  1.01629036  1
  O  O198  1  0.12290476  0.76075480  0.49514594  1
  O  O199  1  0.12908762  0.72670249  0.99740372  1
  O  O200  1  0.61902733  0.26425392  0.48662179  1
  O  O201  1  0.62538928  0.24473854  0.98719730  1
  O  O202  1  0.61350365  0.73400505  0.48536176  1
  O  O203  1  0.65249271  0.74774171  0.99352873  1
  O  O204  1  0.48516568  0.24205091  0.11016627  1
  O  O205  1  0.51330207  0.26201229  0.64684142  1
  O  O206  1  0.49516814  0.75473471  0.13809671  1
  O  O207  1  0.48527455  0.73138688  0.60728753  1
  O  O208  1  1.00188583  0.24968924  0.13426676  1
  O  O209  1  0.98333328  0.24400074  0.62515694  1
  O  O210  1  1.01129562  0.73924693  0.13836547  1
  O  O211  1  0.98440761  0.75881222  0.60746490  1
  O  O212  1  0.01118518  0.25967215  0.35861129  1
  O  O213  1  0.00001792  0.24670975  0.90113391  1
  O  O214  1  0.02906494  0.76233683  0.35934097  1
  O  O215  1  -0.02686288  0.76760468  0.86584911  1
  O  O216  1  0.50243115  0.27487161  0.37429581  1
  O  O217  1  0.50931565  0.25600027  0.87732370  1
  O  O218  1  0.51074333  0.76827766  0.36189830  1
  O  O219  1  0.52802426  0.77133931  0.90846324  1
  O  O220  1  0.24166315  0.09669002  0.46760003  1
  O  O221  1  0.24830299  0.12606992  1.00004627  1
  O  O222  1  0.25188403  0.63786338  0.49882919  1
  O  O223  1  0.24408042  0.62132093  1.00708231  1
  O  O224  1  0.72780140  0.11372827  0.49312622  1
  O  O225  1  0.80644251  0.12965204  0.99590968  1
  O  O226  1  0.73066911  0.61520785  0.48386952  1
  O  O227  1  0.74702838  0.62289657  0.99028656  1
  O  O228  1  0.25937269  0.36518064  0.00073113  1
  O  O229  1  0.27175538  0.38139781  0.50314408  1
  O  O230  1  0.25843252  0.83401955  0.00357103  1
  O  O231  1  0.26135973  0.89986196  0.49741817  1
  O  O232  1  0.76438423  0.38835072  0.00454463  1
  O  O233  1  0.75888480  0.39654882  0.50531585  1
  O  O234  1  0.76731182  0.86603119  0.00219925  1
  O  O235  1  0.76823975  0.89233426  0.46739908  1
  O  O236  1  0.13724390  0.50952135  0.26888685  1
  O  O237  1  0.13641505  0.47601778  0.75831261  1
  O  O238  1  0.15650654  1.00122896  0.24989761  1
  O  O239  1  0.14846307  1.03622851  0.74461832  1
  O  O240  1  0.63027914  0.49234987  0.25135226  1
  O  O241  1  0.62397109  0.50580384  0.75215220  1
  O  O242  1  0.60059306  0.98878170  0.19729800  1
  O  O243  1  0.63684865  0.98707402  0.75184166  1
  O  O244  1  0.38004232  0.00762506  0.24878589  1
  O  O245  1  0.36776677  0.00755508  0.74768117  1
  O  O246  1  0.38784616  0.52906435  0.28110833  1
  O  O247  1  0.35736910  0.47800649  0.76941335  1
  O  O248  1  0.88381619  0.03901064  0.26229204  1
  O  O249  1  0.87740763  -0.01499775  0.74747273  1
  O  O250  1  0.86025645  0.50896199  0.25767486  1
  O  O251  1  0.92486990  0.51318143  0.73938014  1
  O  O252  1  0.17691119  0.36234326  0.36392261  1
  O  O253  1  0.11099330  0.36467725  0.87359478  1
  O  O254  1  0.12410750  0.87310332  0.38212330  1
  O  O255  1  0.14713319  0.88364801  0.84740445  1
  O  O256  1  0.61207732  0.37565673  0.36631937  1
  O  O257  1  0.61004096  0.37560488  0.88562954  1
  O  O258  1  0.61235158  0.86896728  0.38719771  1
  O  O259  1  0.64388514  0.86820978  0.87726607  1
  O  O260  1  0.38488824  0.12479823  0.13741114  1
  O  O261  1  0.39248572  0.12834110  0.63077903  1
  O  O262  1  0.36895741  0.63484794  0.14979424  1
  O  O263  1  0.35479098  0.65320902  0.61846793  1
  O  O264  1  0.88943103  0.14561857  0.14294064  1
  O  O265  1  0.86855937  0.13021792  0.63074132  1
  O  O266  1  0.88699933  0.61953859  0.13894657  1
  O  O267  1  0.88506973  0.64516994  0.57606664  1
  O  O268  1  0.27586031  0.23775382  0.11029224  1
  O  O269  1  0.22248033  0.16911533  0.59271813  1
  O  O270  1  0.25454124  0.74100331  0.11781724  1
  O  O271  1  0.35817730  0.70293109  0.67459828  1
  O  O272  1  0.76112810  0.26718936  0.12286435  1
  O  O273  1  0.70401345  0.29798089  0.63595722  1
  O  O274  1  0.75716257  0.75387165  0.11975353  1
  O  O275  1  0.76399285  0.74314017  0.61469588  1
  O  O276  1  0.27337211  0.22623312  0.36948694  1
  O  O277  1  0.25037898  0.24569543  0.89331228  1
  O  O278  1  0.24264287  0.75461473  0.38213619  1
  O  O279  1  0.25788308  0.72265371  0.88820883  1
  O  O280  1  0.72638205  0.25240198  0.37051383  1
  O  O281  1  0.72986050  0.24734491  0.87342663  1
  O  O282  1  0.73613946  0.74272505  0.35882248  1
  O  O283  1  0.75295000  0.74018153  0.88386642  1
  O  O284  1  -0.01022795  0.12330223  0.02971544  1
  O  O285  1  -0.02695279  0.12164151  0.51025038  1
  O  O286  1  0.01031463  0.61366580  0.00655934  1
  O  O287  1  0.01642763  0.61664290  0.43753308  1
  O  O288  1  0.45117930  0.10019980  0.01269730  1
  O  O289  1  0.50440123  0.14465803  0.51448775  1
  O  O290  1  0.52203446  0.64574066  -0.00021025  1
  O  O291  1  0.50998731  0.61076447  0.50294342  1
  O  O292  1  0.49869642  0.39028093  0.48872736  1
  O  O293  1  0.48681589  0.36962836  0.98851466  1
  O  O294  1  0.49083373  0.87262311  0.48868402  1
  O  O295  1  0.49685590  0.89606412  1.01474403  1
  O  O296  1  0.96329381  0.35043666  0.48912359  1
  O  O297  1  1.00267594  0.38197457  0.99978852  1
  O  O298  1  0.99891621  0.89762971  0.47994759  1
  O  O299  1  1.00901469  0.85631912  0.99581885  1
  O  O300  1  0.49470436  0.49561251  0.38585698  1
  O  O301  1  0.48229466  0.48321365  0.87053585  1
  O  O302  1  0.49723055  0.98396499  0.36137535  1
  O  O303  1  0.47549446  0.98798754  0.86707540  1
  O  O304  1  0.97813023  0.48486924  0.35475341  1
  O  O305  1  0.99951121  0.49584777  0.89495329  1
  O  O306  1  1.01347355  0.98751570  0.35287029  1
  O  O307  1  0.96141555  0.98506327  0.90448222  1
  O  O308  1  0.02462139  0.02598747  0.16473488  1
  O  O309  1  -0.00823001  -0.00055915  0.60460745  1
  O  O310  1  0.00062932  0.51082219  0.11899921  1
  O  O311  1  -0.07176914  0.58695574  0.73261468  1
  O  O312  1  0.49380800  -0.05178992  0.06637397  1
  O  O313  1  0.50134144  0.01077426  0.62271367  1
  O  O314  1  0.42806948  0.50842630  0.12045766  1
  O  O315  1  0.50087318  0.49232181  0.61641752  1
  O  O316  1  0.28288885  0.40394306  0.23692076  1
  O  O317  1  0.23656459  0.36808773  0.75197834  1
  O  O318  1  0.26641240  0.88298072  0.23383678  1
  O  O319  1  0.24098148  0.88803287  0.73221111  1
  O  O320  1  0.73696682  0.38401978  0.23940065  1
  O  O321  1  0.75775105  0.40873711  0.76379134  1
  O  O322  1  0.70640999  0.87843610  0.25952413  1
  O  O323  1  0.75086444  0.87713151  0.75065585  1
  O  O324  1  0.27147757  0.11405490  0.25245190  1
  O  O325  1  0.27476867  0.13768380  0.74629273  1
  O  O326  1  0.27530980  0.64185840  0.27922948  1
  O  O327  1  0.24066695  0.60801710  0.76502038  1
  O  O328  1  0.77315482  0.15273367  0.25457976  1
  O  O329  1  0.76468585  0.11085451  0.75161330  1
  O  O330  1  0.75448299  0.62105517  0.25210272  1
  O  O331  1  0.74444651  0.62192870  0.76770865  1
  O  O332  1  0.38374998  0.11262844  0.36126676  1
  O  O333  1  0.38773116  0.11660261  0.85656634  1
  O  O334  1  0.37581094  0.62646924  0.40049177  1
  O  O335  1  0.35664547  0.59778393  0.88459575  1
  O  O336  1  0.87709982  0.15896901  0.36881787  1
  O  O337  1  0.88979642  0.12873033  0.84749777  1
  O  O338  1  0.85870991  0.61298719  0.36922403  1
  O  O339  1  0.86488165  0.62414017  0.87692658  1
  O  O340  1  0.14188904  0.39864590  0.14059497  1
  O  O341  1  0.09361394  0.36790271  0.64867337  1
  O  O342  1  0.15759563  0.88079871  0.11581924  1
  O  O343  1  0.12037180  0.87904799  0.64245881  1
  O  O344  1  0.63251223  0.36901961  0.12795021  1
  O  O345  1  0.66618893  0.35923924  0.63554480  1
  O  O346  1  0.62416519  0.85362296  0.11856557  1
  O  O347  1  0.62889356  0.86207316  0.63643075  1
  O  O348  1  0.12170452  0.25581897  0.24311579  1
  O  O349  1  0.13021191  0.25179023  0.74889673  1
  O  O350  1  0.12880702  0.73685536  0.24284974  1
  O  O351  1  0.10167605  0.76299633  0.75298732  1
  O  O352  1  0.61788402  0.27131460  0.25893309  1
  O  O353  1  0.60917201  0.24533965  0.77146095  1
  O  O354  1  0.61140310  0.75748643  0.25085615  1
  O  O355  1  0.63573462  0.76498776  0.76846190  1
  O  O356  1  0.38326418  0.23380227  0.23667094  1
  O  O357  1  0.39472112  0.23920135  0.75979396  1
  O  O358  1  0.39034757  0.74777979  0.26288286  1
  O  O359  1  0.45283305  0.74659150  0.67366653  1
  O  O360  1  0.88877945  0.26292005  0.24130502  1
  O  O361  1  0.85721205  0.25130055  0.74990043  1
  O  O362  1  0.88540232  0.73272360  0.26400985  1
  O  O363  1  0.87712635  0.74634718  0.71820950  1
  O  O364  1  0.39141928  0.49380614  0.49602840  1
  O  O365  1  0.36150511  0.47808790  0.98513900  1
  O  O366  1  0.38084975  1.00243954  0.47915346  1
  O  O367  1  0.35008940  0.97745440  0.97291762  1
  O  O368  1  0.87665395  0.50068796  0.48207045  1
  O  O369  1  0.89167072  0.48694986  1.01046083  1
  O  O370  1  0.88478983  0.99385691  0.48937673  1
  O  O371  1  0.92003821  0.97202427  1.06539419  1
  O  O372  1  0.09751072  -0.00538981  -0.00134492  1
  O  O373  1  0.10252334  0.03184168  0.48722283  1
  O  O374  1  0.11593146  0.50081853  0.00179064  1
  O  O375  1  0.11180609  0.47910676  0.51250355  1
  O  O376  1  0.64322254  0.00171024  0.02024147  1
  O  O377  1  0.60768165  0.01515568  0.48370655  1
  O  O378  1  0.62064804  0.51416617  -0.00575532  1
  O  O379  1  0.61492313  0.51231884  0.49829126  1
  O  O380  1  0.38082029  0.35700698  0.10987670  1
  O  O381  1  0.38188933  0.37917956  0.61733874  1
  O  O382  1  0.35817746  0.87266206  0.11415102  1
  O  O383  1  0.38068760  0.88811913  0.60754585  1
  O  O384  1  0.86640419  0.37574389  0.12084267  1
  O  O385  1  0.87092927  0.38142920  0.61856716  1
  O  O386  1  0.84708732  0.89834526  0.21386051  1
  O  O387  1  0.87168493  0.86447818  0.59414819  1
  O  O388  1  0.14684848  0.13303338  0.34819409  1
  O  O389  1  0.10676629  0.05082149  0.81764044  1
  O  O390  1  0.14845459  0.64462526  0.37684078  1
  O  O391  1  0.13941515  0.60915928  0.89192823  1
  O  O392  1  0.60323517  0.14883652  0.38850082  1
  O  O393  1  0.61772210  0.12491408  0.87634157  1
  O  O394  1  0.62905413  0.63509955  0.36945875  1
  O  O395  1  0.63728985  0.64169448  0.88761000  1
