# generated using pymatgen
data_V35Zn35O128
_symmetry_space_group_name_H-M   'P 1'
_cell_length_a   16.80667405
_cell_length_b   16.85094835
_cell_length_c   16.85713936
_cell_angle_alpha   89.83737700
_cell_angle_beta   89.94231302
_cell_angle_gamma   90.05476141
_symmetry_Int_Tables_number   1
_chemical_formula_structural   V35Zn35O128
_chemical_formula_sum   'V70 Zn70 O256'
_cell_volume   4774.05955999
_cell_formula_units_Z   2
loop_
 _symmetry_equiv_pos_site_id
 _symmetry_equiv_pos_as_xyz
  1  'x, y, z'
loop_
 _atom_site_type_symbol
 _atom_site_label
 _atom_site_symmetry_multiplicity
 _atom_site_fract_x
 _atom_site_fract_y
 _atom_site_fract_z
 _atom_site_occupancy
  V  V0  1  0.39057783  0.24155673  0.61582433  1
  V  V1  1  0.87274577  0.63238727  0.75629350  1
  V  V2  1  0.74503522  0.74726747  0.00902264  1
  V  V3  1  0.37840894  0.50519975  0.37560152  1
  V  V4  1  0.38119073  0.36076969  -0.00387454  1
  V  V5  1  0.23857644  0.88047770  0.62217864  1
  V  V6  1  0.74750255  0.09969567  0.37602165  1
  V  V7  1  0.12400172  0.50708551  0.09613678  1
  V  V8  1  0.14601350  0.71674532  0.88061765  1
  V  V9  1  0.01332024  0.00158170  0.48904384  1
  V  V10  1  0.87261156  0.87644031  0.00525417  1
  V  V11  1  0.50269164  0.23155483  0.24922570  1
  V  V12  1  0.74597941  0.25399373  0.48414766  1
  V  V13  1  0.51793813  0.63126660  0.12825441  1
  V  V14  1  0.50962931  0.61840836  0.60871954  1
  V  V15  1  0.36677997  0.87442518  -0.00745652  1
  V  V16  1  0.11606559  0.00446798  0.12570091  1
  V  V17  1  0.51159775  0.37498853  0.87696333  1
  V  V18  1  0.88206524  0.38800514  0.49955689  1
  V  V19  1  0.85663465  0.25176626  0.12885199  1
  V  V20  1  0.88123045  -0.00095097  0.87422537  1
  V  V21  1  0.00126191  0.37624263  0.87957942  1
  V  V22  1  0.50354829  0.24449131  0.75568999  1
  V  V23  1  0.24304592  0.87174168  0.13201937  1
  V  V24  1  0.81674374  0.17458605  0.80791281  1
  V  V25  1  0.51139644  0.37582006  0.36674510  1
  V  V26  1  0.48936744  0.11718373  0.11336321  1
  V  V27  1  0.00596133  0.61850920  0.62279944  1
  V  V28  1  0.36040487  0.13060145  0.75554902  1
  V  V29  1  0.61905976  0.09812666  0.50545924  1
  V  V30  1  0.26173416  0.00340776  0.25187996  1
  V  V31  1  0.01364671  0.12371279  0.62012592  1
  V  V32  1  0.61923420  0.38426657  0.72737877  1
  V  V33  1  0.63426710  -0.00530604  0.13290698  1
  V  V34  1  0.10468604  0.76457916  0.37275949  1
  V  V35  1  0.30870059  0.53160039  0.76533869  1
  V  V36  1  0.86390535  0.50002986  0.88635858  1
  V  V37  1  0.49152773  0.74923916  0.74507321  1
  V  V38  1  0.34958861  0.61968096  0.24735833  1
  V  V39  1  0.50648278  0.87847763  0.87224710  1
  V  V40  1  0.26111692  0.36753819  0.11983942  1
  V  V41  1  0.63311182  0.46557710  0.13140883  1
  V  V42  1  0.87962841  0.76206155  0.62659830  1
  V  V43  1  0.87013238  0.24130203  0.61301874  1
  V  V44  1  0.87049315  0.10641164  0.25626836  1
  V  V45  1  0.37937852  0.38093571  0.50264135  1
  V  V46  1  0.37429114  0.88832487  0.49106604  1
  V  V47  1  0.51019495  0.87606133  0.36774205  1
  V  V48  1  0.74152257  0.50685934  0.73249310  1
  V  V49  1  0.24561805  0.24477835  0.50090538  1
  V  V50  1  0.00285230  0.24833532  0.24594409  1
  V  V51  1  0.12623426  0.23684163  0.37082117  1
  V  V52  1  0.23712985  -0.00296415  0.75275542  1
  V  V53  1  0.85815488  0.36609369  0.00352906  1
  V  V54  1  0.13513964  0.38966563  0.24619999  1
  V  V55  1  0.36547312  0.74691151  0.12231957  1
  V  V56  1  0.87575951  0.89254491  0.49845431  1
  V  V57  1  0.12363990  0.37684914  0.72945772  1
  V  V58  1  0.23642041  0.62364850  0.40750027  1
  V  V59  1  0.36502875  0.74573146  0.61870799  1
  V  V60  1  0.76644483  0.50450654  0.25425231  1
  V  V61  1  0.62614533  0.73157397  0.87271326  1
  V  V62  1  0.13006192  0.13317374  -0.00338750  1
  V  V63  1  0.00138468  0.39454981  0.37408327  1
  V  V64  1  0.00849832  0.86366167  0.86332874  1
  V  V65  1  -0.00324640  0.24164994  0.75355181  1
  V  V66  1  0.74152299  -0.00124681  0.75924971  1
  V  V67  1  0.73581935  0.87815299  0.63772867  1
  V  V68  1  0.50269534  0.50672874  0.00222436  1
  V  V69  1  0.27157494  0.12139405  0.37065776  1
  Zn  Zn70  1  0.66004204  -0.12560568  0.25388143  1
  Zn  Zn71  1  0.14513872  0.25074829  0.87815856  1
  Zn  Zn72  1  -0.00960174  0.11689928  0.12024326  1
  Zn  Zn73  1  0.50903501  0.00143736  -0.00543737  1
  Zn  Zn74  1  0.49016100  0.74525644  0.25889900  1
  Zn  Zn75  1  0.37204716  0.01500180  0.88067521  1
  Zn  Zn76  1  0.19383543  0.18612298  0.18609780  1
  Zn  Zn77  1  0.18851052  0.20888682  0.68842374  1
  Zn  Zn78  1  0.15958803  0.69140754  0.18224144  1
  Zn  Zn79  1  0.18466155  0.69067732  0.70281073  1
  Zn  Zn80  1  0.67503285  0.18067340  0.20118116  1
  Zn  Zn81  1  0.68113217  0.19174622  0.67663449  1
  Zn  Zn82  1  0.76302984  0.71938410  0.22219652  1
  Zn  Zn83  1  0.68309038  0.69581248  0.69160361  1
  Zn  Zn84  1  0.32170443  0.31196249  0.31005373  1
  Zn  Zn85  1  0.30358620  0.34763987  0.81139966  1
  Zn  Zn86  1  0.29792215  0.80206562  0.31744891  1
  Zn  Zn87  1  0.29915293  0.80503639  0.80921391  1
  Zn  Zn88  1  0.81561241  0.31382873  0.30893443  1
  Zn  Zn89  1  0.80242233  0.33587200  0.80823057  1
  Zn  Zn90  1  0.88823511  0.80560340  0.31659302  1
  Zn  Zn91  1  0.80587967  0.81652167  0.82228888  1
  Zn  Zn92  1  0.19599081  0.43161469  0.42759842  1
  Zn  Zn93  1  0.19881968  0.44019601  0.92383427  1
  Zn  Zn94  1  0.18820616  0.93351709  0.43305498  1
  Zn  Zn95  1  0.18634102  0.94648858  0.93906006  1
  Zn  Zn96  1  0.71548338  0.42500745  0.38965428  1
  Zn  Zn97  1  0.68260056  0.44267326  0.93945059  1
  Zn  Zn98  1  0.67703695  0.90055134  0.45740471  1
  Zn  Zn99  1  0.68946562  0.94138029  0.94220321  1
  Zn  Zn100  1  0.31180068  0.05841919  0.06356664  1
  Zn  Zn101  1  0.30931800  0.06313586  0.56474471  1
  Zn  Zn102  1  0.31351821  0.54661424  0.06864447  1
  Zn  Zn103  1  0.26009651  0.52553642  0.57085659  1
  Zn  Zn104  1  0.80401900  0.06561218  0.05788546  1
  Zn  Zn105  1  0.80566717  0.06037465  0.56697214  1
  Zn  Zn106  1  0.76857290  0.58675760  0.09148802  1
  Zn  Zn107  1  0.82281205  0.56824541  0.56584418  1
  Zn  Zn108  1  0.43908208  0.44094615  0.18850061  1
  Zn  Zn109  1  0.42723291  0.44795599  0.68016970  1
  Zn  Zn110  1  0.44134226  0.93504854  0.18876469  1
  Zn  Zn111  1  0.42366902  0.93333414  0.68246315  1
  Zn  Zn112  1  0.94590723  0.43790598  0.17912140  1
  Zn  Zn113  1  0.93283427  0.43554457  0.69015199  1
  Zn  Zn114  1  0.80830265  0.92054411  0.19058492  1
  Zn  Zn115  1  0.93885548  0.95062134  0.69551336  1
  Zn  Zn116  1  0.06332075  0.05494527  0.30404148  1
  Zn  Zn117  1  0.06210179  0.06441949  0.81838025  1
  Zn  Zn118  1  0.06759524  0.58589706  0.30915431  1
  Zn  Zn119  1  0.06039162  0.55603024  0.80673057  1
  Zn  Zn120  1  0.56589218  0.05144488  0.31528715  1
  Zn  Zn121  1  0.53370241  0.03264463  0.75724942  1
  Zn  Zn122  1  0.56090199  0.55279055  0.30125593  1
  Zn  Zn123  1  0.53824296  0.55862980  0.80187224  1
  Zn  Zn124  1  0.45028629  0.18762222  0.43110595  1
  Zn  Zn125  1  0.31004731  0.19791767  0.94278306  1
  Zn  Zn126  1  0.43053602  0.69378095  0.43918626  1
  Zn  Zn127  1  0.43747776  0.69216837  0.94278064  1
  Zn  Zn128  1  0.94175960  0.18240477  0.43339584  1
  Zn  Zn129  1  0.94314543  0.18737946  0.94893141  1
  Zn  Zn130  1  0.96939531  0.71513580  0.46031787  1
  Zn  Zn131  1  0.93074388  0.69571646  0.93353122  1
  Zn  Zn132  1  0.06277617  0.31379269  0.06278904  1
  Zn  Zn133  1  0.06839694  0.44800044  0.56139074  1
  Zn  Zn134  1  0.06835343  0.82241714  0.03929017  1
  Zn  Zn135  1  0.05895926  0.81267910  0.56769296  1
  Zn  Zn136  1  0.56262126  0.29197809  0.05838179  1
  Zn  Zn137  1  0.56356203  0.31522646  0.55089579  1
  Zn  Zn138  1  0.56666550  0.81731849  0.06257572  1
  Zn  Zn139  1  0.55738102  0.81191887  0.55485885  1
  O  O140  1  0.12576669  0.11792462  0.12092192  1
  O  O141  1  0.11161737  0.14134935  0.62773879  1
  O  O142  1  0.13970827  0.60661100  0.10964472  1
  O  O143  1  0.10474861  0.63553479  0.63566532  1
  O  O144  1  0.61674458  0.10433462  0.13571919  1
  O  O145  1  0.63537833  0.12045683  0.60431060  1
  O  O146  1  0.61394034  0.64009001  0.12491905  1
  O  O147  1  0.60978041  0.64007513  0.62494501  1
  O  O148  1  0.38553699  0.38716780  0.37743302  1
  O  O149  1  0.39310288  0.37316500  0.88928024  1
  O  O150  1  0.35490234  0.87048309  0.39062378  1
  O  O151  1  0.37288029  0.86665026  0.88887721  1
  O  O152  1  0.89651328  0.36833711  0.38252539  1
  O  O153  1  0.87635428  0.37912693  0.88386254  1
  O  O154  1  0.86566097  0.87951896  0.40055777  1
  O  O155  1  0.88348566  0.88653567  0.87411541  1
  O  O156  1  0.24309072  0.01247531  0.36382108  1
  O  O157  1  0.25643914  -0.00498193  0.85864797  1
  O  O158  1  0.26686163  0.51331289  0.37918226  1
  O  O159  1  0.26747744  0.46415717  0.83703072  1
  O  O160  1  0.75346998  0.00257983  0.38095379  1
  O  O161  1  0.76043869  -0.00228717  0.86738748  1
  O  O162  1  0.75319732  0.53087090  0.35199595  1
  O  O163  1  0.76002463  0.49463375  0.86961411  1
  O  O164  1  0.23598489  0.48053576  0.12038971  1
  O  O165  1  0.30351363  0.49021053  0.66954675  1
  O  O166  1  0.24908436  0.99103753  0.13740611  1
  O  O167  1  0.25048646  0.99128627  0.63606271  1
  O  O168  1  0.73632618  0.47794953  0.11996337  1
  O  O169  1  0.74753711  0.50741985  0.63314116  1
  O  O170  1  0.74236544  0.99571899  0.12678979  1
  O  O171  1  0.75776803  0.99127395  0.64741806  1
  O  O172  1  0.01237230  0.36771690  0.25676978  1
  O  O173  1  -0.00537301  0.36138361  0.75877251  1
  O  O174  1  0.00800460  0.79661416  0.19667920  1
  O  O175  1  0.00185094  0.88565550  0.76446078  1
  O  O176  1  0.50688501  0.38926332  0.26491985  1
  O  O177  1  0.50664260  0.37676658  0.75382406  1
  O  O178  1  0.49224526  0.86169665  0.25957702  1
  O  O179  1  0.48688818  0.86766431  0.76780248  1
  O  O180  1  0.49879238  0.12940859  0.25981997  1
  O  O181  1  0.49179916  0.14204497  0.75376368  1
  O  O182  1  0.49413086  0.62835975  0.23619007  1
  O  O183  1  0.49882717  0.64624726  0.73647359  1
  O  O184  1  0.98540386  0.12986857  0.24725293  1
  O  O185  1  0.99841199  0.13586671  0.74706220  1
  O  O186  1  0.94975502  0.63159821  0.27207049  1
  O  O187  1  0.97739664  0.61342207  0.74095724  1
  O  O188  1  0.38457156  0.26200702  0.00778702  1
  O  O189  1  0.37760900  0.24628519  0.50704738  1
  O  O190  1  0.37259625  0.75946416  0.01334710  1
  O  O191  1  0.37001094  0.76225861  0.51436763  1
  O  O192  1  0.87119176  0.25310405  0.01634350  1
  O  O193  1  0.87503688  0.25205609  0.50402600  1
  O  O194  1  0.86026228  0.76355871  -0.00799031  1
  O  O195  1  0.87831706  0.76899128  0.52069831  1
  O  O196  1  0.14482616  0.25517228  0.48355854  1
  O  O197  1  0.12715027  0.24062241  1.00116667  1
  O  O198  1  0.09764327  0.74946984  0.47660515  1
  O  O199  1  0.11240881  0.74093246  0.97730953  1
  O  O200  1  0.64542393  0.25390593  0.49943185  1
  O  O201  1  0.69415343  0.19491207  1.01784809  1
  O  O202  1  0.64547271  0.79298651  0.49052951  1
  O  O203  1  0.63160898  0.75513963  0.98541380  1
  O  O204  1  0.50771299  0.22531586  0.13457819  1
  O  O205  1  0.49378948  0.25119793  0.62645051  1
  O  O206  1  0.48689907  0.73931202  0.12302880  1
  O  O207  1  0.49069922  0.76375455  0.63566627  1
  O  O208  1  0.99595477  0.24991417  0.13793627  1
  O  O209  1  0.98321077  0.23954247  0.64180554  1
  O  O210  1  1.03997241  0.75194725  0.13619244  1
  O  O211  1  0.98504173  0.74301467  0.63416525  1
  O  O212  1  0.00994749  0.25060852  0.36448393  1
  O  O213  1  -0.01759291  0.25711587  0.86224844  1
  O  O214  1  -0.00541477  0.77192321  0.36588970  1
  O  O215  1  -0.00332661  0.76060257  0.86766008  1
  O  O216  1  0.50299547  0.26831081  0.36648973  1
  O  O217  1  0.50118256  0.26154132  0.85592773  1
  O  O218  1  0.48941497  0.76414490  0.37310229  1
  O  O219  1  0.50041112  0.75502901  0.86892466  1
  O  O220  1  0.25663562  0.13330664  0.48313490  1
  O  O221  1  0.24280145  0.12772676  1.00442010  1
  O  O222  1  0.26195446  0.62333577  0.50446241  1
  O  O223  1  0.29036792  0.60371259  0.96281784  1
  O  O224  1  0.74841055  0.12942736  0.48845688  1
  O  O225  1  0.72720152  0.13002734  0.98524851  1
  O  O226  1  0.74624466  0.63931969  0.49488047  1
  O  O227  1  0.76052834  0.64432432  0.99760017  1
  O  O228  1  0.27101926  0.37880596  0.00557697  1
  O  O229  1  0.27396700  0.34924180  0.47671615  1
  O  O230  1  0.26144060  0.88373708  0.01258484  1
  O  O231  1  0.25362961  0.88181675  0.51522026  1
  O  O232  1  0.75925159  0.36631097  -0.00760443  1
  O  O233  1  0.76979472  0.36276902  0.47912093  1
  O  O234  1  0.76160924  0.86262323  -0.01580959  1
  O  O235  1  0.76941462  0.89179587  0.53026740  1
  O  O236  1  0.12509835  0.48924606  0.25135456  1
  O  O237  1  0.11954201  0.47729102  0.74542977  1
  O  O238  1  0.13843705  1.00391679  0.23445903  1
  O  O239  1  0.13803657  1.00841433  0.75312651  1
  O  O240  1  0.63776100  0.50375180  0.23217591  1
  O  O241  1  0.62915764  0.49522645  0.75144121  1
  O  O242  1  0.63353061  0.99131215  0.24208972  1
  O  O243  1  0.64363730  1.01326520  0.76898066  1
  O  O244  1  0.36035670  -0.00670646  0.25054331  1
  O  O245  1  0.36820550  0.02265219  0.74858730  1
  O  O246  1  0.37599030  0.51526798  0.25589955  1
  O  O247  1  0.41260977  0.52294273  0.77668445  1
  O  O248  1  0.87307814  0.00853464  0.24304453  1
  O  O249  1  0.86462222  0.00890569  0.76700020  1
  O  O250  1  0.86595030  0.48748837  0.23886972  1
  O  O251  1  0.85558782  0.49902976  0.75481517  1
  O  O252  1  0.12022075  0.36792565  0.36258534  1
  O  O253  1  0.10703871  0.37007139  0.86933956  1
  O  O254  1  0.13686782  0.85917725  0.35890906  1
  O  O255  1  0.10680310  0.88286793  0.88885247  1
  O  O256  1  0.60565311  0.39838169  0.39592452  1
  O  O257  1  0.61585542  0.37712700  0.86772242  1
  O  O258  1  0.61602454  0.87339859  0.36149289  1
  O  O259  1  0.60738214  0.87329681  0.87922593  1
  O  O260  1  0.38893324  0.11183673  0.12925704  1
  O  O261  1  0.37420605  0.13788228  0.63231510  1
  O  O262  1  0.36817069  0.62836082  0.13350373  1
  O  O263  1  0.38952480  0.64772898  0.62274502  1
  O  O264  1  0.86936904  0.13552579  0.13324455  1
  O  O265  1  0.88073683  0.13776587  0.61803875  1
  O  O266  1  0.92627551  0.62381473  0.09304741  1
  O  O267  1  0.87265417  0.64103621  0.63848360  1
  O  O268  1  0.24762701  0.26763180  0.12561914  1
  O  O269  1  0.26034570  0.24520133  0.60378712  1
  O  O270  1  0.24595253  0.76393476  0.13357723  1
  O  O271  1  0.25932870  0.76165153  0.63937439  1
  O  O272  1  0.75879179  0.25055476  0.14222561  1
  O  O273  1  0.76390434  0.24804815  0.60927011  1
  O  O274  1  0.74017473  0.75574217  0.10803046  1
  O  O275  1  0.76250797  0.76859684  0.64325437  1
  O  O276  1  0.24967968  0.23456793  0.37005252  1
  O  O277  1  0.25589659  0.26578048  0.87199997  1
  O  O278  1  0.22898420  0.72691742  0.37521552  1
  O  O279  1  0.24742041  0.74130221  0.88591846  1
  O  O280  1  0.75992970  0.23857204  0.38345668  1
  O  O281  1  0.76031152  0.23861506  0.85911135  1
  O  O282  1  0.84288142  0.69243352  0.33141133  1
  O  O283  1  0.72993069  0.74522542  0.87095266  1
  O  O284  1  0.01725768  0.12731060  0.00883526  1
  O  O285  1  0.00092488  0.11605351  0.50992242  1
  O  O286  1  -0.02939411  0.62819700  0.03360093  1
  O  O287  1  -0.01818030  0.62374656  0.52247881  1
  O  O288  1  0.49782095  0.11834723  0.01327559  1
  O  O289  1  0.52182482  0.12418127  0.48889095  1
  O  O290  1  0.49336144  0.61408587  0.01379411  1
  O  O291  1  0.49936480  0.63436842  0.50875163  1
  O  O292  1  0.48435858  0.36861725  0.48644025  1
  O  O293  1  0.49963741  0.37272606  0.99735840  1
  O  O294  1  0.48317857  0.87308763  0.48369660  1
  O  O295  1  0.48660357  0.87180300  0.98879094  1
  O  O296  1  0.99712307  0.38907218  0.48407946  1
  O  O297  1  0.98788525  0.36237031  0.98372082  1
  O  O298  1  0.98809446  0.89245232  0.51410089  1
  O  O299  1  0.97948213  0.87214944  0.98474954  1
  O  O300  1  0.48662491  0.50369908  0.37557594  1
  O  O301  1  0.51217731  0.49481125  0.89839277  1
  O  O302  1  0.49245895  0.97642036  0.36456055  1
  O  O303  1  0.49138933  0.98699346  0.86887817  1
  O  O304  1  1.00584881  0.49193948  0.36018260  1
  O  O305  1  0.98215433  0.48085600  0.86540589  1
  O  O306  1  1.00316408  1.00570100  0.38876964  1
  O  O307  1  0.98507510  0.99994695  0.87536957  1
  O  O308  1  0.01692571  -0.00259088  0.13134771  1
  O  O309  1  0.00063370  0.02109474  0.62909546  1
  O  O310  1  0.02476325  0.49119828  0.12047907  1
  O  O311  1  -0.00544574  0.51029532  0.62614706  1
  O  O312  1  0.50823769  0.00477688  0.12833016  1
  O  O313  1  0.50831789  -0.00192240  0.65392300  1
  O  O314  1  0.51541271  0.51119335  0.12493645  1
  O  O315  1  0.49847630  0.51892975  0.62417247  1
  O  O316  1  0.24103593  0.37242783  0.24409602  1
  O  O317  1  0.22237666  0.34534255  0.72824921  1
  O  O318  1  0.24996945  0.88259358  0.23883266  1
  O  O319  1  0.25759167  0.89026025  0.73978945  1
  O  O320  1  0.74452144  0.39497608  0.27772996  1
  O  O321  1  0.72938934  0.38841955  0.74193294  1
  O  O322  1  0.77300241  0.83186573  0.25647952  1
  O  O323  1  0.74812945  0.88848966  0.75020496  1
  O  O324  1  0.25516445  0.11555099  0.25766241  1
  O  O325  1  0.25602989  0.12442525  0.74092898  1
  O  O326  1  0.25108394  0.62029785  0.24593109  1
  O  O327  1  0.26359697  0.62115386  0.75691585  1
  O  O328  1  0.76043068  0.12471896  0.26396667  1
  O  O329  1  0.75198196  0.12206620  0.74626423  1
  O  O330  1  0.76904029  0.60762785  0.20368630  1
  O  O331  1  0.75666364  0.61454011  0.74881274  1
  O  O332  1  0.36993065  0.12426925  0.37315776  1
  O  O333  1  0.36908300  0.13460508  0.85907779  1
  O  O334  1  0.36373521  0.62660928  0.36233116  1
  O  O335  1  0.34840884  0.61179767  0.91206104  1
  O  O336  1  0.86994495  0.12142830  0.36260195  1
  O  O337  1  0.87312686  0.11990122  0.87929160  1
  O  O338  1  0.90004019  0.63152263  0.33269843  1
  O  O339  1  0.88214463  0.60850619  0.86741529  1
  O  O340  1  0.13285030  0.37808275  0.13469334  1
  O  O341  1  0.09651141  0.36117587  0.63416977  1
  O  O342  1  0.13851005  0.88832294  0.11177394  1
  O  O343  1  0.13935984  0.86626494  0.62636531  1
  O  O344  1  0.61620328  0.36768496  0.12936150  1
  O  O345  1  0.61175389  0.38692972  0.62881789  1
  O  O346  1  0.61860080  0.88113779  0.14187920  1
  O  O347  1  0.63785409  0.87388547  0.63047507  1
  O  O348  1  0.12029728  0.25503279  0.25437703  1
  O  O349  1  0.10444467  0.25323069  0.75903651  1
  O  O350  1  0.10350972  0.69759578  0.28267785  1
  O  O351  1  0.12889442  0.75064970  0.78217997  1
  O  O352  1  0.60562055  0.25327880  0.25295651  1
  O  O353  1  0.61152275  0.26620203  0.73465011  1
  O  O354  1  0.64276945  0.70850301  0.28484151  1
  O  O355  1  0.60854799  0.75530143  0.76451218  1
  O  O356  1  0.40204413  0.26318903  0.24901858  1
  O  O357  1  0.38518335  0.24860314  0.73380429  1
  O  O358  1  0.36557275  0.73557591  0.23988813  1
  O  O359  1  0.38400757  0.75734474  0.74211292  1
  O  O360  1  0.88341692  0.24992299  0.23977544  1
  O  O361  1  0.86954013  0.24693504  0.74253065  1
  O  O362  1  0.93012214  0.78717363  0.20362438  1
  O  O363  1  0.86728861  0.73509597  0.75751061  1
  O  O364  1  0.36543373  0.48243550  0.49844164  1
  O  O365  1  0.39994503  0.48366926  1.01544976  1
  O  O366  1  0.37099041  0.98872870  0.50318285  1
  O  O367  1  0.38030341  0.98533696  0.99763292  1
  O  O368  1  0.86636944  0.48628674  0.50110856  1
  O  O369  1  0.86957515  0.48377881  0.98852943  1
  O  O370  1  0.88652773  0.99726485  0.50976993  1
  O  O371  1  0.86037362  0.99274777  0.98449153  1
  O  O372  1  0.13464812  0.01597314  0.01569369  1
  O  O373  1  0.11288541  -0.00808492  0.50031360  1
  O  O374  1  0.12851707  0.48842435  -0.00354526  1
  O  O375  1  0.16811320  0.47915192  0.52480497  1
  O  O376  1  0.62191981  -0.01348780  0.02075990  1
  O  O377  1  0.62848979  -0.00152441  0.49903423  1
  O  O378  1  0.61470485  0.49061349  0.01999957  1
  O  O379  1  0.67926079  0.61076179  0.48097509  1
  O  O380  1  0.36737568  0.37886070  0.12189741  1
  O  O381  1  0.38047239  0.36104743  0.60877838  1
  O  O382  1  0.36473216  0.86553374  0.11985501  1
  O  O383  1  0.36384045  0.86835579  0.61348193  1
  O  O384  1  0.87781979  0.36345612  0.11198668  1
  O  O385  1  0.88630535  0.36273944  0.60550619  1
  O  O386  1  0.87539780  0.88673830  0.10373258  1
  O  O387  1  0.87777627  0.86763944  0.63788386  1
  O  O388  1  0.12924534  0.13488520  0.36617528  1
  O  O389  1  0.12370273  0.12920835  0.89102504  1
  O  O390  1  0.13797807  0.59885640  0.40383613  1
  O  O391  1  0.12703330  0.61483409  0.87440751  1
  O  O392  1  0.64177898  0.11449769  0.38311662  1
  O  O393  1  0.62707261  0.21972524  0.98307451  1
  O  O394  1  0.63391183  0.65565114  0.33905457  1
  O  O395  1  0.60860685  0.63336388  0.87076443  1
