# generated using pymatgen
data_V35Zn35O128
_symmetry_space_group_name_H-M   'P 1'
_cell_length_a   16.88138661
_cell_length_b   16.86032364
_cell_length_c   16.87832711
_cell_angle_alpha   90.14303390
_cell_angle_beta   90.04217114
_cell_angle_gamma   90.14581951
_symmetry_Int_Tables_number   1
_chemical_formula_structural   V35Zn35O128
_chemical_formula_sum   'V70 Zn70 O256'
_cell_volume   4803.97283489
_cell_formula_units_Z   2
loop_
 _symmetry_equiv_pos_site_id
 _symmetry_equiv_pos_as_xyz
  1  'x, y, z'
loop_
 _atom_site_type_symbol
 _atom_site_label
 _atom_site_symmetry_multiplicity
 _atom_site_fract_x
 _atom_site_fract_y
 _atom_site_fract_z
 _atom_site_occupancy
  V  V0  1  0.00568849  0.61791842  0.11088408  1
  V  V1  1  0.62159962  0.25166541  0.37748188  1
  V  V2  1  0.64969346  -0.00428434  0.62187092  1
  V  V3  1  0.37422315  0.10745877  0.75431797  1
  V  V4  1  0.12809340  0.63123070  0.49934322  1
  V  V5  1  0.12980537  0.75607806  0.37449620  1
  V  V6  1  0.74568861  0.63138433  0.38806260  1
  V  V7  1  -0.00001104  0.13205115  0.62664163  1
  V  V8  1  0.37172280  0.75892157  0.12576588  1
  V  V9  1  0.74032721  0.12330358  0.87477230  1
  V  V10  1  0.89771435  0.50119147  0.86696785  1
  V  V11  1  0.12390475  0.88427407  0.75885514  1
  V  V12  1  0.84136833  0.02777166  0.37530494  1
  V  V13  1  0.63624355  0.87654090  0.24797545  1
  V  V14  1  0.12192990  0.13517860  0.00593329  1
  V  V15  1  0.61249299  0.38297648  0.24209725  1
  V  V16  1  0.00653910  0.36115099  0.37003103  1
  V  V17  1  0.50519751  0.38384943  0.87985105  1
  V  V18  1  0.61661584  0.24753320  0.90074074  1
  V  V19  1  0.74993151  0.24660442  0.49730668  1
  V  V20  1  0.36740601  0.50488445  0.86173389  1
  V  V21  1  0.49901607  0.75069326  0.25345961  1
  V  V22  1  0.62484226  0.50617666  0.64437351  1
  V  V23  1  0.62117380  0.00911923  0.11734285  1
  V  V24  1  0.13329930  0.49064255  0.62923260  1
  V  V25  1  0.24325555  0.74886801  0.00520772  1
  V  V26  1  0.25398865  0.37821703  0.15434286  1
  V  V27  1  0.12431586  0.74495503  0.87336820  1
  V  V28  1  0.64979008  0.87531554  0.75073690  1
  V  V29  1  0.38000784  0.23816821  0.11513203  1
  V  V30  1  0.12915566  0.13467195  0.48112363  1
  V  V31  1  0.37341888  0.25371134  0.62754187  1
  V  V32  1  0.88361374  0.13134328  0.76586545  1
  V  V33  1  0.77190073  0.24486888  0.00971612  1
  V  V34  1  0.48788097  0.75697072  0.75278103  1
  V  V35  1  0.25068448  0.62356957  0.85812504  1
  V  V36  1  0.76368258  0.37790951  0.12527691  1
  V  V37  1  0.75170024  0.61850581  0.84409994  1
  V  V38  1  0.87025133  0.50208790  0.37214329  1
  V  V39  1  -0.00143167  0.50343774  0.49759632  1
  V  V40  1  0.91213045  0.93571098  -0.05924899  1
  V  V41  1  -0.01205228  0.63715011  0.62424891  1
  V  V42  1  0.86398797  0.76439621  0.11497855  1
  V  V43  1  0.62044454  0.74379796  0.39078801  1
  V  V44  1  0.48575405  0.63074058  0.63097606  1
  V  V45  1  0.11530257  -0.01673012  0.11838927  1
  V  V46  1  0.50734509  0.61785059  0.11630619  1
  V  V47  1  0.36273218  0.38357783  -0.00131154  1
  V  V48  1  0.24965857  -0.01938965  0.24953659  1
  V  V49  1  -0.01072428  0.74679184  0.75462381  1
  V  V50  1  0.86654381  0.37711975  0.50217369  1
  V  V51  1  0.51176643  0.25695930  0.74695531  1
  V  V52  1  0.74140936  0.38047674  0.63430982  1
  V  V53  1  -0.00570896  0.87924115  0.39225262  1
  V  V54  1  0.49539586  0.89324267  0.38817434  1
  V  V55  1  0.50746716  0.10978805  0.61709998  1
  V  V56  1  0.50782389  0.50573430  0.49583706  1
  V  V57  1  0.87367399  0.62826924  0.24800044  1
  V  V58  1  0.37237704  0.49402078  0.37285995  1
  V  V59  1  0.24254834  0.86374942  0.62149052  1
  V  V60  1  0.37244459  0.37828916  0.50774365  1
  V  V61  1  0.49525750  0.23918979  0.24842571  1
  V  V62  1  0.38124931  0.87700800  -0.02722581  1
  V  V63  1  0.24909449  0.62329044  0.37440823  1
  V  V64  1  0.00456990  0.75822544  0.24673850  1
  V  V65  1  0.12789695  0.00662626  0.61154935  1
  V  V66  1  0.62847856  0.75040986  0.88821467  1
  V  V67  1  0.36326247  0.87389291  0.50224878  1
  V  V68  1  0.24238643  0.11378428  0.88225678  1
  V  V69  1  0.37010341  0.62438770  0.24598500  1
  Zn  Zn70  1  0.25014064  0.24595996  0.49423738  1
  Zn  Zn71  1  0.73725523  0.50909975  0.23868250  1
  Zn  Zn72  1  0.12322511  0.49302215  0.12956999  1
  Zn  Zn73  1  0.07695990  0.37375310  0.77743723  1
  Zn  Zn74  1  0.66988400  0.08084950  0.45257079  1
  Zn  Zn75  1  0.36668487  0.10811551  0.27910882  1
  Zn  Zn76  1  0.22003185  0.16141012  0.16373058  1
  Zn  Zn77  1  0.19582722  0.18558351  0.69057404  1
  Zn  Zn78  1  0.18622568  0.68592133  0.18906129  1
  Zn  Zn79  1  0.18015951  0.68522197  0.68479991  1
  Zn  Zn80  1  0.64934353  0.20103716  0.14977698  1
  Zn  Zn81  1  0.69444517  0.19211411  0.68260094  1
  Zn  Zn82  1  0.68469804  0.69652853  0.19020713  1
  Zn  Zn83  1  0.66405793  0.67832260  0.69818702  1
  Zn  Zn84  1  0.32409533  0.30685186  0.31840313  1
  Zn  Zn85  1  0.30854278  0.30524494  0.81438179  1
  Zn  Zn86  1  0.31443259  0.81612463  0.31607199  1
  Zn  Zn87  1  0.30439895  0.81549509  0.80731293  1
  Zn  Zn88  1  0.80501431  0.31236567  0.31141504  1
  Zn  Zn89  1  0.87675474  0.32179220  0.77589397  1
  Zn  Zn90  1  0.81704515  0.81187497  0.31151589  1
  Zn  Zn91  1  0.81166532  0.81637019  0.85335161  1
  Zn  Zn92  1  0.18772419  0.43618003  0.43749096  1
  Zn  Zn93  1  0.16812371  0.43354993  0.94526745  1
  Zn  Zn94  1  0.18573905  0.94160709  0.43573085  1
  Zn  Zn95  1  0.19144006  0.94046610  0.94340383  1
  Zn  Zn96  1  0.68443923  0.43547712  0.42812737  1
  Zn  Zn97  1  0.76924153  0.42560132  0.92630711  1
  Zn  Zn98  1  0.69537404  0.91462086  0.44259831  1
  Zn  Zn99  1  0.70368604  0.92738903  0.94221492  1
  Zn  Zn100  1  0.30884668  0.04567744  0.06334730  1
  Zn  Zn101  1  0.31045564  0.05614512  0.55938765  1
  Zn  Zn102  1  0.26965885  0.54427068  0.03960759  1
  Zn  Zn103  1  0.31051705  0.56577397  0.56220749  1
  Zn  Zn104  1  0.78527935  0.04616930  0.06619388  1
  Zn  Zn105  1  0.86293172  -0.00083902  0.57774804  1
  Zn  Zn106  1  0.83430105  0.55250194  0.06397405  1
  Zn  Zn107  1  0.80724428  0.56266809  0.56817167  1
  Zn  Zn108  1  0.43381854  0.44029055  0.18327319  1
  Zn  Zn109  1  0.44071448  0.43874656  0.68800895  1
  Zn  Zn110  1  0.44121367  0.94357106  0.18821458  1
  Zn  Zn111  1  0.43592496  0.92862041  0.67953131  1
  Zn  Zn112  1  0.94265851  0.43642687  0.19030037  1
  Zn  Zn113  1  0.93530496  0.45110436  0.68332893  1
  Zn  Zn114  1  0.92915465  0.94920579  0.19534150  1
  Zn  Zn115  1  0.88969762  0.92953244  0.73843765  1
  Zn  Zn116  1  0.07429181  0.05318042  0.30457968  1
  Zn  Zn117  1  0.05319683  0.06046550  0.82674602  1
  Zn  Zn118  1  0.06199058  0.56117418  0.30587756  1
  Zn  Zn119  1  0.06577193  0.56337519  0.80730398  1
  Zn  Zn120  1  0.56614989  0.06385333  0.30460433  1
  Zn  Zn121  1  0.57855460  0.07332086  0.79341422  1
  Zn  Zn122  1  0.55808681  0.56604122  0.31145791  1
  Zn  Zn123  1  0.55803104  0.56976343  0.82073757  1
  Zn  Zn124  1  0.45280359  0.19376866  0.44443612  1
  Zn  Zn125  1  0.40166459  0.20397493  0.91581658  1
  Zn  Zn126  1  0.43208531  0.68799970  0.44611413  1
  Zn  Zn127  1  0.43825410  0.69220855  0.93823990  1
  Zn  Zn128  1  0.93726127  0.17775015  0.44641785  1
  Zn  Zn129  1  0.92489609  0.10696652  0.95995038  1
  Zn  Zn130  1  0.93395843  0.69795704  0.43887053  1
  Zn  Zn131  1  0.92912450  0.68444893  0.93516131  1
  Zn  Zn132  1  0.08709194  0.28682857  0.08653002  1
  Zn  Zn133  1  0.05865835  0.30898091  0.55701300  1
  Zn  Zn134  1  0.04768429  0.81427180  0.05311904  1
  Zn  Zn135  1  -0.00146049  0.86381714  0.60384413  1
  Zn  Zn136  1  0.54991227  0.32975764  0.06609725  1
  Zn  Zn137  1  0.56030746  0.32189125  0.56292161  1
  Zn  Zn138  1  0.55243264  0.84138907  0.07026571  1
  Zn  Zn139  1  0.56169093  0.81726863  0.57007151  1
  O  O140  1  0.13047089  0.11844840  0.11119748  1
  O  O141  1  0.12466895  0.11674669  0.63434114  1
  O  O142  1  0.10638215  0.62825812  0.13066842  1
  O  O143  1  0.11601750  0.61664473  0.61452104  1
  O  O144  1  0.59478406  0.10825651  0.12152471  1
  O  O145  1  0.61908824  0.10702644  0.64016352  1
  O  O146  1  0.60578845  0.63156005  0.14151946  1
  O  O147  1  0.61656036  0.61081006  0.62031950  1
  O  O148  1  0.38008233  0.39100672  0.38237348  1
  O  O149  1  0.37828693  0.38046505  0.88052627  1
  O  O150  1  0.38729967  0.87514710  0.38552025  1
  O  O151  1  0.37229202  0.87902645  0.87230070  1
  O  O152  1  0.87219456  0.38660158  0.38181435  1
  O  O153  1  0.86508762  0.39467406  0.86310783  1
  O  O154  1  0.89448797  0.85635989  0.38005611  1
  O  O155  1  0.90028049  0.88853552  0.84083783  1
  O  O156  1  0.23865896  -0.00763964  0.35228976  1
  O  O157  1  0.25119751  0.01252258  0.87099050  1
  O  O158  1  0.26412815  0.50773050  0.38028234  1
  O  O159  1  0.25706259  0.51316438  0.87395646  1
  O  O160  1  0.73604959  0.00858012  0.38674925  1
  O  O161  1  0.73307570  0.02521362  0.88120083  1
  O  O162  1  0.75487321  0.51320197  0.37085517  1
  O  O163  1  0.73400643  0.51946801  0.86570117  1
  O  O164  1  0.27130837  0.47896847  0.13798974  1
  O  O165  1  0.23257287  0.50664735  0.62129906  1
  O  O166  1  0.23617112  0.99596428  0.13331870  1
  O  O167  1  0.23487956  0.99086455  0.62586616  1
  O  O168  1  0.75708155  0.48466493  0.12372189  1
  O  O169  1  0.73286373  0.49558860  0.62174276  1
  O  O170  1  0.72161832  1.01350496  0.14965570  1
  O  O171  1  0.74712251  1.00513237  0.62356477  1
  O  O172  1  -0.01016372  0.37316939  0.27054254  1
  O  O173  1  -0.02269458  0.35824725  0.73131703  1
  O  O174  1  -0.00069805  0.85778758  0.25429148  1
  O  O175  1  0.01942841  0.85408363  0.73849322  1
  O  O176  1  0.50833353  0.36968609  0.24432944  1
  O  O177  1  0.49481227  0.36307911  0.76115753  1
  O  O178  1  0.50107019  0.86212290  0.27194011  1
  O  O179  1  0.50256546  0.85972455  0.74114324  1
  O  O180  1  0.48574628  0.13554403  0.25891004  1
  O  O181  1  0.49443109  0.13490937  0.73945726  1
  O  O182  1  0.48798756  0.63504830  0.25081989  1
  O  O183  1  0.50636657  0.63521302  0.73736612  1
  O  O184  1  1.00372889  0.13967901  0.24865945  1
  O  O185  1  0.99001153  0.12717936  0.74957683  1
  O  O186  1  0.98657119  0.63394474  0.24960994  1
  O  O187  1  1.00775600  0.63539063  0.73283541  1
  O  O188  1  0.39244525  0.26302642  0.01241204  1
  O  O189  1  0.39425425  0.26334551  0.51801627  1
  O  O190  1  0.36435187  0.75682964  0.00568393  1
  O  O191  1  0.37548186  0.76955964  0.49840151  1
  O  O192  1  0.86831390  0.24488877  0.00437642  1
  O  O193  1  0.85717217  0.26249455  0.49748669  1
  O  O194  1  0.87809671  0.74765369  0.01556200  1
  O  O195  1  0.87058602  0.76555110  0.51889562  1
  O  O196  1  0.13194886  0.24068313  0.49791191  1
  O  O197  1  0.14870200  0.23398173  1.00825610  1
  O  O198  1  0.11795294  0.73553828  0.48117315  1
  O  O199  1  0.13464500  0.75644238  0.98804961  1
  O  O200  1  0.62380406  0.26448225  0.48228603  1
  O  O201  1  0.60080853  0.24606694  0.99926366  1
  O  O202  1  0.62155986  0.75279947  0.48987124  1
  O  O203  1  0.61917428  0.76100359  0.98513413  1
  O  O204  1  0.49425873  0.25119417  0.13758429  1
  O  O205  1  0.50334834  0.24896349  0.63661815  1
  O  O206  1  0.49082310  0.74743887  0.14064199  1
  O  O207  1  0.50305989  0.73818557  0.63361487  1
  O  O208  1  1.00954679  0.23833688  0.16084011  1
  O  O209  1  1.01002332  0.23337934  0.62786755  1
  O  O210  1  0.99478225  0.74252059  0.13550091  1
  O  O211  1  1.00049831  0.74148672  0.63153238  1
  O  O212  1  -0.01015957  0.26351672  0.38741821  1
  O  O213  1  0.01062934  0.33332906  0.93528921  1
  O  O214  1  0.00913760  0.75183506  0.36552827  1
  O  O215  1  0.01056428  0.73274649  0.86303088  1
  O  O216  1  0.50983459  0.25619631  0.36189674  1
  O  O217  1  0.50025146  0.25613732  0.86621331  1
  O  O218  1  0.51019288  0.74008044  0.37272517  1
  O  O219  1  0.51555066  0.73798603  0.85953238  1
  O  O220  1  0.23332074  0.12372628  0.50576870  1
  O  O221  1  0.24800364  0.11330902  0.98845755  1
  O  O222  1  0.24064913  0.62341286  0.48782855  1
  O  O223  1  0.25789925  0.64431152  0.98224259  1
  O  O224  1  0.74118272  0.14885985  0.51343879  1
  O  O225  1  0.75006594  0.13877763  0.99524731  1
  O  O226  1  0.75317718  0.62611322  0.48683407  1
  O  O227  1  0.71894949  0.61265220  1.01101383  1
  O  O228  1  0.26467388  0.36753070  -0.00508851  1
  O  O229  1  0.26770594  0.36666731  0.48919453  1
  O  O230  1  0.26072199  0.85486796  -0.01282652  1
  O  O231  1  0.25263766  0.87633848  0.50652723  1
  O  O232  1  0.74619806  0.35928790  0.01538635  1
  O  O233  1  0.75204532  0.37364302  0.49976386  1
  O  O234  1  0.80989208  0.88854112  -0.04707290  1
  O  O235  1  0.77683848  0.86221889  0.51328097  1
  O  O236  1  0.12411697  0.49896205  0.24130321  1
  O  O237  1  0.11139913  0.48694253  0.73263611  1
  O  O238  1  0.13648077  0.99533340  0.23105368  1
  O  O239  1  0.11598395  0.98465822  0.76281731  1
  O  O240  1  0.62154217  0.48730417  0.25737730  1
  O  O241  1  0.61751516  0.50238775  0.74230184  1
  O  O242  1  0.61054316  0.97967069  0.24300801  1
  O  O243  1  0.62539444  0.98234023  0.74418820  1
  O  O244  1  0.36290381  -0.00172891  0.24296670  1
  O  O245  1  0.37639010  0.01075790  0.73213765  1
  O  O246  1  0.38492591  0.50850353  0.26768484  1
  O  O247  1  0.36976268  0.48996325  0.76290931  1
  O  O248  1  0.87254122  -0.00654369  0.28287027  1
  O  O249  1  0.85147975  0.03920675  0.74099334  1
  O  O250  1  0.87491400  0.51065827  0.26104270  1
  O  O251  1  0.88565171  0.51368950  0.76470728  1
  O  O252  1  0.10560231  0.37789768  0.38532107  1
  O  O253  1  0.11768119  0.36150065  0.88094636  1
  O  O254  1  0.12111017  0.85751195  0.37846507  1
  O  O255  1  0.13215599  0.86330893  0.86430201  1
  O  O256  1  0.63141051  0.36173737  0.35351179  1
  O  O257  1  0.60610609  0.36240888  0.88173261  1
  O  O258  1  0.61217979  0.86147195  0.37605635  1
  O  O259  1  0.63815298  0.86147764  0.86360562  1
  O  O260  1  0.37175756  0.13844605  0.11105947  1
  O  O261  1  0.39171232  0.13363928  0.62724853  1
  O  O262  1  0.38242695  0.63580955  0.13855334  1
  O  O263  1  0.38620032  0.61876696  0.63058478  1
  O  O264  1  0.85960070  0.13051980  0.16618960  1
  O  O265  1  0.90243310  0.11040929  0.61044143  1
  O  O266  1  0.88453824  0.63135411  0.13209101  1
  O  O267  1  0.88901425  0.62434983  0.61850151  1
  O  O268  1  0.27416132  0.26146441  0.13364965  1
  O  O269  1  0.27359798  0.23983160  0.61788851  1
  O  O270  1  0.25337328  0.74037502  0.11126715  1
  O  O271  1  0.22916011  0.76462662  0.61737031  1
  O  O272  1  0.74306582  0.25386884  0.11485520  1
  O  O273  1  0.72743644  0.27165547  0.60639262  1
  O  O274  1  0.76570733  0.74601678  0.12988688  1
  O  O275  1  0.79406076  0.78424055  0.50642590  1
  O  O276  1  0.29850391  0.21978961  0.38731131  1
  O  O277  1  0.28784762  0.21839176  0.88302719  1
  O  O278  1  0.23605262  0.74151115  0.36739184  1
  O  O279  1  0.24396787  0.74010938  0.87658956  1
  O  O280  1  0.73654155  0.25242691  0.38620043  1
  O  O281  1  0.72552863  0.25175703  0.90178784  1
  O  O282  1  0.73720682  0.73930706  0.37244389  1
  O  O283  1  0.74026970  0.73205151  0.87644464  1
  O  O284  1  0.02168762  0.14623693  -0.00387163  1
  O  O285  1  0.02073073  0.12861896  0.51279423  1
  O  O286  1  -0.00190330  0.63104699  0.01259252  1
  O  O287  1  0.00330991  0.62411822  0.50527144  1
  O  O288  1  0.50265108  0.06068750  -0.03282508  1
  O  O289  1  0.51230872  0.13076658  0.51801522  1
  O  O290  1  0.49777541  0.63516208  0.01706654  1
  O  O291  1  0.49310419  0.61477321  0.51574804  1
  O  O292  1  0.48756337  0.39621515  0.50777332  1
  O  O293  1  0.48728258  0.38042371  0.98498152  1
  O  O294  1  0.49481044  0.87389050  0.49228647  1
  O  O295  1  0.48003601  0.85322497  0.98560325  1
  O  O296  1  0.98489589  0.38588663  0.49481446  1
  O  O297  1  1.00536794  0.35138696  1.00668070  1
  O  O298  1  1.01178267  0.86931803  0.49045736  1
  O  O299  1  0.97937273  0.87620493  0.98573073  1
  O  O300  1  0.48576772  0.51591929  0.39018323  1
  O  O301  1  0.48877595  0.48987239  0.86767741  1
  O  O302  1  0.50691213  0.99143680  0.37841055  1
  O  O303  1  0.51864422  1.01568730  0.91204735  1
  O  O304  1  0.98811108  0.50245027  0.38435880  1
  O  O305  1  0.99777214  0.50886221  0.88090035  1
  O  O306  1  1.01463757  0.97555513  0.36635979  1
  O  O307  1  0.97017334  1.01338263  0.89088200  1
  O  O308  1  0.01479619  -0.00190098  0.13729678  1
  O  O309  1  0.02504485  0.01236431  0.63331448  1
  O  O310  1  -0.00540123  0.51285682  0.12267005  1
  O  O311  1  0.00366506  0.51342880  0.61053410  1
  O  O312  1  0.52529467  -0.04568580  0.11691957  1
  O  O313  1  0.50429373  0.00858010  0.62425219  1
  O  O314  1  0.49357169  0.51770076  0.12732109  1
  O  O315  1  0.50783020  0.50848007  0.62090410  1
  O  O316  1  0.25762948  0.37111782  0.25465981  1
  O  O317  1  0.22993957  0.34399459  0.73916442  1
  O  O318  1  0.25325085  0.87772784  0.24460708  1
  O  O319  1  0.23287783  0.86962260  0.73510781  1
  O  O320  1  0.73871541  0.37410365  0.23676794  1
  O  O321  1  0.75745976  0.36745998  0.72929748  1
  O  O322  1  0.73309502  0.87518467  0.27325875  1
  O  O323  1  0.74852909  0.86973724  0.75147515  1
  O  O324  1  0.25607882  0.10873434  0.25169963  1
  O  O325  1  0.26842221  0.12797910  0.75951357  1
  O  O326  1  0.25993002  0.62790309  0.25926311  1
  O  O327  1  0.25464672  0.63335784  0.75865651  1
  O  O328  1  0.82540839  0.17237389  0.21963345  1
  O  O329  1  0.73635018  0.13937334  0.77379796  1
  O  O330  1  0.76032261  0.62564801  0.25609979  1
  O  O331  1  0.75449724  0.62866690  0.74361327  1
  O  O332  1  0.35848640  0.15728627  0.38736231  1
  O  O333  1  0.39253016  0.10637933  0.85573770  1
  O  O334  1  0.36530221  0.62171808  0.37090411  1
  O  O335  1  0.37073556  0.61181704  0.87457888  1
  O  O336  1  0.86152788  0.12808287  0.37779125  1
  O  O337  1  0.85652193  0.14282557  0.87060014  1
  O  O338  1  0.86397632  0.62543936  0.37114224  1
  O  O339  1  0.85631242  0.61793085  0.87593060  1
  O  O340  1  0.15235650  0.36965694  0.12936561  1
  O  O341  1  0.12014646  0.39400017  0.60311856  1
  O  O342  1  0.12120207  0.88233846  0.10850096  1
  O  O343  1  0.12701497  0.89129270  0.63203657  1
  O  O344  1  0.62920756  0.37239821  0.13716907  1
  O  O345  1  0.62937708  0.39375748  0.62287913  1
  O  O346  1  0.63734777  0.85108404  0.14918847  1
  O  O347  1  0.63094812  0.88460065  0.63566570  1
  O  O348  1  0.04595392  0.19933201  0.22117946  1
  O  O349  1  0.16568615  0.29293591  0.73701148  1
  O  O350  1  0.11223128  0.74125671  0.26087271  1
  O  O351  1  0.12228402  0.75267252  0.76132895  1
  O  O352  1  0.61075600  0.25377809  0.25021173  1
  O  O353  1  0.61225145  0.24923253  0.75651575  1
  O  O354  1  0.61503412  0.75690973  0.26631937  1
  O  O355  1  0.62001615  0.76680107  0.74980485  1
  O  O356  1  0.39024180  0.25534638  0.23841507  1
  O  O357  1  0.38720125  0.24367941  0.73777330  1
  O  O358  1  0.37917650  0.74304837  0.24882528  1
  O  O359  1  0.38881996  0.75052570  0.75909551  1
  O  O360  1  0.86871542  0.23569290  0.24568796  1
  O  O361  1  0.85539859  0.22158940  0.72458474  1
  O  O362  1  0.88505860  0.74394861  0.24393103  1
  O  O363  1  0.89245482  0.75251442  0.75898312  1
  O  O364  1  0.37873344  0.49670388  0.49396480  1
  O  O365  1  0.36628606  0.48838079  0.98757868  1
  O  O366  1  0.37506266  0.97842119  0.50681934  1
  O  O367  1  0.37268707  0.97251432  1.00712097  1
  O  O368  1  0.87777877  0.49934405  0.49031283  1
  O  O369  1  0.85850257  0.49781620  0.97192545  1
  O  O370  1  0.87870545  0.99554173  0.46453995  1
  O  O371  1  0.87749570  1.01499840  1.01236503  1
  O  O372  1  0.12545648  0.00876442  0.00927886  1
  O  O373  1  0.12556939  0.01210885  0.50731736  1
  O  O374  1  0.15927012  0.50977572  0.02333683  1
  O  O375  1  0.11474950  0.51210838  0.49982077  1
  O  O376  1  0.64233958  -0.02014946  0.01990865  1
  O  O377  1  0.63429061  -0.01022044  0.51693062  1
  O  O378  1  0.66184471  0.56631543  0.00956524  1
  O  O379  1  0.60857669  0.49741111  0.49206298  1
  O  O380  1  0.37247564  0.36949512  0.11328925  1
  O  O381  1  0.37795123  0.36449066  0.62378104  1
  O  O382  1  0.37698095  0.85818091  0.13047279  1
  O  O383  1  0.35259584  0.87210467  0.61930515  1
  O  O384  1  0.86305331  0.36968689  0.13458002  1
  O  O385  1  0.85404579  0.39499108  0.60926654  1
  O  O386  1  0.87848773  0.86329410  0.13368920  1
  O  O387  1  0.89735594  0.90605168  0.63141044  1
  O  O388  1  0.11975568  0.12550879  0.38285812  1
  O  O389  1  0.13652962  0.12451745  0.88112757  1
  O  O390  1  0.13214382  0.62632402  0.37880455  1
  O  O391  1  0.14083975  0.62982877  0.86822924  1
  O  O392  1  0.62056262  0.14320096  0.36984854  1
  O  O393  1  0.62277246  0.14162775  0.87802915  1
  O  O394  1  0.63494197  0.63248778  0.37220529  1
  O  O395  1  0.63650457  0.63974931  0.86401670  1
