# generated using pymatgen
data_V35Zn35O128
_symmetry_space_group_name_H-M   'P 1'
_cell_length_a   16.89518367
_cell_length_b   16.83766559
_cell_length_c   16.89472906
_cell_angle_alpha   90.09268082
_cell_angle_beta   90.07753321
_cell_angle_gamma   90.08265721
_symmetry_Int_Tables_number   1
_chemical_formula_structural   V35Zn35O128
_chemical_formula_sum   'V70 Zn70 O256'
_cell_volume   4806.11999474
_cell_formula_units_Z   2
loop_
 _symmetry_equiv_pos_site_id
 _symmetry_equiv_pos_as_xyz
  1  'x, y, z'
loop_
 _atom_site_type_symbol
 _atom_site_label
 _atom_site_symmetry_multiplicity
 _atom_site_fract_x
 _atom_site_fract_y
 _atom_site_fract_z
 _atom_site_occupancy
  V  V0  1  0.36514480  0.62008435  0.77093058  1
  V  V1  1  0.00177562  0.24394576  0.23714925  1
  V  V2  1  0.88629902  0.88711237  -0.01483288  1
  V  V3  1  0.75539575  0.11932878  0.86635069  1
  V  V4  1  0.48762019  0.38112413  0.37127684  1
  V  V5  1  0.88343935  0.12028846  0.23498086  1
  V  V6  1  0.12403347  0.62080429  0.49145704  1
  V  V7  1  0.24210455  0.36929051  0.13062738  1
  V  V8  1  0.64297351  0.87325977  0.74551609  1
  V  V9  1  0.47567511  0.51053627  -0.00218765  1
  V  V10  1  0.13340753  0.48195787  0.61975996  1
  V  V11  1  0.49891871  -0.00577871  0.48576729  1
  V  V12  1  0.62244346  0.75231598  0.88205944  1
  V  V13  1  0.62155806  -0.00337100  0.11721298  1
  V  V14  1  0.52303264  0.61577704  0.12599575  1
  V  V15  1  0.25425025  0.11936847  0.38541591  1
  V  V16  1  0.37973356  0.75611171  0.62528432  1
  V  V17  1  0.50043943  0.25058560  0.75630077  1
  V  V18  1  0.89372707  0.48855872  0.86732614  1
  V  V19  1  0.02452444  0.00035908  0.50767035  1
  V  V20  1  0.48133036  0.10885775  0.11228239  1
  V  V21  1  0.89247317  0.75153406  0.14035734  1
  V  V22  1  0.74091126  0.36352677  0.61103991  1
  V  V23  1  0.12564634  0.75707934  0.36765804  1
  V  V24  1  0.25229653  -0.01406473  0.25775873  1
  V  V25  1  0.23743330  0.88120386  0.62792071  1
  V  V26  1  0.62435002  0.13389511  -0.00873419  1
  V  V27  1  0.49436147  0.10959507  0.62784156  1
  V  V28  1  0.37775809  0.25477488  0.12898619  1
  V  V29  1  0.63145831  0.50100392  0.62037464  1
  V  V30  1  0.37737808  0.51837357  0.38572249  1
  V  V31  1  0.37924888  0.12810335  0.26271373  1
  V  V32  1  0.26223267  0.87827819  0.10111523  1
  V  V33  1  -0.01210673  0.27343743  0.75386506  1
  V  V34  1  0.87083203  0.24823244  0.61013439  1
  V  V35  1  -0.00604492  0.87082996  0.36740841  1
  V  V36  1  0.25040250  0.74627584  0.49736283  1
  V  V37  1  0.62616795  0.75666310  0.36606119  1
  V  V38  1  0.14233563  0.37509463  0.76508461  1
  V  V39  1  0.49532409  0.61358458  0.62232661  1
  V  V40  1  0.75837019  0.61676223  0.37548348  1
  V  V41  1  0.75000168  0.87402122  0.12445178  1
  V  V42  1  0.49958271  0.76127625  0.24868849  1
  V  V43  1  0.36779494  0.11679278  0.76404921  1
  V  V44  1  0.61748041  0.26508597  0.33363242  1
  V  V45  1  0.23003546  0.00416945  0.74734180  1
  V  V46  1  0.76081332  0.25313613  0.00838383  1
  V  V47  1  0.00572437  0.62407891  0.62240729  1
  V  V48  1  0.75380920  0.74583980  0.00039487  1
  V  V49  1  0.49823713  0.75630199  0.74497373  1
  V  V50  1  0.74472518  0.50009349  0.23494479  1
  V  V51  1  0.24024864  0.23848029  -0.00873147  1
  V  V52  1  0.89149939  0.37336046  0.00627056  1
  V  V53  1  0.87256783  0.61983456  0.74768255  1
  V  V54  1  0.63334663  0.00121023  0.63618851  1
  V  V55  1  0.25886339  0.51393674  0.25297031  1
  V  V56  1  0.87733134  0.00229005  0.38565030  1
  V  V57  1  0.74497437  0.61401976  0.87489335  1
  V  V58  1  0.88288044  0.11832528  0.74834907  1
  V  V59  1  0.01067814  0.75821885  0.75998852  1
  V  V60  1  0.62650854  0.37977394  0.76227619  1
  V  V61  1  0.36717127  0.73848392  0.11395428  1
  V  V62  1  0.37887665  0.26294285  0.62287298  1
  V  V63  1  0.74790028  0.00258750  0.25106747  1
  V  V64  1  0.86228863  0.75785552  0.61366686  1
  V  V65  1  0.12165593  0.24896442  0.38674624  1
  V  V66  1  0.38353103  0.87330244  0.48958191  1
  V  V67  1  0.26847502  0.26369724  0.49909879  1
  V  V68  1  0.12097734  0.00345981  0.12169258  1
  V  V69  1  0.48476514  0.37724625  0.88437211  1
  Zn  Zn70  1  0.62316971  0.62305775  0.48855204  1
  Zn  Zn71  1  0.68558489  0.18588454  0.46340823  1
  Zn  Zn72  1  0.43612570  -0.06266925  0.30775159  1
  Zn  Zn73  1  0.12562386  0.50072461  0.13552517  1
  Zn  Zn74  1  0.06859371  0.60356444  0.02635871  1
  Zn  Zn75  1  0.11131258  0.38237709  0.26116308  1
  Zn  Zn76  1  0.18853205  0.18253982  0.19697940  1
  Zn  Zn77  1  0.19352680  0.19876430  0.69324767  1
  Zn  Zn78  1  0.18523530  0.69384506  0.16568433  1
  Zn  Zn79  1  0.19068218  0.69159836  0.69023100  1
  Zn  Zn80  1  0.68968922  0.17929666  0.17942453  1
  Zn  Zn81  1  0.68218906  0.18934127  0.68809493  1
  Zn  Zn82  1  0.69507242  0.68269041  0.19288180  1
  Zn  Zn83  1  0.68793386  0.68421985  0.68973784  1
  Zn  Zn84  1  0.31513212  0.31572286  0.31160722  1
  Zn  Zn85  1  0.31636745  0.31243580  0.81396248  1
  Zn  Zn86  1  0.31793721  0.79060096  0.30946975  1
  Zn  Zn87  1  0.26427141  0.88014533  0.88573605  1
  Zn  Zn88  1  0.79875416  0.29920997  0.29928035  1
  Zn  Zn89  1  0.80348764  0.30382275  0.81406478  1
  Zn  Zn90  1  0.80498597  0.81555779  0.31826479  1
  Zn  Zn91  1  0.82029053  0.80537084  0.80933008  1
  Zn  Zn92  1  0.19581817  0.43788973  0.43228011  1
  Zn  Zn93  1  0.15282173  0.41583213  0.96945158  1
  Zn  Zn94  1  0.19201027  0.93181863  0.43753466  1
  Zn  Zn95  1  0.17907243  1.05391905  0.93672846  1
  Zn  Zn96  1  0.68191382  0.43687423  0.42791492  1
  Zn  Zn97  1  0.69040605  0.42634216  0.94140074  1
  Zn  Zn98  1  0.70391096  0.98975985  0.45984729  1
  Zn  Zn99  1  0.69024402  0.93630908  0.93550300  1
  Zn  Zn100  1  0.30532671  0.06807228  0.07154375  1
  Zn  Zn101  1  0.32087466  0.06023437  0.56582670  1
  Zn  Zn102  1  0.30233262  0.55881238  0.05602361  1
  Zn  Zn103  1  0.30999855  0.56048047  0.56814275  1
  Zn  Zn104  1  0.81328268  0.06306890  0.05859405  1
  Zn  Zn105  1  0.81467420  0.06636979  0.56454127  1
  Zn  Zn106  1  0.85875576  0.56482672  0.06012888  1
  Zn  Zn107  1  0.81394438  0.56219539  0.55443194  1
  Zn  Zn108  1  0.43827228  0.44311629  0.19106499  1
  Zn  Zn109  1  0.43513420  0.44198766  0.69923091  1
  Zn  Zn110  1  0.47480908  0.97327582  -0.02078657  1
  Zn  Zn111  1  0.42770890  0.93315004  0.80311019  1
  Zn  Zn112  1  0.90717189  0.41449628  0.21418699  1
  Zn  Zn113  1  0.92530667  0.44553836  0.65802050  1
  Zn  Zn114  1  0.93644111  0.92964619  0.18729413  1
  Zn  Zn115  1  0.93873953  0.93053076  0.68545123  1
  Zn  Zn116  1  0.06887622  0.06060681  0.31339790  1
  Zn  Zn117  1  0.05414665  0.08347513  0.66567691  1
  Zn  Zn118  1  0.09052324  0.60542120  0.26561823  1
  Zn  Zn119  1  0.06662528  0.55723055  0.80071508  1
  Zn  Zn120  1  0.56621582  0.07318648  0.30475970  1
  Zn  Zn121  1  0.56287279  0.06119028  0.81640005  1
  Zn  Zn122  1  0.56932512  0.55235432  0.30503743  1
  Zn  Zn123  1  0.55571377  0.56404118  0.81432807  1
  Zn  Zn124  1  0.49288088  0.20517177  0.45448694  1
  Zn  Zn125  1  0.42849748  0.19156293  0.94285000  1
  Zn  Zn126  1  0.44716201  0.68763997  0.43815931  1
  Zn  Zn127  1  0.43196456  0.79788681  0.92838910  1
  Zn  Zn128  1  0.93598744  0.17616806  0.43902154  1
  Zn  Zn129  1  0.93544073  0.19513359  0.92748093  1
  Zn  Zn130  1  0.93752228  0.68804963  0.43630734  1
  Zn  Zn131  1  0.93323705  0.69170798  0.93990828  1
  Zn  Zn132  1  0.06183061  0.30603740  0.06189786  1
  Zn  Zn133  1  0.08235659  0.26522377  0.58504658  1
  Zn  Zn134  1  0.06401953  0.83658098  0.07148062  1
  Zn  Zn135  1  0.05116867  0.81079807  0.55748814  1
  Zn  Zn136  1  0.55588754  0.30571328  0.05949462  1
  Zn  Zn137  1  0.55870740  0.32794796  0.55485699  1
  Zn  Zn138  1  0.55673171  0.81242011  0.06949026  1
  Zn  Zn139  1  0.62359848  0.83711206  0.53230997  1
  O  O140  1  0.13564558  0.10480641  0.13426972  1
  O  O141  1  0.11773870  0.16198078  0.61974151  1
  O  O142  1  0.10460174  0.61981870  0.14089159  1
  O  O143  1  0.11763565  0.62676180  0.61640547  1
  O  O144  1  0.61439389  0.11535163  0.11339133  1
  O  O145  1  0.60712321  0.11095323  0.64437888  1
  O  O146  1  0.62126690  0.62281126  0.11860796  1
  O  O147  1  0.61658885  0.61072731  0.63341549  1
  O  O148  1  0.38129142  0.38718998  0.37086445  1
  O  O149  1  0.38722805  0.38619675  0.86746579  1
  O  O150  1  0.37937214  0.86512592  0.38515465  1
  O  O151  1  0.36794857  0.85458731  0.85655830  1
  O  O152  1  0.87625464  0.44158332  0.42178553  1
  O  O153  1  0.86671881  0.38796618  0.86506716  1
  O  O154  1  0.88638309  0.88322921  0.37128725  1
  O  O155  1  0.86664642  0.87344205  0.88602738  1
  O  O156  1  0.25116671  0.01115360  0.37252669  1
  O  O157  1  0.22972758  -0.01082945  0.85310468  1
  O  O158  1  0.26110758  0.50076907  0.36183609  1
  O  O159  1  0.20096817  0.59766438  0.91382811  1
  O  O160  1  0.76461983  -0.00960033  0.35526924  1
  O  O161  1  0.74559678  0.01889698  0.87798274  1
  O  O162  1  0.74540394  0.50904121  0.36297350  1
  O  O163  1  0.73525364  0.51370157  0.88253020  1
  O  O164  1  0.25438417  0.48355810  0.13392852  1
  O  O165  1  0.23255050  0.49867546  0.62306111  1
  O  O166  1  0.25419817  0.98890307  0.14134968  1
  O  O167  1  0.25439162  0.98815537  0.62575904  1
  O  O168  1  0.78196095  0.51078028  0.14091398  1
  O  O169  1  0.73434669  0.48802524  0.63058025  1
  O  O170  1  0.74389465  0.99487035  0.12963887  1
  O  O171  1  0.73101178  1.00785276  0.62838944  1
  O  O172  1  -0.00566842  0.34948869  0.25744568  1
  O  O173  1  -0.01453746  0.37371016  0.73557968  1
  O  O174  1  0.00552209  0.87880315  0.26894128  1
  O  O175  1  -0.00249994  0.85826710  0.75002992  1
  O  O176  1  0.50242879  0.39046559  0.26523689  1
  O  O177  1  0.50505007  0.36977083  0.76219157  1
  O  O178  1  0.49975662  0.86186677  0.24768842  1
  O  O179  1  0.50466604  0.85792068  0.74901455  1
  O  O180  1  0.48338761  0.11221057  0.23148571  1
  O  O181  1  0.48797581  0.13134081  0.74902072  1
  O  O182  1  0.50400370  0.61217907  0.22650308  1
  O  O183  1  0.49561150  0.63203337  0.74110859  1
  O  O184  1  0.99224981  0.12938265  0.25749863  1
  O  O185  1  0.98451500  0.14306154  0.74164852  1
  O  O186  1  0.97300221  0.56938467  0.25732492  1
  O  O187  1  0.99647137  0.62855665  0.73804641  1
  O  O188  1  0.35766868  0.23989439  0.02151311  1
  O  O189  1  0.37929122  0.24783238  0.51311046  1
  O  O190  1  0.38160840  0.74627430  0.01606404  1
  O  O191  1  0.37111692  0.75202916  0.50418674  1
  O  O192  1  0.87096019  0.25815830  -0.00313913  1
  O  O193  1  0.86908490  0.23824438  0.51013439  1
  O  O194  1  0.86413383  0.76348704  0.00778026  1
  O  O195  1  0.88203321  0.74859618  0.51476779  1
  O  O196  1  0.15057180  0.25148141  0.49032261  1
  O  O197  1  0.13965250  0.24857031  1.00210068  1
  O  O198  1  0.13201608  0.74299363  0.49118228  1
  O  O199  1  0.11705722  0.74885957  0.99885599  1
  O  O200  1  0.59487192  0.23462142  0.50652807  1
  O  O201  1  0.63920046  0.24003751  1.00759893  1
  O  O202  1  0.61034710  0.74180759  0.47316308  1
  O  O203  1  0.63245187  0.75358170  0.98551432  1
  O  O204  1  0.48280005  0.23395889  0.11649786  1
  O  O205  1  0.48858538  0.24112980  0.63588046  1
  O  O206  1  0.49538610  0.73248594  0.13034464  1
  O  O207  1  0.49789977  0.73863580  0.63560896  1
  O  O208  1  1.00538104  0.24092451  0.13872014  1
  O  O209  1  0.97373588  0.25978716  0.62593409  1
  O  O210  1  0.99229151  0.76289800  0.12735124  1
  O  O211  1  0.99420371  0.74001843  0.63252876  1
  O  O212  1  0.02052055  0.23996230  0.39095646  1
  O  O213  1  -0.00763781  0.26070821  0.85283519  1
  O  O214  1  0.01153873  0.76122050  0.38272304  1
  O  O215  1  -0.00722289  0.73863566  0.85886696  1
  O  O216  1  0.50259778  0.26853312  0.35920488  1
  O  O217  1  0.48860316  0.26401969  0.86908229  1
  O  O218  1  0.50622757  0.73870940  0.35360146  1
  O  O219  1  0.51809729  0.74177261  0.86027113  1
  O  O220  1  0.26783450  0.12821695  0.48742082  1
  O  O221  1  0.24606303  0.12867914  0.99356600  1
  O  O222  1  0.23674956  0.63785802  0.51014638  1
  O  O223  1  0.21254750  0.60895863  0.99267435  1
  O  O224  1  0.74050707  0.09408817  0.48471125  1
  O  O225  1  0.74476369  0.13117714  0.99342839  1
  O  O226  1  0.74359683  0.61522260  0.48439073  1
  O  O227  1  0.76164895  0.63658840  0.98342153  1
  O  O228  1  0.24474064  0.36324087  0.02233494  1
  O  O229  1  0.26255302  0.36221799  0.49403141  1
  O  O230  1  0.26684900  0.89821581  0.00375813  1
  O  O231  1  0.26239826  0.86717114  0.50557357  1
  O  O232  1  0.76262686  0.35820997  -0.00433143  1
  O  O233  1  0.73522448  0.37507087  0.51276056  1
  O  O234  1  0.75253727  0.86707376  0.00682324  1
  O  O235  1  0.71647571  0.88328782  0.48618074  1
  O  O236  1  0.13873084  0.49651260  0.25252827  1
  O  O237  1  0.12192672  0.47916101  0.73369600  1
  O  O238  1  0.14759202  1.00091156  0.25221818  1
  O  O239  1  0.13468931  1.02129258  0.73028622  1
  O  O240  1  0.64530496  0.48909475  0.23410494  1
  O  O241  1  0.61469591  0.48478361  0.74381287  1
  O  O242  1  0.64238665  1.01246346  0.23884861  1
  O  O243  1  0.62207000  0.98421430  0.74672441  1
  O  O244  1  0.36426620  0.01262867  0.25778102  1
  O  O245  1  0.35962818  0.01315895  0.75101060  1
  O  O246  1  0.36278183  0.50395129  0.25535340  1
  O  O247  1  0.37883094  0.51818770  0.75586448  1
  O  O248  1  0.87232333  0.00682382  0.25176275  1
  O  O249  1  0.88328750  0.01943626  0.73515549  1
  O  O250  1  0.92512250  0.47463320  0.37943306  1
  O  O251  1  0.87948751  0.50952728  0.75344771  1
  O  O252  1  0.13821793  0.35430281  0.37189992  1
  O  O253  1  0.13590588  0.38535651  0.86373891  1
  O  O254  1  0.12133409  0.86187594  0.37346696  1
  O  O255  1  0.13425717  0.77845161  0.92614354  1
  O  O256  1  0.61285302  0.36891769  0.36808245  1
  O  O257  1  0.61747446  0.37516584  0.86577059  1
  O  O258  1  0.62967736  0.85445390  0.36325981  1
  O  O259  1  0.63346978  0.86086358  0.86099218  1
  O  O260  1  0.36860141  0.13737677  0.14364980  1
  O  O261  1  0.38427907  0.12910324  0.63824219  1
  O  O262  1  0.35886811  0.63603681  0.12083216  1
  O  O263  1  0.38622175  0.63162017  0.62363951  1
  O  O264  1  0.88348424  0.11698240  0.13584364  1
  O  O265  1  0.85727410  0.14120775  0.63830124  1
  O  O266  1  0.86686620  0.65424247  0.13141240  1
  O  O267  1  0.88775697  0.62777847  0.62976503  1
  O  O268  1  0.25510941  0.25490830  0.12911938  1
  O  O269  1  0.26860652  0.24598670  0.61019739  1
  O  O270  1  0.25724154  0.76274565  0.11796401  1
  O  O271  1  0.25852063  0.76032701  0.61735049  1
  O  O272  1  0.75833220  0.23964461  0.10894110  1
  O  O273  1  0.74320787  0.25586010  0.61749734  1
  O  O274  1  0.74372005  0.76021748  0.11695045  1
  O  O275  1  0.76226870  0.73599873  0.62244931  1
  O  O276  1  0.25642860  0.24058956  0.38609308  1
  O  O277  1  0.25800134  0.25656010  0.89451325  1
  O  O278  1  0.23868401  0.75331416  0.38583729  1
  O  O279  1  0.20905319  0.77246565  0.90420414  1
  O  O280  1  0.72136120  0.25993782  0.36996991  1
  O  O281  1  0.75364216  0.23302303  0.89095171  1
  O  O282  1  0.73488016  0.73344342  0.35679194  1
  O  O283  1  0.74279925  0.74300793  0.88118974  1
  O  O284  1  0.01085645  0.05531027  -0.07836093  1
  O  O285  1  -0.00281475  0.09880682  0.49704562  1
  O  O286  1  -0.04113184  0.61099398  0.01024445  1
  O  O287  1  0.01334470  0.63152189  0.51066734  1
  O  O288  1  0.51943674  0.13991083  -0.00183306  1
  O  O289  1  0.48698500  0.10594374  0.51826819  1
  O  O290  1  0.50079198  0.60943599  0.00888914  1
  O  O291  1  0.50549631  0.62785089  0.52007958  1
  O  O292  1  0.49997929  0.38227677  0.47652071  1
  O  O293  1  0.49341449  0.37685215  0.98924037  1
  O  O294  1  0.49701359  0.88762852  0.50179718  1
  O  O295  1  0.50201409  0.86655894  0.98982967  1
  O  O296  1  0.98478437  0.36585622  0.48711964  1
  O  O297  1  0.99038824  0.35871067  0.98847626  1
  O  O298  1  1.00665342  0.88967033  0.48571401  1
  O  O299  1  0.98596997  0.87502160  0.99596904  1
  O  O300  1  0.48501486  0.50157839  0.37150121  1
  O  O301  1  0.51276462  0.49029390  0.89365183  1
  O  O302  1  0.50836907  1.00216577  0.38244016  1
  O  O303  1  0.48911120  0.99993836  0.87149581  1
  O  O304  1  1.02658908  0.41436873  0.45246843  1
  O  O305  1  0.99217834  0.49441116  0.86732843  1
  O  O306  1  0.99462554  0.99113941  0.38036623  1
  O  O307  1  1.07380349  1.05805243  0.87532439  1
  O  O308  1  0.02262987  -0.01594860  0.13791924  1
  O  O309  1  0.00650485  -0.00856677  0.61281564  1
  O  O310  1  -0.03039796  0.51713424  0.19925155  1
  O  O311  1  0.01905123  0.51746186  0.62633984  1
  O  O312  1  0.52221163  -0.00245134  0.13374386  1
  O  O313  1  0.49678790  0.00995099  0.63723697  1
  O  O314  1  0.49039085  0.50601008  0.10922950  1
  O  O315  1  0.50472350  0.50963029  0.63061300  1
  O  O316  1  0.24800853  0.37881148  0.24106407  1
  O  O317  1  0.23896291  0.35972599  0.74436128  1
  O  O318  1  0.26261274  0.88635065  0.26617307  1
  O  O319  1  0.24304957  0.89063235  0.73301031  1
  O  O320  1  0.80361628  0.40624951  0.26126322  1
  O  O321  1  0.72739729  0.36284833  0.74420307  1
  O  O322  1  0.75689756  0.89069853  0.23508570  1
  O  O323  1  0.74116168  0.86763729  0.74649642  1
  O  O324  1  0.26340856  0.11889088  0.26413254  1
  O  O325  1  0.25838549  0.11918615  0.74564461  1
  O  O326  1  0.24465773  0.61226621  0.23931626  1
  O  O327  1  0.26533924  0.63418649  0.74919513  1
  O  O328  1  0.76666537  0.11233547  0.24165917  1
  O  O329  1  0.75331241  0.13395932  0.76180590  1
  O  O330  1  0.75448412  0.60907895  0.25831129  1
  O  O331  1  0.76027109  0.62965143  0.76407223  1
  O  O332  1  0.37307698  0.13321603  0.36530928  1
  O  O333  1  0.37259804  0.13160932  0.86234842  1
  O  O334  1  0.37658364  0.61935138  0.37715181  1
  O  O335  1  0.37707995  0.63743554  0.86591308  1
  O  O336  1  0.87869465  0.10498061  0.36564061  1
  O  O337  1  0.86736916  0.12511746  0.85917166  1
  O  O338  1  0.85960679  0.62920077  0.37961815  1
  O  O339  1  0.86365538  0.60677015  0.86603134  1
  O  O340  1  0.13416968  0.36686231  0.13762926  1
  O  O341  1  0.11842288  0.38302383  0.60700221  1
  O  O342  1  0.15294430  0.88177905  0.12756852  1
  O  O343  1  0.14035903  0.86840312  0.61202868  1
  O  O344  1  0.62395166  0.40160298  0.09156108  1
  O  O345  1  0.62465259  0.38309671  0.63347636  1
  O  O346  1  0.63514753  0.88797987  0.11733861  1
  O  O347  1  0.62141492  0.88649601  0.63752537  1
  O  O348  1  0.11075064  0.24216999  0.26363010  1
  O  O349  1  0.10457701  0.27541492  0.73728073  1
  O  O350  1  0.12780807  0.72879402  0.27010210  1
  O  O351  1  0.11085283  0.74355061  0.75016748  1
  O  O352  1  0.62902096  0.26165747  0.23318347  1
  O  O353  1  0.60646867  0.26046188  0.74452791  1
  O  O354  1  0.60900275  0.74165407  0.24870601  1
  O  O355  1  0.61950574  0.75922540  0.74921744  1
  O  O356  1  0.37161942  0.23890880  0.24305256  1
  O  O357  1  0.37807329  0.24121891  0.74129189  1
  O  O358  1  0.39093443  0.74448043  0.23632537  1
  O  O359  1  0.39018773  0.74046188  0.73924299  1
  O  O360  1  0.88583547  0.23127257  0.25961350  1
  O  O361  1  0.87708191  0.24673696  0.74206780  1
  O  O362  1  0.87491069  0.76929224  0.23862169  1
  O  O363  1  0.88355030  0.73535926  0.74084805  1
  O  O364  1  0.36386805  0.50499410  0.48505247  1
  O  O365  1  0.37694082  0.50441935  0.98960271  1
  O  O366  1  0.38908562  0.98707424  0.50165165  1
  O  O367  1  0.41743892  1.04746657  1.04401997  1
  O  O368  1  0.89064505  0.48276997  0.55173536  1
  O  O369  1  0.87117953  0.48028758  0.97843743  1
  O  O370  1  0.87249065  0.99669505  0.48607671  1
  O  O371  1  0.87066637  0.98664621  1.00106446  1
  O  O372  1  0.13178942  -0.00612514  0.02083719  1
  O  O373  1  0.12430114  0.00310969  0.49574068  1
  O  O374  1  0.09739269  0.48942339  0.02825370  1
  O  O375  1  0.13426947  0.51441825  0.50289521  1
  O  O376  1  0.62876491  0.01216777  0.00890164  1
  O  O377  1  0.60074281  -0.00201932  0.52457757  1
  O  O378  1  0.62496202  0.45751796  0.03732683  1
  O  O379  1  0.62407005  0.49892666  0.51797807  1
  O  O380  1  0.36854389  0.35918320  0.13556880  1
  O  O381  1  0.38405422  0.36178426  0.63350391  1
  O  O382  1  0.36064624  0.86163479  0.12837809  1
  O  O383  1  0.37151863  0.86029183  0.61286230  1
  O  O384  1  0.89016624  0.38451695  0.10449619  1
  O  O385  1  0.84684242  0.35783164  0.63144780  1
  O  O386  1  0.86529930  0.86997823  0.11377947  1
  O  O387  1  0.86966966  0.85732295  0.63206410  1
  O  O388  1  0.14702229  0.13542763  0.37231209  1
  O  O389  1  0.00666334  0.11501995  0.97675900  1
  O  O390  1  0.11430681  0.63160215  0.38869854  1
  O  O391  1  0.12015891  0.60261500  0.89857533  1
  O  O392  1  0.60756477  0.15919397  0.36382476  1
  O  O393  1  0.63323452  0.12553589  0.88559534  1
  O  O394  1  0.63337108  0.62365240  0.37007265  1
  O  O395  1  0.63742334  0.63894418  0.86320147  1
