# generated using pymatgen
data_V35Zn35O128
_symmetry_space_group_name_H-M   'P 1'
_cell_length_a   16.95523355
_cell_length_b   16.88677448
_cell_length_c   16.93095498
_cell_angle_alpha   89.98949749
_cell_angle_beta   89.92853819
_cell_angle_gamma   89.81229288
_symmetry_Int_Tables_number   1
_chemical_formula_structural   V35Zn35O128
_chemical_formula_sum   'V70 Zn70 O256'
_cell_volume   4847.62770904
_cell_formula_units_Z   2
loop_
 _symmetry_equiv_pos_site_id
 _symmetry_equiv_pos_as_xyz
  1  'x, y, z'
loop_
 _atom_site_type_symbol
 _atom_site_label
 _atom_site_symmetry_multiplicity
 _atom_site_fract_x
 _atom_site_fract_y
 _atom_site_fract_z
 _atom_site_occupancy
  V  V0  1  0.50967560  0.86382258  0.88420587  1
  V  V1  1  0.63230952  0.49505512  0.12038263  1
  V  V2  1  0.87992879  0.00471883  0.86315040  1
  V  V3  1  0.37825557  0.38397452  0.47935309  1
  V  V4  1  0.62355106  0.47925240  0.62842199  1
  V  V5  1  0.63238649  0.86391022  0.25096365  1
  V  V6  1  0.13454862  0.89600068  0.73169166  1
  V  V7  1  0.87724024  0.48340682  0.86487468  1
  V  V8  1  0.75121164  0.25451351  0.52054671  1
  V  V9  1  -0.04822080  0.23665828  0.71837850  1
  V  V10  1  0.01425234  0.87960786  0.37945511  1
  V  V11  1  0.09684187  0.69688557  0.42328998  1
  V  V12  1  0.72908780  -0.01960148  0.75048615  1
  V  V13  1  0.50135968  0.49637549  -0.00485666  1
  V  V14  1  0.13733838  0.90824864  0.25081623  1
  V  V15  1  0.49957381  0.00297924  0.00627183  1
  V  V16  1  0.63264061  0.12651898  -0.00090504  1
  V  V17  1  0.48719056  0.86807197  0.35404122  1
  V  V18  1  0.37678285  0.88546243  0.50358341  1
  V  V19  1  0.86257086  0.61562201  0.75109447  1
  V  V20  1  0.12071565  0.12269941  0.50507192  1
  V  V21  1  0.87093386  0.74185322  0.61763177  1
  V  V22  1  0.75201080  0.49482794  0.25721485  1
  V  V23  1  0.12076736  0.52085248  0.61556679  1
  V  V24  1  0.88232730  0.48974623  0.38869956  1
  V  V25  1  0.41073146  0.07954537  0.68238056  1
  V  V26  1  0.74109037  0.63867972  0.38363997  1
  V  V27  1  0.11670201  0.26807911  0.85484465  1
  V  V28  1  0.25141855  0.50580392  0.76374986  1
  V  V29  1  0.03554005  0.73521722  0.23696511  1
  V  V30  1  0.00940409  0.87223559  0.86649548  1
  V  V31  1  0.49506824  0.25823754  0.76834884  1
  V  V32  1  0.36540532  0.01816548  0.34937341  1
  V  V33  1  0.87918508  0.62861429  0.25483024  1
  V  V34  1  0.64811868  0.00317713  0.13603603  1
  V  V35  1  0.39019597  0.26366834  0.62633236  1
  V  V36  1  0.37298114  0.00967524  0.87653900  1
  V  V37  1  0.74329681  0.26718315  -0.00266067  1
  V  V38  1  0.49880353  0.49921334  0.49049437  1
  V  V39  1  0.11928262  0.37657999  0.23373954  1
  V  V40  1  0.24477789  0.37559316  0.63134164  1
  V  V41  1  0.56324452  0.80440977  0.70904092  1
  V  V42  1  0.26595599  0.75058480  0.50405250  1
  V  V43  1  0.89768776  0.36764758  0.00364756  1
  V  V44  1  0.61971875  0.63422819  0.50924720  1
  V  V45  1  0.10231760  0.26462172  0.38412146  1
  V  V46  1  0.26310011  0.61539530  0.37543453  1
  V  V47  1  0.37097252  0.86661276  0.00322559  1
  V  V48  1  0.00123498  0.52678040  0.00584431  1
  V  V49  1  -0.01224225  0.24864644  0.24273173  1
  V  V50  1  0.86541497  0.78007208  0.15164846  1
  V  V51  1  0.74106764  0.86034291  0.62144484  1
  V  V52  1  0.37862603  0.63246141  0.73258809  1
  V  V53  1  0.62625096  0.37526066  0.26310726  1
  V  V54  1  0.62261192  0.37393371  0.77571247  1
  V  V55  1  0.24395458  0.26178176  0.00608384  1
  V  V56  1  0.25583070  0.25239394  0.48095575  1
  V  V57  1  0.24660887  0.90553234  0.12005096  1
  V  V58  1  0.61148534  0.11577988  0.52370123  1
  V  V59  1  0.36320061  0.74548742  0.13834173  1
  V  V60  1  0.01177421  0.73850346  0.74341973  1
  V  V61  1  0.84710361  0.12505819  0.26584327  1
  V  V62  1  0.38397132  0.60097414  0.25543173  1
  V  V63  1  0.74247847  0.12666451  0.86433581  1
  V  V64  1  0.63182541  0.22971849  0.37341470  1
  V  V65  1  0.51413821  0.63584805  0.12818109  1
  V  V66  1  0.49016535  0.25486701  0.25197599  1
  V  V67  1  0.48940728  0.13559506  0.12908501  1
  V  V68  1  0.23839444  0.12886862  0.87103296  1
  V  V69  1  0.85125351  0.86316937  -0.02881263  1
  Zn  Zn70  1  0.73590975  0.73534239  1.00973574  1
  Zn  Zn71  1  0.89656713  0.02021819  0.39047586  1
  Zn  Zn72  1  0.25434816  0.42169552  0.13276058  1
  Zn  Zn73  1  0.03576754  0.07189608  0.05309939  1
  Zn  Zn74  1  0.86466576  0.24318342  0.12678673  1
  Zn  Zn75  1  0.37371207  0.38222912  0.00301601  1
  Zn  Zn76  1  0.17574746  0.14005703  0.17229984  1
  Zn  Zn77  1  0.21372308  0.17616481  0.68896367  1
  Zn  Zn78  1  0.20226374  0.62359488  0.16884200  1
  Zn  Zn79  1  0.19696420  0.68825346  0.68758230  1
  Zn  Zn80  1  0.68602365  0.19090316  0.18060308  1
  Zn  Zn81  1  0.67528899  0.19312550  0.69086629  1
  Zn  Zn82  1  0.69630680  0.68738166  0.19372908  1
  Zn  Zn83  1  0.68673946  0.67133849  0.68971102  1
  Zn  Zn84  1  0.27512002  0.25960954  0.25935365  1
  Zn  Zn85  1  0.30999720  0.31503509  0.81521201  1
  Zn  Zn86  1  0.30040139  0.80965581  0.31704039  1
  Zn  Zn87  1  0.32152434  0.82423984  0.80381900  1
  Zn  Zn88  1  0.81157704  0.31291790  0.32788546  1
  Zn  Zn89  1  0.80697702  0.31353448  0.81201975  1
  Zn  Zn90  1  0.80874642  0.83590140  0.34642187  1
  Zn  Zn91  1  0.81508660  0.80181794  0.80602071  1
  Zn  Zn92  1  0.18524283  0.43597948  0.44027736  1
  Zn  Zn93  1  0.17230066  0.43673565  0.94327264  1
  Zn  Zn94  1  0.20044553  0.94467583  0.43800782  1
  Zn  Zn95  1  0.18154673  0.94900952  0.93408518  1
  Zn  Zn96  1  0.68866515  0.43903501  0.44144148  1
  Zn  Zn97  1  0.70615459  0.56770566  0.93137345  1
  Zn  Zn98  1  0.66368181  0.92950588  0.43821003  1
  Zn  Zn99  1  0.68532175  0.94518086  0.94111262  1
  Zn  Zn100  1  0.31197772  0.07571247  0.05233417  1
  Zn  Zn101  1  0.31562563  0.06967636  0.54437017  1
  Zn  Zn102  1  0.32285219  0.57190112  0.05018239  1
  Zn  Zn103  1  0.31172217  0.56078182  0.56478157  1
  Zn  Zn104  1  0.84586193  0.06658853  0.05513724  1
  Zn  Zn105  1  0.76085958  0.03727531  0.53986125  1
  Zn  Zn106  1  0.82483487  0.54901602  0.07045171  1
  Zn  Zn107  1  0.80007541  0.55518514  0.57070657  1
  Zn  Zn108  1  0.44525189  0.43146974  0.17713701  1
  Zn  Zn109  1  0.43959862  0.44519384  0.68623029  1
  Zn  Zn110  1  0.43376894  0.94129364  0.18675883  1
  Zn  Zn111  1  0.42705647  0.91823313  0.69448659  1
  Zn  Zn112  1  0.94118248  0.43446936  0.18452763  1
  Zn  Zn113  1  0.97179665  0.43127549  0.70825973  1
  Zn  Zn114  1  0.91961272  0.97196750  0.19489678  1
  Zn  Zn115  1  0.92196043  0.92487736  0.69376924  1
  Zn  Zn116  1  0.07062552  0.07619612  0.32376622  1
  Zn  Zn117  1  0.05947904  0.07327896  0.79229785  1
  Zn  Zn118  1  0.06311843  0.54996367  0.31541729  1
  Zn  Zn119  1  0.06296757  0.55230282  0.81308831  1
  Zn  Zn120  1  0.55040115  0.05620105  0.31232921  1
  Zn  Zn121  1  0.55285386  0.06828072  0.80958835  1
  Zn  Zn122  1  0.56471655  0.56638447  0.31396542  1
  Zn  Zn123  1  0.56118744  0.56479046  0.80662542  1
  Zn  Zn124  1  0.44130059  0.18888123  0.43466514  1
  Zn  Zn125  1  0.43373884  0.19422168  0.95082123  1
  Zn  Zn126  1  0.44287295  0.68894172  0.43600750  1
  Zn  Zn127  1  0.56653407  0.68459310  0.94253704  1
  Zn  Zn128  1  0.93468218  0.18968234  0.45662246  1
  Zn  Zn129  1  0.93522104  0.18803934  0.92793257  1
  Zn  Zn130  1  0.91527378  0.63465499  0.47040984  1
  Zn  Zn131  1  0.88358716  0.67285904  0.95074468  1
  Zn  Zn132  1  0.07563215  0.26462079  0.06913778  1
  Zn  Zn133  1  0.08786644  0.26145179  0.63250945  1
  Zn  Zn134  1  0.05385910  0.91021462  0.05962375  1
  Zn  Zn135  1  0.06548546  0.80945008  0.56894464  1
  Zn  Zn136  1  0.57142112  0.31685447  0.06371334  1
  Zn  Zn137  1  0.56379482  0.31494680  0.54767140  1
  Zn  Zn138  1  0.56653514  0.81893467  0.07432065  1
  Zn  Zn139  1  0.54899307  0.81653690  0.54693608  1
  O  O140  1  0.09921520  0.15200926  0.09939388  1
  O  O141  1  0.13491125  0.15351283  0.60715968  1
  O  O142  1  0.13603795  0.68369775  -0.00720433  1
  O  O143  1  0.13201413  0.62057951  0.61717946  1
  O  O144  1  0.62050043  0.11611933  0.11733032  1
  O  O145  1  0.60857763  0.12714239  0.62340324  1
  O  O146  1  0.61780505  0.61684732  0.14419609  1
  O  O147  1  0.62583628  0.61398368  0.61148008  1
  O  O148  1  0.36857742  0.38509847  0.38471587  1
  O  O149  1  0.37304400  0.36967390  0.88907304  1
  O  O150  1  0.37790805  0.88283842  0.36564470  1
  O  O151  1  0.38029704  0.88411809  0.88637512  1
  O  O152  1  0.86618989  0.39069899  0.38914719  1
  O  O153  1  0.87788005  0.37733849  0.87995455  1
  O  O154  1  0.91952321  0.85627145  0.35348728  1
  O  O155  1  0.88374577  0.88471111  0.86206596  1
  O  O156  1  0.26563499  0.00010881  0.36342671  1
  O  O157  1  0.26569538  0.01222133  0.88441917  1
  O  O158  1  0.25199820  0.51664710  0.38791730  1
  O  O159  1  0.24269465  0.49197328  0.86147548  1
  O  O160  1  0.77479276  -0.05901556  0.40088442  1
  O  O161  1  0.74941476  0.00386145  0.86315509  1
  O  O162  1  0.75325251  0.50515586  0.37023185  1
  O  O163  1  0.77928358  0.49857274  0.87809880  1
  O  O164  1  0.23596253  0.53487085  0.11043152  1
  O  O165  1  0.24031598  0.48771647  0.62315931  1
  O  O166  1  0.25414833  1.00441251  0.12316479  1
  O  O167  1  0.31659660  1.04283333  0.65550422  1
  O  O168  1  0.74015137  0.50995306  0.14446216  1
  O  O169  1  0.72447327  0.49521562  0.62419020  1
  O  O170  1  0.74496856  1.00925625  0.12020464  1
  O  O171  1  0.74752927  0.97457699  0.64087371  1
  O  O172  1  -0.00172490  0.36095471  0.25259566  1
  O  O173  1  -0.01054612  0.33073749  0.74720198  1
  O  O174  1  0.04573656  0.85142840  0.24506802  1
  O  O175  1  0.01052148  0.87495340  0.74630571  1
  O  O176  1  0.51687546  0.36353518  0.24073212  1
  O  O177  1  0.49777321  0.36460034  0.75441618  1
  O  O178  1  0.50415240  0.87529901  0.24857809  1
  O  O179  1  0.49962419  0.86958204  0.77013270  1
  O  O180  1  0.50339364  0.13857002  0.23545999  1
  O  O181  1  0.48228243  0.13888517  0.74866596  1
  O  O182  1  0.49181202  0.62142689  0.24350661  1
  O  O183  1  0.47612654  0.61698067  0.75507890  1
  O  O184  1  0.99671281  0.14800389  0.26844239  1
  O  O185  1  0.98556079  0.14441559  0.75127375  1
  O  O186  1  0.98801480  0.63681506  0.26983101  1
  O  O187  1  1.00438143  0.63695186  0.75018310  1
  O  O188  1  0.35530790  0.26572389  -0.01355015  1
  O  O189  1  0.37428716  0.26703662  0.49969384  1
  O  O190  1  0.38257282  0.76777342  0.01913641  1
  O  O191  1  0.37171956  0.76148280  0.49251198  1
  O  O192  1  0.85891885  0.26339251  -0.01144200  1
  O  O193  1  0.85050134  0.24249065  0.50715774  1
  O  O194  1  0.88989678  0.80178212  0.04675003  1
  O  O195  1  0.87450217  0.73327811  0.51855796  1
  O  O196  1  0.14439979  0.25983949  0.48932730  1
  O  O197  1  0.13976708  0.25673689  0.97373814  1
  O  O198  1  0.14340072  0.75296854  0.49736125  1
  O  O199  1  0.11627160  0.68403492  0.92099001  1
  O  O200  1  0.61933977  0.23811042  0.48395748  1
  O  O201  1  0.63371476  0.23863936  1.00265277  1
  O  O202  1  0.61562849  0.73374596  0.50571991  1
  O  O203  1  0.62700876  0.74971674  1.01230738  1
  O  O204  1  0.51162069  0.24152013  0.13274204  1
  O  O205  1  0.49106477  0.26895931  0.62583763  1
  O  O206  1  0.49485307  0.73836530  0.12601963  1
  O  O207  1  0.50166588  0.76350361  0.64248918  1
  O  O208  1  0.98254982  0.24698888  0.14103114  1
  O  O209  1  0.97682891  0.23873512  0.61801770  1
  O  O210  1  0.97631995  0.74767807  0.15524129  1
  O  O211  1  0.98141955  0.75789817  0.63543532  1
  O  O212  1  0.00346397  0.26704588  0.39738331  1
  O  O213  1  0.02097736  0.23836760  0.87663280  1
  O  O214  1  0.04688324  0.75816407  0.35347814  1
  O  O215  1  -0.00422764  0.76726482  0.84779579  1
  O  O216  1  0.51321142  0.24527950  0.35609428  1
  O  O217  1  0.48980759  0.24805168  0.86650433  1
  O  O218  1  0.49088966  0.76767372  0.36762069  1
  O  O219  1  0.49721876  0.76583964  0.89319188  1
  O  O220  1  0.25166168  0.15002949  0.49804367  1
  O  O221  1  0.25840245  0.14376626  0.97957437  1
  O  O222  1  0.27102370  0.63652657  0.48546518  1
  O  O223  1  0.28069263  0.65116280  0.97030715  1
  O  O224  1  0.72390624  0.14138794  0.50817231  1
  O  O225  1  0.74052375  0.11893356  0.98977973  1
  O  O226  1  0.73359158  0.61894428  0.49099495  1
  O  O227  1  0.78201984  0.62656587  0.99766920  1
  O  O228  1  0.24077930  0.37363804  0.01150175  1
  O  O229  1  0.26356745  0.37122239  0.50706623  1
  O  O230  1  0.25673281  0.88525234  0.01337424  1
  O  O231  1  0.26526387  0.86106641  0.48574642  1
  O  O232  1  0.73911035  0.36325015  -0.00961653  1
  O  O233  1  0.73429048  0.35431635  0.49713730  1
  O  O234  1  0.75491112  0.87476001  0.00035118  1
  O  O235  1  0.72236329  0.86199098  0.52530826  1
  O  O236  1  0.11137429  0.47904680  0.24352846  1
  O  O237  1  0.14343131  0.50818763  0.73789645  1
  O  O238  1  0.12103048  1.00714846  0.24218826  1
  O  O239  1  0.12469640  0.99653731  0.73967030  1
  O  O240  1  0.63115298  0.48928930  0.25180933  1
  O  O241  1  0.60740309  0.48232529  0.73791387  1
  O  O242  1  0.62753371  1.00700051  0.23679994  1
  O  O243  1  0.63071493  0.99748973  0.75690657  1
  O  O244  1  0.37268846  0.01327938  0.24732429  1
  O  O245  1  0.39134020  -0.00094671  0.77470186  1
  O  O246  1  0.38521128  0.50308602  0.25084890  1
  O  O247  1  0.35942385  0.50961259  0.74255135  1
  O  O248  1  0.86330432  0.01933752  0.27536001  1
  O  O249  1  0.85226374  -0.00567663  0.75923643  1
  O  O250  1  0.86780810  0.50269615  0.26434099  1
  O  O251  1  0.88798489  0.50081916  0.75490951  1
  O  O252  1  0.13062102  0.36596753  0.36796867  1
  O  O253  1  0.12267257  0.36784339  0.86036081  1
  O  O254  1  0.13200575  0.89292903  0.35679072  1
  O  O255  1  0.11218627  0.88663981  0.85939736  1
  O  O256  1  0.62076273  0.36979824  0.36373641  1
  O  O257  1  0.61386329  0.37875705  0.87068113  1
  O  O258  1  0.60161383  0.88419218  0.35804399  1
  O  O259  1  0.60775589  0.87902153  0.88735289  1
  O  O260  1  0.39164842  0.13436249  0.11393672  1
  O  O261  1  0.39235658  0.15642991  0.60562128  1
  O  O262  1  0.38935986  0.63131947  0.13948674  1
  O  O263  1  0.37345803  0.62839182  0.63192982  1
  O  O264  1  0.86489562  0.12629013  0.15929055  1
  O  O265  1  0.89551799  0.06932971  0.60070360  1
  O  O266  1  0.87306576  0.61374595  0.15613505  1
  O  O267  1  0.86709765  0.62967566  0.63526587  1
  O  O268  1  0.24004111  0.24147198  0.10196591  1
  O  O269  1  0.26813321  0.26349744  0.62012215  1
  O  O270  1  0.26716369  0.72722012  0.12322057  1
  O  O271  1  0.25324230  0.74478284  0.60280496  1
  O  O272  1  0.75102006  0.24646282  0.10259607  1
  O  O273  1  0.73559313  0.25516154  0.62022439  1
  O  O274  1  0.76948220  0.74636396  0.12701287  1
  O  O275  1  0.75698330  0.75143908  0.63861391  1
  O  O276  1  0.26014870  0.26135243  0.38308685  1
  O  O277  1  0.23598777  0.24487323  0.87164632  1
  O  O278  1  0.24551093  0.73322840  0.38271707  1
  O  O279  1  0.31531330  0.66548842  0.90095034  1
  O  O280  1  0.73181144  0.24862045  0.37969016  1
  O  O281  1  0.74912655  0.23135256  0.88392519  1
  O  O282  1  0.75496227  0.73712591  0.38092201  1
  O  O283  1  0.81797175  0.76601743  0.91785014  1
  O  O284  1  -0.05944403  0.11783750  0.01333493  1
  O  O285  1  0.01971088  0.12209536  0.49835846  1
  O  O286  1  -0.02443488  0.62571819  -0.00047370  1
  O  O287  1  0.02530631  0.64982991  0.47346611  1
  O  O288  1  0.51097247  0.12406260  0.00966047  1
  O  O289  1  0.51543641  0.12398207  0.49242866  1
  O  O290  1  0.50761029  0.61480050  0.02360971  1
  O  O291  1  0.51124681  0.61498746  0.49399195  1
  O  O292  1  0.48820449  0.38466775  0.49308266  1
  O  O293  1  0.50582658  0.39274470  1.01275303  1
  O  O294  1  0.48351216  0.87733368  0.47999691  1
  O  O295  1  0.49235134  0.88531396  1.00134634  1
  O  O296  1  0.96705332  0.38424375  0.52455530  1
  O  O297  1  0.99370208  0.35281365  1.00226096  1
  O  O298  1  1.01944619  0.86349173  0.47748431  1
  O  O299  1  0.99517755  0.86968835  0.96709838  1
  O  O300  1  0.50717262  0.50136503  0.39018971  1
  O  O301  1  0.51549052  0.50697287  0.89867734  1
  O  O302  1  0.47880940  0.98764249  0.36438737  1
  O  O303  1  0.49529607  0.99614234  0.89271563  1
  O  O304  1  0.98090938  0.50197282  0.37628061  1
  O  O305  1  0.98725214  0.50289595  0.88661179  1
  O  O306  1  1.00640965  0.98683379  0.37110869  1
  O  O307  1  0.98332915  0.99700212  0.85522272  1
  O  O308  1  -0.01918609  -0.01839114  0.10855272  1
  O  O309  1  -0.05069425  0.01868228  0.61182955  1
  O  O310  1  -0.01282650  0.50253781  0.10482466  1
  O  O311  1  0.02255084  0.50022057  0.63887463  1
  O  O312  1  0.49910213  0.01493212  0.11710000  1
  O  O313  1  0.47406669  0.01557705  0.64042784  1
  O  O314  1  0.51948692  0.50889198  0.12602169  1
  O  O315  1  0.51152705  0.49593909  0.60901677  1
  O  O316  1  0.22567275  0.36148803  0.23274208  1
  O  O317  1  0.25995130  0.38677244  0.73557338  1
  O  O318  1  0.24028217  0.87706928  0.23505861  1
  O  O319  1  0.23103405  0.87087318  0.75893096  1
  O  O320  1  0.73914148  0.38312337  0.25827398  1
  O  O321  1  0.72229571  0.36612060  0.76059140  1
  O  O322  1  0.72927339  0.87513705  0.27000845  1
  O  O323  1  0.73870481  0.87531768  0.75476328  1
  O  O324  1  0.24657703  0.15216767  0.25014924  1
  O  O325  1  0.27388166  0.13274400  0.77448271  1
  O  O326  1  0.27411396  0.62056533  0.26273805  1
  O  O327  1  0.25889994  0.61447029  0.75089420  1
  O  O328  1  0.74854894  0.13763903  0.26182614  1
  O  O329  1  0.73242682  0.11725540  0.76269282  1
  O  O330  1  0.75340378  0.61588726  0.26722807  1
  O  O331  1  0.76342745  0.61473398  0.75336477  1
  O  O332  1  0.37888075  0.11620452  0.37536547  1
  O  O333  1  0.38340848  0.10931014  0.88796870  1
  O  O334  1  0.37690424  0.62403744  0.36288492  1
  O  O335  1  0.36615648  0.61280284  0.87551257  1
  O  O336  1  0.87509734  0.13378676  0.37303547  1
  O  O337  1  0.85434581  0.11004289  0.87386882  1
  O  O338  1  0.85794320  0.61467896  0.36999749  1
  O  O339  1  0.88347780  0.61220631  0.85215932  1
  O  O340  1  0.10745007  0.35901302  0.13473082  1
  O  O341  1  0.14522710  0.36211085  0.62405464  1
  O  O342  1  0.14365605  0.88246020  0.13039992  1
  O  O343  1  0.12693778  0.87943038  0.63207301  1
  O  O344  1  0.62988887  0.39020786  0.13676065  1
  O  O345  1  0.61961933  0.37810177  0.62463509  1
  O  O346  1  0.62384010  0.89450680  0.13934251  1
  O  O347  1  0.62586403  0.85682641  0.64167102  1
  O  O348  1  0.10047000  0.25991625  0.27030531  1
  O  O349  1  0.13211657  0.24278745  0.75169942  1
  O  O350  1  0.12146027  0.69807217  0.20466171  1
  O  O351  1  0.11253694  0.75567949  0.73557082  1
  O  O352  1  0.62685258  0.26089442  0.25622400  1
  O  O353  1  0.60222983  0.25916632  0.75276632  1
  O  O354  1  0.62456110  0.76466809  0.23923388  1
  O  O355  1  0.61795674  0.73536902  0.75620066  1
  O  O356  1  0.39321974  0.26361878  0.25203843  1
  O  O357  1  0.38309641  0.25975009  0.73356327  1
  O  O358  1  0.37110899  0.75426590  0.23846116  1
  O  O359  1  0.36126493  0.73207559  0.75892723  1
  O  O360  1  0.87728339  0.24796289  0.25923696  1
  O  O361  1  0.85224516  0.24101838  0.73769716  1
  O  O362  1  0.86207353  0.73306295  0.25605371  1
  O  O363  1  0.88076156  0.73011006  0.74264021  1
  O  O364  1  0.38787387  0.49395342  0.50414705  1
  O  O365  1  0.39745140  0.50307449  1.00234229  1
  O  O366  1  0.36405708  0.98704238  0.48362674  1
  O  O367  1  0.38282132  0.99292480  0.99741901  1
  O  O368  1  0.87516945  0.52385088  0.49052651  1
  O  O369  1  0.88755285  0.48118224  0.99023465  1
  O  O370  1  0.82639632  0.96896390  0.46657264  1
  O  O371  1  0.86365267  0.97524053  0.97188994  1
  O  O372  1  0.11048192  -0.00431098  0.00486160  1
  O  O373  1  0.14928100  0.02597713  0.50051594  1
  O  O374  1  0.10066543  0.51221927  -0.00968962  1
  O  O375  1  0.12537077  0.49467837  0.51689739  1
  O  O376  1  0.61755236  0.00645129  0.01487964  1
  O  O377  1  0.64012862  0.01473050  0.50749315  1
  O  O378  1  0.63255870  0.50587791  0.01978565  1
  O  O379  1  0.61361098  0.50000044  0.50689808  1
  O  O380  1  0.36325715  0.38863225  0.11726915  1
  O  O381  1  0.36910469  0.37323924  0.61515990  1
  O  O382  1  0.35839593  0.86958336  0.12508687  1
  O  O383  1  0.37663085  0.87998109  0.60364433  1
  O  O384  1  0.87410247  0.37106986  0.10541763  1
  O  O385  1  0.91152028  0.38501364  0.57050417  1
  O  O386  1  0.85933909  0.87228144  0.18363362  1
  O  O387  1  0.85393511  0.85592342  0.62977320  1
  O  O388  1  0.12595651  0.15296064  0.39081477  1
  O  O389  1  0.13874301  0.11853680  0.86658982  1
  O  O390  1  0.14298845  0.61973394  0.36700241  1
  O  O391  1  0.14250522  0.62406591  0.87452919  1
  O  O392  1  0.62361702  0.13016654  0.36636215  1
  O  O393  1  0.63184425  0.11418210  0.88726435  1
  O  O394  1  0.63533336  0.62519420  0.38309122  1
  O  O395  1  0.63028708  0.62332013  0.87346922  1
