# generated using pymatgen
data_V35Zn35O128
_symmetry_space_group_name_H-M   'P 1'
_cell_length_a   16.86833826
_cell_length_b   16.85218529
_cell_length_c   16.84097758
_cell_angle_alpha   89.85110483
_cell_angle_beta   90.17920471
_cell_angle_gamma   89.69975487
_symmetry_Int_Tables_number   1
_chemical_formula_structural   V35Zn35O128
_chemical_formula_sum   'V70 Zn70 O256'
_cell_volume   4787.25159180
_cell_formula_units_Z   2
loop_
 _symmetry_equiv_pos_site_id
 _symmetry_equiv_pos_as_xyz
  1  'x, y, z'
loop_
 _atom_site_type_symbol
 _atom_site_label
 _atom_site_symmetry_multiplicity
 _atom_site_fract_x
 _atom_site_fract_y
 _atom_site_fract_z
 _atom_site_occupancy
  V  V0  1  0.01201487  0.25303392  0.74810209  1
  V  V1  1  0.24773742  0.00477561  0.75104209  1
  V  V2  1  -0.03013238  0.75355859  0.73872765  1
  V  V3  1  0.62353393  0.36909227  0.26664426  1
  V  V4  1  0.61633863  0.48230450  0.63567651  1
  V  V5  1  0.36079398  0.87512615  0.01119957  1
  V  V6  1  0.24111631  0.50808520  0.75542457  1
  V  V7  1  0.37971829  0.37589199  0.48957861  1
  V  V8  1  0.12443316  0.86797938  0.76049104  1
  V  V9  1  0.37665542  0.89835920  0.49413840  1
  V  V10  1  0.25064845  0.38250397  0.12184058  1
  V  V11  1  0.26534611  0.51173953  0.24918623  1
  V  V12  1  0.75077666  0.35860612  0.11465855  1
  V  V13  1  0.64479708  0.88391064  0.75374518  1
  V  V14  1  0.37187215  0.50252530  0.87412932  1
  V  V15  1  0.11642356  0.01325749  0.11994356  1
  V  V16  1  0.24322238  0.37804300  0.62833349  1
  V  V17  1  0.25269043  -0.01186463  0.24332541  1
  V  V18  1  0.37588628  0.24595294  0.63119016  1
  V  V19  1  0.75210496  0.62591252  0.86715753  1
  V  V20  1  0.49448527  0.77107245  0.75655839  1
  V  V21  1  0.76025198  0.75205472  0.51553046  1
  V  V22  1  0.38790075  0.62368800  0.74887757  1
  V  V23  1  0.49906000  0.49676257  0.49349780  1
  V  V24  1  0.23090686  0.12970087  0.36576669  1
  V  V25  1  0.12765973  0.00279958  0.60772900  1
  V  V26  1  0.24423347  0.72710357  -0.00712125  1
  V  V27  1  0.63129333  0.89274739  0.24142817  1
  V  V28  1  0.23722568  0.12895290  0.87787276  1
  V  V29  1  0.86444095  0.25571072  0.61923326  1
  V  V30  1  0.49959912  0.89485813  0.37525638  1
  V  V31  1  0.12191784  0.85860982  0.24629101  1
  V  V32  1  0.63523227  -0.00089983  0.61622441  1
  V  V33  1  0.62394260  0.62362302  0.00296076  1
  V  V34  1  0.49947475  -0.00678989  0.01267448  1
  V  V35  1  0.50257451  0.11816478  0.60857383  1
  V  V36  1  0.74814215  0.10462341  0.37355372  1
  V  V37  1  0.37281350  0.13059147  0.25462601  1
  V  V38  1  0.75558428  0.75483315  0.00819346  1
  V  V39  1  0.62446626  0.49714708  0.12649462  1
  V  V40  1  0.49995469  0.50389991  0.00129732  1
  V  V41  1  0.37675048  0.74622633  0.61497521  1
  V  V42  1  -0.01501240  -0.01296538  -0.02638290  1
  V  V43  1  0.00671772  0.12686857  0.60815332  1
  V  V44  1  0.01618947  0.37469568  0.37528301  1
  V  V45  1  0.50598069  0.37052535  0.86492173  1
  V  V46  1  0.73830765  0.24922834  0.48582123  1
  V  V47  1  0.23141739  0.24952941  -0.00263866  1
  V  V48  1  0.49300865  0.14156817  0.12088247  1
  V  V49  1  0.49704930  0.25694581  0.26950655  1
  V  V50  1  0.61575462  0.74899964  0.36455338  1
  V  V51  1  0.38119493  0.35973468  0.00002100  1
  V  V52  1  0.12972376  0.62413973  0.49853465  1
  V  V53  1  0.87000303  0.12286360  0.75966340  1
  V  V54  1  0.89183079  0.74915126  0.12079867  1
  V  V55  1  0.39764595  0.62324845  0.26114881  1
  V  V56  1  0.38017929  0.00071195  0.87140686  1
  V  V57  1  0.63878402  0.24200838  0.87474772  1
  V  V58  1  0.49965297  0.23549480  0.75339851  1
  V  V59  1  0.88849951  0.62221615  0.24309310  1
  V  V60  1  0.74671916  0.47754433  0.74819966  1
  V  V61  1  0.61792063  0.63113704  0.51571636  1
  V  V62  1  0.75003720  0.62239659  0.37039271  1
  V  V63  1  0.00149566  0.37323068  0.89418317  1
  V  V64  1  0.87425180  0.38863015  0.48984951  1
  V  V65  1  0.23937193  0.24773542  0.49181853  1
  V  V66  1  0.87293601  0.48976620  0.88583450  1
  V  V67  1  0.38884058  0.73644536  0.12808354  1
  V  V68  1  0.63548978  0.12478657  0.00701742  1
  V  V69  1  0.00226949  0.88220948  0.37930912  1
  Zn  Zn70  1  0.12416746  0.38008549  0.75963934  1
  Zn  Zn71  1  0.24912414  0.87380613  0.61357745  1
  Zn  Zn72  1  0.75035046  0.49236960  0.25701288  1
  Zn  Zn73  1  0.00202806  0.24815407  0.25569655  1
  Zn  Zn74  1  0.87353838  0.13514779  0.25487846  1
  Zn  Zn75  1  0.61944518  0.75682409  0.87907388  1
  Zn  Zn76  1  0.17431823  0.20464411  0.17908805  1
  Zn  Zn77  1  0.19010522  0.18534091  0.68506591  1
  Zn  Zn78  1  0.20628535  0.68695686  0.17849826  1
  Zn  Zn79  1  0.19757508  0.69164801  0.68949221  1
  Zn  Zn80  1  0.68544467  0.18118956  0.19587196  1
  Zn  Zn81  1  0.68462891  0.18321173  0.68880594  1
  Zn  Zn82  1  0.68102076  0.68917635  0.18513713  1
  Zn  Zn83  1  0.67662092  0.69007509  0.69167162  1
  Zn  Zn84  1  0.30797844  0.31411491  0.30542345  1
  Zn  Zn85  1  0.31326544  0.31290244  0.81434572  1
  Zn  Zn86  1  0.32047994  0.80493211  0.31662614  1
  Zn  Zn87  1  0.30981199  0.81870129  0.81739317  1
  Zn  Zn88  1  0.81655786  0.31075020  0.31032802  1
  Zn  Zn89  1  0.82083497  0.30316129  0.81472482  1
  Zn  Zn90  1  0.81603934  0.81442732  0.30068580  1
  Zn  Zn91  1  0.82178239  0.80499181  0.81047393  1
  Zn  Zn92  1  0.19303437  0.43501880  0.43194578  1
  Zn  Zn93  1  0.17659812  0.44115250  0.95341347  1
  Zn  Zn94  1  0.19263731  0.93563984  0.42360038  1
  Zn  Zn95  1  0.18357137  0.93855985  0.94123768  1
  Zn  Zn96  1  0.69112907  0.43617182  0.44876641  1
  Zn  Zn97  1  0.68733596  0.43184265  0.93778228  1
  Zn  Zn98  1  0.69043077  0.92980264  0.43964076  1
  Zn  Zn99  1  0.67482655  0.93273882  0.94599376  1
  Zn  Zn100  1  0.31019478  0.06804780  0.06576656  1
  Zn  Zn101  1  0.30969640  0.06933007  0.55862166  1
  Zn  Zn102  1  0.31988799  0.56456342  0.06330319  1
  Zn  Zn103  1  0.31759307  0.56034815  0.56766553  1
  Zn  Zn104  1  0.83626910  0.06284027  0.04253752  1
  Zn  Zn105  1  0.81018802  0.07441654  0.56859465  1
  Zn  Zn106  1  0.81134638  0.55952947  0.06572857  1
  Zn  Zn107  1  0.80381493  0.56441130  0.56829250  1
  Zn  Zn108  1  0.43814770  0.43521476  0.18552489  1
  Zn  Zn109  1  0.43413042  0.43280835  0.68519964  1
  Zn  Zn110  1  0.43900354  0.93797713  0.19216057  1
  Zn  Zn111  1  0.43267246  0.94110879  0.68210754  1
  Zn  Zn112  1  0.92471374  0.43647366  0.19912125  1
  Zn  Zn113  1  0.92208423  0.42992708  0.69555706  1
  Zn  Zn114  1  0.95423286  0.91618243  0.17309186  1
  Zn  Zn115  1  0.95202156  0.94763162  0.69764507  1
  Zn  Zn116  1  0.05554614  0.05717963  0.30273253  1
  Zn  Zn117  1  0.06236186  0.05991907  0.80643701  1
  Zn  Zn118  1  0.06098263  0.55866454  0.31225783  1
  Zn  Zn119  1  0.03382398  0.55829032  0.78341717  1
  Zn  Zn120  1  0.56857592  0.07019658  0.31338630  1
  Zn  Zn121  1  0.56668194  0.05947484  0.81611331  1
  Zn  Zn122  1  0.56759884  0.55808539  0.31725632  1
  Zn  Zn123  1  0.56400176  0.56243543  0.81563823  1
  Zn  Zn124  1  0.43060034  0.18598384  0.43918111  1
  Zn  Zn125  1  0.43677276  0.17809507  0.92923050  1
  Zn  Zn126  1  0.44353666  0.68673855  0.43865219  1
  Zn  Zn127  1  0.43335049  0.69046287  0.93438340  1
  Zn  Zn128  1  0.93182928  0.19106899  0.42760610  1
  Zn  Zn129  1  0.98389375  0.16787778  0.92209055  1
  Zn  Zn130  1  0.92089141  0.72582561  0.41514349  1
  Zn  Zn131  1  0.94163996  0.69484863  0.90805034  1
  Zn  Zn132  1  0.05886439  0.36481414  0.12226802  1
  Zn  Zn133  1  0.05672240  0.31603665  0.55753564  1
  Zn  Zn134  1  0.07391154  0.81509737  0.06191187  1
  Zn  Zn135  1  0.05738274  0.81485856  0.56772201  1
  Zn  Zn136  1  0.57153954  0.31200442  0.05948371  1
  Zn  Zn137  1  0.56104517  0.30857347  0.56419384  1
  Zn  Zn138  1  0.56712894  0.81186421  0.06497442  1
  Zn  Zn139  1  0.55641774  0.82162440  0.56886489  1
  O  O140  1  0.12720962  0.11215160  0.13478442  1
  O  O141  1  0.11765956  0.11876758  0.62334852  1
  O  O142  1  0.13439718  0.59003438  0.16824292  1
  O  O143  1  0.13904554  0.62864116  0.60494489  1
  O  O144  1  0.60960865  0.12875333  0.11447613  1
  O  O145  1  0.61107093  0.11406099  0.63051788  1
  O  O146  1  0.62675266  0.61315435  0.11303299  1
  O  O147  1  0.62208171  0.61538827  0.61719984  1
  O  O148  1  0.36730468  0.37239063  0.39110689  1
  O  O149  1  0.38540100  0.38142862  0.88069078  1
  O  O150  1  0.38959298  0.87554168  0.38184439  1
  O  O151  1  0.36875069  0.89281379  0.89303018  1
  O  O152  1  0.87190088  0.38166748  0.38722317  1
  O  O153  1  0.88319486  0.38008980  0.87493498  1
  O  O154  1  0.90251975  0.83867517  0.36987297  1
  O  O155  1  0.81708280  0.95724507  0.86016243  1
  O  O156  1  0.24604699  0.02214275  0.35679018  1
  O  O157  1  0.25362509  0.01031684  0.87166878  1
  O  O158  1  0.24345633  0.48721201  0.34484265  1
  O  O159  1  0.25899442  0.48799176  0.86229531  1
  O  O160  1  0.75529334  0.00426625  0.38659980  1
  O  O161  1  0.75875870  -0.00023343  0.87827518  1
  O  O162  1  0.73870438  0.51802905  0.38026861  1
  O  O163  1  0.74966343  0.50140316  0.86675266  1
  O  O164  1  0.26955498  0.49102486  0.13418138  1
  O  O165  1  0.25961551  0.48574275  0.63997000  1
  O  O166  1  0.24465314  1.00657289  0.13906090  1
  O  O167  1  0.24168676  1.01152596  0.63317869  1
  O  O168  1  0.73405468  0.49244918  0.12820507  1
  O  O169  1  0.73695486  0.50287620  0.64209039  1
  O  O170  1  0.79544020  0.99532243  0.15879681  1
  O  O171  1  0.73467818  1.01066538  0.62568916  1
  O  O172  1  -0.00784967  0.37297833  0.26954031  1
  O  O173  1  0.00504950  0.36388119  0.74155315  1
  O  O174  1  0.01572215  0.86236959  0.25696815  1
  O  O175  1  0.01563919  0.86521659  0.74154113  1
  O  O176  1  0.50522691  0.36408616  0.24870254  1
  O  O177  1  0.49664702  0.36329527  0.75943181  1
  O  O178  1  0.50856462  0.88117142  0.26663327  1
  O  O179  1  0.48956596  0.87154380  0.75775427  1
  O  O180  1  0.49644573  0.13810337  0.24202664  1
  O  O181  1  0.49763132  0.13270584  0.74979660  1
  O  O182  1  0.49768124  0.61770900  0.24831623  1
  O  O183  1  0.49115882  0.62842220  0.75077195  1
  O  O184  1  0.98823476  0.13200795  0.25435354  1
  O  O185  1  0.99877801  0.14118858  0.74379254  1
  O  O186  1  0.98700138  0.62347732  0.25476954  1
  O  O187  1  1.00249659  0.66430419  0.78993460  1
  O  O188  1  0.38151668  0.25960423  -0.00599080  1
  O  O189  1  0.36930842  0.26142908  0.50799865  1
  O  O190  1  0.37549516  0.76291570  0.00335200  1
  O  O191  1  0.38343413  0.74634784  0.51387216  1
  O  O192  1  0.88951472  0.21381971  0.08588731  1
  O  O193  1  0.86887462  0.25631445  0.51013110  1
  O  O194  1  0.86245553  0.73477664  0.00928630  1
  O  O195  1  0.85931156  0.72810723  0.50820473  1
  O  O196  1  0.14212164  0.25379144  0.50641824  1
  O  O197  1  0.13627174  0.25593819  0.98962075  1
  O  O198  1  0.12923744  0.72806200  0.49820451  1
  O  O199  1  0.14594099  0.74312796  1.01235394  1
  O  O200  1  0.63964265  0.25466182  0.50542989  1
  O  O201  1  0.62138353  0.23398664  0.98960468  1
  O  O202  1  0.61728085  0.73657392  0.50566632  1
  O  O203  1  0.63155959  0.74040272  0.99788358  1
  O  O204  1  0.49889215  0.24304733  0.12375904  1
  O  O205  1  0.49686692  0.23903488  0.63311214  1
  O  O206  1  0.48799859  0.74979818  0.11545904  1
  O  O207  1  0.48554372  0.75887348  0.64250607  1
  O  O208  1  0.96245668  0.22834759  0.09193610  1
  O  O209  1  0.99918569  0.24228923  0.62967878  1
  O  O210  1  0.99121982  0.74540909  0.11276333  1
  O  O211  1  1.01243850  0.74737981  0.64372113  1
  O  O212  1  -0.00104477  0.26471240  0.37694638  1
  O  O213  1  -0.00173212  0.26382561  0.86038905  1
  O  O214  1  0.02446089  0.74633127  0.38375331  1
  O  O215  1  -0.07120813  0.79082025  0.84871651  1
  O  O216  1  0.49929052  0.24931290  0.36831799  1
  O  O217  1  0.50072752  0.25249976  0.86792691  1
  O  O218  1  0.51380311  0.75461192  0.37968229  1
  O  O219  1  0.50080130  0.74678246  0.86026041  1
  O  O220  1  0.25522700  0.13927646  0.48211803  1
  O  O221  1  0.25162405  0.14010503  0.99355418  1
  O  O222  1  0.23712014  0.61644375  0.49898526  1
  O  O223  1  0.25709350  0.62534885  0.99143809  1
  O  O224  1  0.75720416  0.13940795  0.49004728  1
  O  O225  1  0.73318936  0.10812666  1.01055877  1
  O  O226  1  0.73266756  0.62623890  0.49552147  1
  O  O227  1  0.73928243  0.62605878  0.99134001  1
  O  O228  1  0.26874727  0.36440580  -0.01279361  1
  O  O229  1  0.25967114  0.37106248  0.50942438  1
  O  O230  1  0.26066029  0.87700415  0.00752112  1
  O  O231  1  0.27055329  0.88242332  0.49184253  1
  O  O232  1  0.74521704  0.37154444  0.01304157  1
  O  O233  1  0.76176414  0.36138598  0.50065617  1
  O  O234  1  0.74361703  0.85404153  -0.00804512  1
  O  O235  1  0.74797902  0.85131665  0.49902897  1
  O  O236  1  0.14623817  0.53801852  0.22962344  1
  O  O237  1  0.13652804  0.50792950  0.75414540  1
  O  O238  1  0.13905672  0.99473500  0.24329614  1
  O  O239  1  0.13274882  0.99324529  0.74057465  1
  O  O240  1  0.61771911  0.48515086  0.24213998  1
  O  O241  1  0.62888250  0.49796602  0.74387012  1
  O  O242  1  0.62293540  0.99326510  0.24686637  1
  O  O243  1  0.62629648  0.98960700  0.74864424  1
  O  O244  1  0.36030799  0.01303216  0.24358726  1
  O  O245  1  0.36625495  -0.00605953  0.76493871  1
  O  O246  1  0.37696439  0.50889308  0.24991407  1
  O  O247  1  0.37055499  0.50415853  0.75553445  1
  O  O248  1  0.84982012  -0.00383946  0.21085724  1
  O  O249  1  0.88316287  0.02260468  0.74061672  1
  O  O250  1  0.86270943  0.51895501  0.25125700  1
  O  O251  1  0.85164447  0.49405037  0.76084613  1
  O  O252  1  0.11753727  0.36774177  0.38423854  1
  O  O253  1  0.10571158  0.39063875  0.87627341  1
  O  O254  1  0.12003558  0.87987372  0.35728036  1
  O  O255  1  0.13058816  0.88059940  0.85965245  1
  O  O256  1  0.62546022  0.38143916  0.36496416  1
  O  O257  1  0.61365186  0.35576519  0.88610075  1
  O  O258  1  0.61393620  0.86520180  0.37472768  1
  O  O259  1  0.62658660  0.87425255  0.85938171  1
  O  O260  1  0.38624129  0.12814475  0.13480368  1
  O  O261  1  0.38578779  0.13674704  0.61779382  1
  O  O262  1  0.38873671  0.63111949  0.12850794  1
  O  O263  1  0.37288544  0.63699724  0.63370882  1
  O  O264  1  0.86592923  0.13954377  0.12254955  1
  O  O265  1  0.89113222  0.13671456  0.62830116  1
  O  O266  1  0.87273323  0.62708789  0.13467103  1
  O  O267  1  0.91661466  0.59331106  0.63550465  1
  O  O268  1  0.24781417  0.26724454  0.10591143  1
  O  O269  1  0.25719529  0.25530640  0.61698498  1
  O  O270  1  0.27507667  0.74153644  0.10523916  1
  O  O271  1  0.27210736  0.75896330  0.63214729  1
  O  O272  1  0.73381647  0.25940719  0.12799392  1
  O  O273  1  0.76231962  0.24228189  0.61945927  1
  O  O274  1  0.74807396  0.74296034  0.11010280  1
  O  O275  1  0.74196398  0.73797967  0.61437976  1
  O  O276  1  0.24980007  0.24885144  0.38429973  1
  O  O277  1  0.25570182  0.23757751  0.88065863  1
  O  O278  1  0.25802983  0.74137449  0.38077202  1
  O  O279  1  0.25927681  0.75303068  0.89433021  1
  O  O280  1  0.74657424  0.25258628  0.38441538  1
  O  O281  1  0.73717386  0.25107994  0.87358999  1
  O  O282  1  0.73082162  0.73759784  0.39053060  1
  O  O283  1  0.75068327  0.73437657  0.88220658  1
  O  O284  1  -0.00593570  0.09244373  -0.00002493  1
  O  O285  1  -0.00129658  0.13312537  0.51014204  1
  O  O286  1  0.01640566  0.63207796  -0.02034587  1
  O  O287  1  0.02759872  0.61569335  0.50887155  1
  O  O288  1  0.49722074  0.11947955  0.01221034  1
  O  O289  1  0.50201509  0.12873487  0.50929440  1
  O  O290  1  0.50843276  0.61233234  -0.01249655  1
  O  O291  1  0.50923092  0.60938782  0.50129236  1
  O  O292  1  0.48810689  0.37973976  0.50524946  1
  O  O293  1  0.49283766  0.37927382  0.99110464  1
  O  O294  1  0.48923913  0.87368968  0.48888514  1
  O  O295  1  0.49892870  0.89087138  1.00388775  1
  O  O296  1  0.98506001  0.37474060  0.49207027  1
  O  O297  1  0.99993615  0.36567862  0.99029924  1
  O  O298  1  1.01728867  0.87138144  0.48051933  1
  O  O299  1  1.02069492  0.89263296  0.99888811  1
  O  O300  1  0.50729856  0.49426411  0.39484133  1
  O  O301  1  0.49591879  0.48880521  0.87995911  1
  O  O302  1  0.50661571  0.99400777  0.37861751  1
  O  O303  1  0.48405194  1.01065846  0.88807702  1
  O  O304  1  1.00790310  0.48192221  0.37260501  1
  O  O305  1  0.98019776  0.48909737  0.86331021  1
  O  O306  1  0.99330223  0.98166905  0.36426333  1
  O  O307  1  0.99798633  0.99392774  0.87160719  1
  O  O308  1  0.01291654  0.00022576  0.12870069  1
  O  O309  1  0.01663796  0.01531091  0.62375066  1
  O  O310  1  0.00342205  0.46088140  0.12445640  1
  O  O311  1  -0.03275968  0.54010342  0.65965707  1
  O  O312  1  0.49514810  0.01088247  0.11577090  1
  O  O313  1  0.49919483  0.01606500  0.62865946  1
  O  O314  1  0.50819956  0.48995355  0.10934105  1
  O  O315  1  0.51053362  0.49398019  0.62249846  1
  O  O316  1  0.25008764  0.37841848  0.22696022  1
  O  O317  1  0.24548884  0.37911324  0.74225548  1
  O  O318  1  0.25289302  0.88660050  0.25797001  1
  O  O319  1  0.24536617  0.89042532  0.74562019  1
  O  O320  1  0.73134982  0.37305083  0.24787262  1
  O  O321  1  0.74593594  0.37849096  0.75462877  1
  O  O322  1  0.72966989  0.87382484  0.26415406  1
  O  O323  1  0.74360298  0.86752650  0.75133880  1
  O  O324  1  0.25347239  0.14582413  0.25681405  1
  O  O325  1  0.24648273  0.11804543  0.76321113  1
  O  O326  1  0.27516193  0.61609046  0.24500546  1
  O  O327  1  0.26056818  0.61051947  0.74653360  1
  O  O328  1  0.75546086  0.12316152  0.26342779  1
  O  O329  1  0.76976225  0.13483527  0.74760171  1
  O  O330  1  0.73242393  0.62219042  0.26579895  1
  O  O331  1  0.73702993  0.62210753  0.76565399  1
  O  O332  1  0.36995051  0.12924733  0.35941489  1
  O  O333  1  0.35950182  0.10774291  0.88338399  1
  O  O334  1  0.38672875  0.62826250  0.36109586  1
  O  O335  1  0.37928733  0.60967073  0.86643548  1
  O  O336  1  0.85886458  0.12562984  0.37449210  1
  O  O337  1  0.88637979  0.13950641  0.85877533  1
  O  O338  1  0.85502620  0.63964870  0.36030052  1
  O  O339  1  0.85730404  0.60800912  0.87707133  1
  O  O340  1  0.15973070  0.40342554  0.07678465  1
  O  O341  1  0.14125840  0.37379660  0.62122549  1
  O  O342  1  0.12633842  0.88691206  0.14242150  1
  O  O343  1  0.13087146  0.89121293  0.62661275  1
  O  O344  1  0.62874222  0.38163080  0.13062588  1
  O  O345  1  0.62460836  0.38358005  0.62722710  1
  O  O346  1  0.62179036  0.87228413  0.14225810  1
  O  O347  1  0.61597741  0.88958360  0.64182282  1
  O  O348  1  0.08848439  0.27702647  0.18624579  1
  O  O349  1  0.11505440  0.25303510  0.74476189  1
  O  O350  1  0.14500786  0.76115352  0.23980674  1
  O  O351  1  0.14229694  0.76877862  0.74934491  1
  O  O352  1  0.60940630  0.26019119  0.25017416  1
  O  O353  1  0.61632396  0.24035969  0.76623260  1
  O  O354  1  0.62255761  0.75331410  0.26302761  1
  O  O355  1  0.60849056  0.76641961  0.74715439  1
  O  O356  1  0.38917607  0.24914183  0.25077542  1
  O  O357  1  0.38242514  0.25425498  0.73973224  1
  O  O358  1  0.37741558  0.73807407  0.23712548  1
  O  O359  1  0.38260843  0.74470907  0.75136912  1
  O  O360  1  0.88359299  0.25233471  0.24415876  1
  O  O361  1  0.88667927  0.24808049  0.73457275  1
  O  O362  1  0.86483033  0.73250225  0.23229488  1
  O  O363  1  0.87252126  0.75175753  0.71316794  1
  O  O364  1  0.38724288  0.48911951  0.50842877  1
  O  O365  1  0.38327463  0.49275683  0.98979412  1
  O  O366  1  0.37827455  0.99774201  0.49906533  1
  O  O367  1  0.38026357  0.99265142  1.00139665  1
  O  O368  1  0.86327774  0.48663618  0.51061248  1
  O  O369  1  0.86581130  0.49565752  0.98516927  1
  O  O370  1  0.87702180  0.96729090  0.53381673  1
  O  O371  1  0.88321843  0.97553431  0.99497643  1
  O  O372  1  0.13313278  0.00296329  0.01807262  1
  O  O373  1  0.13936597  -0.00004417  0.50944748  1
  O  O374  1  0.10940659  0.53797032  -0.00597046  1
  O  O375  1  0.13506356  0.51693028  0.50191896  1
  O  O376  1  0.60704467  0.01239991  -0.00682843  1
  O  O377  1  0.62277855  -0.01282125  0.51764000  1
  O  O378  1  0.61776421  0.50317205  0.00414360  1
  O  O379  1  0.61626322  0.50203180  0.51502989  1
  O  O380  1  0.36973036  0.37676594  0.10489147  1
  O  O381  1  0.36553821  0.36415802  0.61880710  1
  O  O382  1  0.38077758  0.86941940  0.11537631  1
  O  O383  1  0.37640275  0.87210532  0.60708838  1
  O  O384  1  0.84745866  0.37522606  0.13982839  1
  O  O385  1  0.87955713  0.36057125  0.61591757  1
  O  O386  1  0.87394275  0.84918065  0.13114496  1
  O  O387  1  0.88642984  0.91322040  0.58545256  1
  O  O388  1  0.13275281  0.13122422  0.36438505  1
  O  O389  1  0.13682687  0.12236411  0.87632685  1
  O  O390  1  0.12640089  0.62081300  0.39477400  1
  O  O391  1  0.07654196  0.59137576  0.94502086  1
  O  O392  1  0.64573772  0.12385802  0.37486544  1
  O  O393  1  0.62171397  0.13250194  0.88900789  1
  O  O394  1  0.62410454  0.63480308  0.38654955  1
  O  O395  1  0.63411203  0.62364926  0.88521243  1
