# generated using pymatgen
data_V35Zn35O128
_symmetry_space_group_name_H-M   'P 1'
_cell_length_a   16.91654826
_cell_length_b   16.92347552
_cell_length_c   16.92518376
_cell_angle_alpha   89.90830511
_cell_angle_beta   90.31982468
_cell_angle_gamma   89.98711489
_symmetry_Int_Tables_number   1
_chemical_formula_structural   V35Zn35O128
_chemical_formula_sum   'V70 Zn70 O256'
_cell_volume   4845.37470862
_cell_formula_units_Z   2
loop_
 _symmetry_equiv_pos_site_id
 _symmetry_equiv_pos_as_xyz
  1  'x, y, z'
loop_
 _atom_site_type_symbol
 _atom_site_label
 _atom_site_symmetry_multiplicity
 _atom_site_fract_x
 _atom_site_fract_y
 _atom_site_fract_z
 _atom_site_occupancy
  V  V0  1  0.01217002  0.35780279  0.37275895  1
  V  V1  1  0.37800634  0.00695959  0.88728406  1
  V  V2  1  0.12749153  0.49933101  0.63799819  1
  V  V3  1  0.62665603  0.62599246  0.00165461  1
  V  V4  1  0.27850170  0.00150401  0.74696724  1
  V  V5  1  0.11332315  0.47454487  0.12314458  1
  V  V6  1  0.62223250  0.11176349  0.01850250  1
  V  V7  1  0.76464059  0.25251487  0.00477942  1
  V  V8  1  0.36864388  0.50675079  0.36986361  1
  V  V9  1  0.37061108  0.37181079  0.50872327  1
  V  V10  1  0.36242935  0.50393534  0.87347266  1
  V  V11  1  -0.01241883  0.62684063  0.63502987  1
  V  V12  1  0.87521779  0.35721459  0.49524706  1
  V  V13  1  0.62815423  0.75033516  0.87566113  1
  V  V14  1  0.74031069  -0.01166579  0.23684566  1
  V  V15  1  0.50107357  0.38204721  0.87734794  1
  V  V16  1  0.24415649  0.87368473  0.61699074  1
  V  V17  1  0.22393912  0.49258980  0.25201336  1
  V  V18  1  0.38985884  0.16842875  0.20336455  1
  V  V19  1  0.00329957  0.62619806  0.12919273  1
  V  V20  1  0.00110790  0.36644592  0.85372435  1
  V  V21  1  0.51404132  0.37917312  0.34990905  1
  V  V22  1  0.12734962  0.63153921  0.49488213  1
  V  V23  1  0.63938871  0.02043367  0.61937667  1
  V  V24  1  0.49371777  0.50160887  0.50584645  1
  V  V25  1  0.13419590  -0.00683462  0.13731611  1
  V  V26  1  0.86661884  0.60808089  0.25914471  1
  V  V27  1  0.48451664  0.24347361  0.75421229  1
  V  V28  1  0.86947667  0.48921398  0.87626587  1
  V  V29  1  0.63187809  0.49297117  0.13480114  1
  V  V30  1  0.50317769  0.62677923  0.62499920  1
  V  V31  1  0.76981959  0.37654854  0.12803608  1
  V  V32  1  0.05268664  0.82027476  0.80558596  1
  V  V33  1  0.87656616  0.01250677  0.88155908  1
  V  V34  1  -0.00556270  0.50231164  0.49271252  1
  V  V35  1  0.74208687  0.13444990  0.38118441  1
  V  V36  1  0.49164295  0.12357425  0.62750280  1
  V  V37  1  0.11932911  0.00421504  0.62725547  1
  V  V38  1  0.35395719  0.62318954  0.75174505  1
  V  V39  1  0.87451273  0.75215753  0.13579255  1
  V  V40  1  0.74989153  0.36362564  0.61218637  1
  V  V41  1  0.87173640  0.76445375  0.62920650  1
  V  V42  1  0.36791982  0.75246665  0.61666652  1
  V  V43  1  0.06497948  0.81847614  0.31465412  1
  V  V44  1  0.24645521  0.24591699  0.49061889  1
  V  V45  1  0.87121978  -0.01421681  0.37353435  1
  V  V46  1  0.13393051  0.62513240  -0.00363127  1
  V  V47  1  0.25722642  0.86235929  0.12962083  1
  V  V48  1  -0.00224063  0.00911080  0.01464429  1
  V  V49  1  -0.01039254  0.48810658  -0.00357430  1
  V  V50  1  0.75354036  0.75367370  0.00239280  1
  V  V51  1  0.49931321  0.75168746  0.74869080  1
  V  V52  1  0.24616824  0.37220134  0.64090717  1
  V  V53  1  0.50297394  0.50391920  -0.00684275  1
  V  V54  1  0.62997837  0.24283529  0.88524939  1
  V  V55  1  0.00330861  -0.01045349  0.48631888  1
  V  V56  1  0.63083139  0.72822378  0.37119701  1
  V  V57  1  0.75895265  0.62495587  0.86927571  1
  V  V58  1  0.38180265  0.04374167  0.38863750  1
  V  V59  1  0.75363717  0.00882842  0.76633762  1
  V  V60  1  0.48801404  0.63063750  0.14158446  1
  V  V61  1  0.49262713  0.87411610  0.89081472  1
  V  V62  1  0.63621768  0.87754413  0.74451066  1
  V  V63  1  0.88822984  0.86651075  -0.00620510  1
  V  V64  1  0.14531699  0.11330470  -0.00911901  1
  V  V65  1  0.75228614  0.50435594  0.74633264  1
  V  V66  1  0.74998413  0.77506304  0.50183185  1
  V  V67  1  0.62715515  0.37063130  0.74942656  1
  V  V68  1  0.87804237  0.13504589  0.23504353  1
  V  V69  1  0.62265594  0.50375602  0.61740770  1
  Zn  Zn70  1  0.25823682  0.74210951  0.99633106  1
  Zn  Zn71  1  0.38775335  0.88628996  0.47118483  1
  Zn  Zn72  1  0.24965562  0.63073626  0.38224383  1
  Zn  Zn73  1  0.30467353  0.34113582  0.14901888  1
  Zn  Zn74  1  0.11847378  0.22397140  0.86275021  1
  Zn  Zn75  1  0.10738238  0.13384810  0.48547178  1
  Zn  Zn76  1  0.21949851  0.15792252  0.17464117  1
  Zn  Zn77  1  0.20061733  0.17467054  0.67265683  1
  Zn  Zn78  1  0.21416804  0.70726518  0.22487674  1
  Zn  Zn79  1  0.17324251  0.69313603  0.68550777  1
  Zn  Zn80  1  0.69652328  0.18618830  0.19044337  1
  Zn  Zn81  1  0.71646748  0.18911324  0.69981506  1
  Zn  Zn82  1  0.68936926  0.68306243  0.18921768  1
  Zn  Zn83  1  0.68998304  0.69129908  0.68138031  1
  Zn  Zn84  1  0.32875447  0.31224253  0.31833848  1
  Zn  Zn85  1  0.30911708  0.31779177  0.82477000  1
  Zn  Zn86  1  0.24454275  0.83254650  0.35648928  1
  Zn  Zn87  1  0.30857052  0.81296626  0.80248050  1
  Zn  Zn88  1  0.81910797  0.31224052  0.30803435  1
  Zn  Zn89  1  0.81372757  0.30727635  0.80809546  1
  Zn  Zn90  1  0.79868994  0.80754040  0.31337282  1
  Zn  Zn91  1  0.82524058  0.81087615  0.80983455  1
  Zn  Zn92  1  0.18439184  0.43965805  0.44477052  1
  Zn  Zn93  1  0.17245488  0.44220248  0.92550036  1
  Zn  Zn94  1  0.17446833  0.99170722  0.38934509  1
  Zn  Zn95  1  0.21201083  0.88621442  0.91558285  1
  Zn  Zn96  1  0.67781738  0.30843206  0.43232278  1
  Zn  Zn97  1  0.68904131  0.43349046  0.94242763  1
  Zn  Zn98  1  0.68784444  0.94438006  0.42997632  1
  Zn  Zn99  1  0.68821131  0.93149673  0.94097210  1
  Zn  Zn100  1  0.31726354  0.05156901  0.06422401  1
  Zn  Zn101  1  0.31752515  0.05872350  0.55887429  1
  Zn  Zn102  1  0.31323074  0.53648995  0.07344190  1
  Zn  Zn103  1  0.30899754  0.56160970  0.56720344  1
  Zn  Zn104  1  0.80062958  0.06257200  0.05990806  1
  Zn  Zn105  1  0.82715131  0.07017188  0.55455932  1
  Zn  Zn106  1  0.81353402  0.56398351  0.06400255  1
  Zn  Zn107  1  0.81621886  0.55208281  0.56182807  1
  Zn  Zn108  1  0.43772240  0.45160817  0.17762570  1
  Zn  Zn109  1  0.43362025  0.43734043  0.69309303  1
  Zn  Zn110  1  0.36497569  0.89056626  0.26126551  1
  Zn  Zn111  1  0.47824874  0.91546785  0.63872604  1
  Zn  Zn112  1  0.93837229  0.43183562  0.19519492  1
  Zn  Zn113  1  0.93205623  0.44013497  0.67984831  1
  Zn  Zn114  1  0.93307313  0.93715928  0.19387264  1
  Zn  Zn115  1  0.92952268  0.95643082  0.67993407  1
  Zn  Zn116  1  0.05099961  0.06994440  0.31107131  1
  Zn  Zn117  1  0.08679367  0.00276889  0.83954877  1
  Zn  Zn118  1  0.05303230  0.56358357  0.31531340  1
  Zn  Zn119  1  0.05695503  0.56733188  0.81524501  1
  Zn  Zn120  1  0.56497063  0.08240179  0.28858405  1
  Zn  Zn121  1  0.55924303  0.05860206  0.81798881  1
  Zn  Zn122  1  0.56631861  0.55626744  0.31715051  1
  Zn  Zn123  1  0.56745596  0.56513904  0.80726419  1
  Zn  Zn124  1  0.50961533  0.19604335  0.43486419  1
  Zn  Zn125  1  0.44877037  0.18026876  0.94125742  1
  Zn  Zn126  1  0.43856462  0.69142958  0.43179679  1
  Zn  Zn127  1  0.43448339  0.68400011  0.93395811  1
  Zn  Zn128  1  0.93298790  0.17616525  0.43150939  1
  Zn  Zn129  1  0.94759717  0.19140989  0.94190916  1
  Zn  Zn130  1  0.93368440  0.70226566  0.43499037  1
  Zn  Zn131  1  0.94793185  0.68404475  0.93462351  1
  Zn  Zn132  1  0.15994655  0.29308236  0.05004617  1
  Zn  Zn133  1  0.07080657  0.31593507  0.56063621  1
  Zn  Zn134  1  0.06974612  0.80775985  0.07028134  1
  Zn  Zn135  1  0.05585243  0.81348629  0.55654326  1
  Zn  Zn136  1  0.57813618  0.28812049  0.09489624  1
  Zn  Zn137  1  0.55594435  0.30988262  0.57131752  1
  Zn  Zn138  1  0.42774430  0.80667703  0.07264130  1
  Zn  Zn139  1  0.56328113  0.82694034  0.48202394  1
  O  O140  1  0.13859961  0.10392801  0.10843914  1
  O  O141  1  0.13678080  0.10444679  0.60332595  1
  O  O142  1  0.10522137  0.61102167  0.11802301  1
  O  O143  1  0.11221929  0.61612407  0.61707514  1
  O  O144  1  0.62985209  0.11613402  0.11844013  1
  O  O145  1  0.63905188  0.12162930  0.64091186  1
  O  O146  1  0.62681546  0.61850515  0.11268038  1
  O  O147  1  0.61371419  0.61623132  0.63231802  1
  O  O148  1  0.37494819  0.39328808  0.39553145  1
  O  O149  1  0.38863753  0.39518483  0.86489880  1
  O  O150  1  0.35798566  0.85204731  0.36883524  1
  O  O151  1  0.39396176  0.87108637  0.86526188  1
  O  O152  1  0.88070394  0.36893544  0.39189805  1
  O  O153  1  0.87509309  0.38361789  0.86948602  1
  O  O154  1  0.86564324  0.88672271  0.36828352  1
  O  O155  1  0.87647110  0.87108790  0.89263334  1
  O  O156  1  0.28382350  0.02042105  0.37281076  1
  O  O157  1  0.27159143  -0.01851010  0.85813607  1
  O  O158  1  0.25305658  0.50213457  0.36850619  1
  O  O159  1  0.26462473  0.49411118  0.88111708  1
  O  O160  1  0.75883834  0.00930086  0.36721633  1
  O  O161  1  0.76618899  -0.01169789  0.87849868  1
  O  O162  1  0.75287508  0.52457564  0.40586610  1
  O  O163  1  0.75167955  0.50467841  0.86748123  1
  O  O164  1  0.21741479  0.48864590  0.13391444  1
  O  O165  1  0.23386462  0.49437178  0.62518776  1
  O  O166  1  0.24076114  0.98899873  0.12409146  1
  O  O167  1  0.25109703  0.99002363  0.62893807  1
  O  O168  1  0.74041246  0.48854335  0.11216649  1
  O  O169  1  0.73893020  0.49955669  0.62855205  1
  O  O170  1  0.75145958  0.99441444  0.13635628  1
  O  O171  1  0.73994690  1.00077195  0.65697635  1
  O  O172  1  -0.00717958  0.37360696  0.27393892  1
  O  O173  1  -0.01904652  0.37186994  0.75501571  1
  O  O174  1  0.00333633  0.87307936  0.25564029  1
  O  O175  1  -0.00856138  0.87963538  0.75025898  1
  O  O176  1  0.50407695  0.39709427  0.25136437  1
  O  O177  1  0.50765387  0.36648641  0.75381164  1
  O  O178  1  0.55612200  0.88019841  0.27830876  1
  O  O179  1  0.51313520  0.86010100  0.74841605  1
  O  O180  1  0.47984219  0.13745180  0.24094731  1
  O  O181  1  0.50524636  0.14122104  0.75610085  1
  O  O182  1  0.50376052  0.61687742  0.24019249  1
  O  O183  1  0.50118104  0.63633184  0.74356038  1
  O  O184  1  0.97896071  0.11682096  0.24315930  1
  O  O185  1  1.03465156  0.21125554  0.71150423  1
  O  O186  1  0.99223190  0.61543391  0.23240657  1
  O  O187  1  0.99977745  0.62476008  0.73375595  1
  O  O188  1  0.41506931  0.27278642  0.01117048  1
  O  O189  1  0.36906845  0.27260042  0.50932198  1
  O  O190  1  0.37084250  0.73756827  0.00413754  1
  O  O191  1  0.37412401  0.74107331  0.51756816  1
  O  O192  1  0.86235352  0.24836295  -0.00682169  1
  O  O193  1  0.88338287  0.25951980  0.50705062  1
  O  O194  1  0.87256942  0.75343093  0.00296908  1
  O  O195  1  0.85637859  0.73899346  0.51009545  1
  O  O196  1  0.13992145  0.24685308  0.50269828  1
  O  O197  1  0.10858421  0.21249877  0.99000221  1
  O  O198  1  0.11874606  0.73011170  0.50922359  1
  O  O199  1  0.12659948  0.72795634  1.00778318  1
  O  O200  1  0.59716242  0.25323833  0.48649425  1
  O  O201  1  0.62151716  0.24671961  0.99198934  1
  O  O202  1  0.64813419  0.74539262  0.50340407  1
  O  O203  1  0.63698514  0.74091493  0.98810940  1
  O  O204  1  0.45355839  0.28073702  0.07685375  1
  O  O205  1  0.50013329  0.24094727  0.64759115  1
  O  O206  1  0.49926331  0.72996544  0.12382047  1
  O  O207  1  0.48572424  0.73845569  0.63435659  1
  O  O208  1  1.06260650  0.24804731  0.21492146  1
  O  O209  1  1.01313255  0.24122493  0.64499345  1
  O  O210  1  0.98778089  0.73321782  0.11737936  1
  O  O211  1  0.98325202  0.73468528  0.61243873  1
  O  O212  1  0.00221141  0.25807379  0.38718199  1
  O  O213  1  0.00190012  0.26214810  0.87166052  1
  O  O214  1  0.00945097  0.76814778  0.38409570  1
  O  O215  1  -0.00015749  0.75554624  0.86586697  1
  O  O216  1  0.48121481  0.28516465  0.36529308  1
  O  O217  1  0.51061850  0.26151994  0.86856617  1
  O  O218  1  0.52593271  0.74760798  0.39465309  1
  O  O219  1  0.50918124  0.75389360  0.86690294  1
  O  O220  1  0.26411116  0.14839765  0.51090598  1
  O  O221  1  0.24395068  0.11370819  0.98986182  1
  O  O222  1  0.23190801  0.61740654  0.50183202  1
  O  O223  1  0.23409517  0.61002529  1.01612248  1
  O  O224  1  0.76077935  0.12376213  0.48165447  1
  O  O225  1  0.73702835  0.14612796  1.00505328  1
  O  O226  1  0.75831408  0.57951310  0.45437198  1
  O  O227  1  0.74493284  0.63082983  0.98877591  1
  O  O228  1  0.22347280  0.33888565  -0.04141869  1
  O  O229  1  0.25638249  0.37256939  0.50940079  1
  O  O230  1  0.25117754  0.87048976  0.02270299  1
  O  O231  1  0.27434250  0.87915565  0.52188696  1
  O  O232  1  0.74573129  0.36273467  0.00974663  1
  O  O233  1  0.75847806  0.37342630  0.50374415  1
  O  O234  1  0.75939370  0.85793377  -0.00129436  1
  O  O235  1  0.75300980  0.87338514  0.50378626  1
  O  O236  1  0.11739337  0.49041605  0.24166613  1
  O  O237  1  0.11917887  0.50863965  0.73641428  1
  O  O238  1  0.12114318  1.00763772  0.23415280  1
  O  O239  1  0.12193944  1.00405697  0.72821997  1
  O  O240  1  0.63016015  0.50649300  0.23270843  1
  O  O241  1  0.63048419  0.48973421  0.74212467  1
  O  O242  1  0.64016915  1.00597340  0.25317350  1
  O  O243  1  0.63827797  0.98489777  0.77425680  1
  O  O244  1  0.41750994  -0.00280849  0.28813988  1
  O  O245  1  0.37757076  0.00018611  0.75275683  1
  O  O246  1  0.37973838  0.50152063  0.27204302  1
  O  O247  1  0.37605091  0.51518327  0.75796426  1
  O  O248  1  0.86362621  0.00413209  0.25708341  1
  O  O249  1  0.86441347  -0.01037129  0.77538414  1
  O  O250  1  0.87578931  0.50842438  0.25219833  1
  O  O251  1  0.85762824  0.49755336  0.75584282  1
  O  O252  1  0.11151616  0.37545222  0.38462028  1
  O  O253  1  0.09907877  0.39004141  0.85554626  1
  O  O254  1  0.14055733  0.87978313  0.36553339  1
  O  O255  1  0.11049973  0.89111830  0.86297624  1
  O  O256  1  0.61234051  0.38344312  0.37125233  1
  O  O257  1  0.61841519  0.37378866  0.86623588  1
  O  O258  1  0.62589347  0.85995535  0.38957682  1
  O  O259  1  0.61505474  0.86308604  0.87295273  1
  O  O260  1  0.38027923  0.13680240  0.10574360  1
  O  O261  1  0.39342429  0.11175386  0.63142495  1
  O  O262  1  0.39123762  0.60749184  0.12525897  1
  O  O263  1  0.37817268  0.62891483  0.63870139  1
  O  O264  1  0.86263336  0.12147975  0.13501059  1
  O  O265  1  0.88555916  0.06095337  0.64561833  1
  O  O266  1  0.88299520  0.62904208  0.13087384  1
  O  O267  1  0.88576668  0.61714097  0.62263532  1
  O  O268  1  0.23149516  0.26014285  0.12877230  1
  O  O269  1  0.24481403  0.26894821  0.61984243  1
  O  O270  1  0.24399631  0.75829531  0.12724634  1
  O  O271  1  0.25850996  0.75923736  0.63267252  1
  O  O272  1  0.75096797  0.26417879  0.11299002  1
  O  O273  1  0.73205157  0.26742093  0.61347097  1
  O  O274  1  0.76565834  0.73623379  0.11264105  1
  O  O275  1  0.75959338  0.74558170  0.61270519  1
  O  O276  1  0.26005390  0.25890611  0.39228594  1
  O  O277  1  0.22512011  0.28132811  0.89322743  1
  O  O278  1  0.25979712  0.72524447  0.32784914  1
  O  O279  1  0.24321339  0.77747329  0.88570579  1
  O  O280  1  0.74880163  0.24211723  0.37022464  1
  O  O281  1  0.73439365  0.26329080  0.88945617  1
  O  O282  1  0.74538927  0.74631975  0.39373185  1
  O  O283  1  0.74642602  0.74257752  0.87843237  1
  O  O284  1  -0.01458682  0.10817895  0.01328593  1
  O  O285  1  -0.00557366  0.10380499  0.49682267  1
  O  O286  1  0.00319441  0.61069703  0.00721601  1
  O  O287  1  0.00265738  0.61142644  0.50395874  1
  O  O288  1  0.52198953  0.12315636  0.00282038  1
  O  O289  1  0.50987328  0.12883607  0.53085192  1
  O  O290  1  0.51468638  0.62005498  -0.00620136  1
  O  O291  1  0.48961949  0.61315024  0.51690733  1
  O  O292  1  0.48136267  0.38894827  0.51915496  1
  O  O293  1  0.51129764  0.39529878  0.98352403  1
  O  O294  1  0.48398556  0.88092976  0.53086691  1
  O  O295  1  0.49594539  0.86338656  0.98874300  1
  O  O296  1  0.99148794  0.37902943  0.50162422  1
  O  O297  1  0.99685713  0.38988708  0.97802208  1
  O  O298  1  0.99146729  0.88954040  0.50302443  1
  O  O299  1  0.98927782  0.87316731  1.00600175  1
  O  O300  1  0.49058128  0.49297383  0.38841428  1
  O  O301  1  0.50164667  0.49815427  0.87408259  1
  O  O302  1  0.48068888  0.99699988  0.34526093  1
  O  O303  1  0.49130506  0.98312998  0.87324785  1
  O  O304  1  1.00223747  0.48897349  0.39130214  1
  O  O305  1  0.98254868  0.49760577  0.87470088  1
  O  O306  1  0.98592039  0.99426732  0.37712503  1
  O  O307  1  0.98235339  0.99588552  0.89723115  1
  O  O308  1  0.00658577  -0.01269971  0.11693317  1
  O  O309  1  0.01763807  -0.00722318  0.61045956  1
  O  O310  1  -0.00103736  0.50125687  0.11675848  1
  O  O311  1  0.00606406  0.50669950  0.61930705  1
  O  O312  1  0.51494988  -0.02541330  0.12412493  1
  O  O313  1  0.52894232  0.01909317  0.64857130  1
  O  O314  1  0.51787384  0.51352771  0.11018410  1
  O  O315  1  0.50331774  0.50819147  0.62767822  1
  O  O316  1  0.26271186  0.39531854  0.25318927  1
  O  O317  1  0.25234059  0.37294903  0.73974499  1
  O  O318  1  0.24957093  0.87627678  0.23507891  1
  O  O319  1  0.25650364  0.88927291  0.73077495  1
  O  O320  1  0.75715281  0.36986551  0.22792752  1
  O  O321  1  0.74185096  0.38476283  0.73668426  1
  O  O322  1  0.74714759  0.88771378  0.25164622  1
  O  O323  1  0.73795424  0.87290994  0.76033712  1
  O  O324  1  0.30549314  0.12701806  0.24460892  1
  O  O325  1  0.25289756  0.10087141  0.74235201  1
  O  O326  1  0.24628233  0.59128859  0.24150978  1
  O  O327  1  0.25616120  0.62991086  0.74423061  1
  O  O328  1  0.75708009  0.11689332  0.25769925  1
  O  O329  1  0.74284524  0.10501596  0.77747795  1
  O  O330  1  0.76722312  0.62341057  0.24829168  1
  O  O331  1  0.73634159  0.61425861  0.75882804  1
  O  O332  1  0.40966375  0.14016316  0.39514978  1
  O  O333  1  0.38397600  0.10771191  0.88272717  1
  O  O334  1  0.37235945  0.60903940  0.38950593  1
  O  O335  1  0.37431127  0.61790832  0.85870962  1
  O  O336  1  0.86326564  0.11789714  0.36097471  1
  O  O337  1  0.87593862  0.11109463  0.88653441  1
  O  O338  1  0.89229042  0.63176383  0.35488307  1
  O  O339  1  0.86194529  0.61838152  0.87555052  1
  O  O340  1  0.10339725  0.37700790  0.11307886  1
  O  O341  1  0.13267067  0.38906703  0.62578404  1
  O  O342  1  0.13183915  0.88585332  0.12411090  1
  O  O343  1  0.13943833  0.88275525  0.60988127  1
  O  O344  1  0.62180968  0.39388478  0.11724499  1
  O  O345  1  0.63036969  0.38366499  0.63096297  1
  O  O346  1  0.57323832  0.93188615  0.12299379  1
  O  O347  1  0.62444442  0.89571707  0.64656189  1
  O  O348  1  0.11796798  0.22710865  0.25690634  1
  O  O349  1  0.11609379  0.23100996  0.73988687  1
  O  O350  1  0.10907112  0.74991960  0.25409680  1
  O  O351  1  0.11307634  0.76544511  0.74486067  1
  O  O352  1  0.60191953  0.24656155  0.19615710  1
  O  O353  1  0.62841077  0.26222331  0.76367448  1
  O  O354  1  0.63863573  0.74206297  0.27078903  1
  O  O355  1  0.62332483  0.75797485  0.75576436  1
  O  O356  1  0.37587280  0.27344789  0.22119683  1
  O  O357  1  0.38630747  0.25259254  0.76746630  1
  O  O358  1  0.49983385  0.84018479  0.25679213  1
  O  O359  1  0.38118189  0.73510898  0.74766886  1
  O  O360  1  0.87349033  0.23600636  0.24557311  1
  O  O361  1  0.82010303  0.22761805  0.73403713  1
  O  O362  1  0.86914644  0.74644103  0.23605833  1
  O  O363  1  0.86443892  0.74389276  0.72923610  1
  O  O364  1  0.37825727  0.49740946  0.49974768  1
  O  O365  1  0.39128957  0.51805250  0.97630223  1
  O  O366  1  0.39006711  1.00613317  0.48692321  1
  O  O367  1  0.37161255  0.98861804  0.98479966  1
  O  O368  1  0.89119228  0.48680865  0.50576907  1
  O  O369  1  0.87640812  0.50493607  0.98575614  1
  O  O370  1  0.88057088  0.99935568  0.47949865  1
  O  O371  1  0.87659572  0.98313179  1.00138733  1
  O  O372  1  0.10550509  0.00468468  0.00461477  1
  O  O373  1  0.11082421  -0.00643945  0.49510845  1
  O  O374  1  0.11333477  0.49945738  0.01184567  1
  O  O375  1  0.11114745  0.50496649  0.51277010  1
  O  O376  1  0.63853715  0.01458612  -0.00551135  1
  O  O377  1  0.64486544  0.00622176  0.52170577  1
  O  O378  1  0.62237369  0.51294279  -0.00362335  1
  O  O379  1  0.60747433  0.49348058  0.51597623  1
  O  O380  1  0.35746535  0.42904155  0.10395778  1
  O  O381  1  0.35632565  0.39165067  0.61991562  1
  O  O382  1  0.36733192  0.87311127  0.14287464  1
  O  O383  1  0.37509125  0.85286984  0.63846463  1
  O  O384  1  0.86846556  0.38413297  0.11756234  1
  O  O385  1  0.85582825  0.37829483  0.61580145  1
  O  O386  1  0.88002964  0.85526952  0.11700894  1
  O  O387  1  0.87827978  0.86245620  0.62526667  1
  O  O388  1  0.13319584  0.10006874  0.37906226  1
  O  O389  1  0.11810274  0.10380821  0.88563626  1
  O  O390  1  0.12092185  0.61659396  0.39120639  1
  O  O391  1  0.12335836  0.60799159  0.89663284  1
  O  O392  1  0.63929061  0.12338334  0.37060972  1
  O  O393  1  0.62137471  0.14278743  0.87703319  1
  O  O394  1  0.62660348  0.62745661  0.38132029  1
  O  O395  1  0.63354283  0.63435555  0.87855686  1
