# generated using pymatgen
data_V35Zn35O128
_symmetry_space_group_name_H-M   'P 1'
_cell_length_a   16.94269932
_cell_length_b   16.90649083
_cell_length_c   16.90213594
_cell_angle_alpha   90.45628748
_cell_angle_beta   90.12172939
_cell_angle_gamma   89.75949035
_symmetry_Int_Tables_number   1
_chemical_formula_structural   V35Zn35O128
_chemical_formula_sum   'V70 Zn70 O256'
_cell_volume   4841.26794213
_cell_formula_units_Z   2
loop_
 _symmetry_equiv_pos_site_id
 _symmetry_equiv_pos_as_xyz
  1  'x, y, z'
loop_
 _atom_site_type_symbol
 _atom_site_label
 _atom_site_symmetry_multiplicity
 _atom_site_fract_x
 _atom_site_fract_y
 _atom_site_fract_z
 _atom_site_occupancy
  V  V0  1  0.36838239  0.50246576  0.36717566  1
  V  V1  1  0.86764631  0.53239233  0.34888942  1
  V  V2  1  0.73986383  0.37292458  0.63775931  1
  V  V3  1  0.87799290  0.62857793  0.74731510  1
  V  V4  1  0.50676908  0.76428943  0.76520897  1
  V  V5  1  0.49530819  0.86902540  0.36769426  1
  V  V6  1  0.12509422  0.11497927  0.50344803  1
  V  V7  1  0.63179337  0.64783411  0.49538328  1
  V  V8  1  0.36075643  0.12873328  0.24963741  1
  V  V9  1  0.50591224  0.50043146  0.49716564  1
  V  V10  1  0.11183887  0.77792303  0.37455171  1
  V  V11  1  0.23477312  0.87181847  0.62001834  1
  V  V12  1  0.75183712  0.51084858  0.75184448  1
  V  V13  1  0.50638218  0.24334936  0.24504668  1
  V  V14  1  0.24361476  0.24520081  0.48655422  1
  V  V15  1  0.24639140  0.62050258  0.86615964  1
  V  V16  1  0.25295266  0.11272045  0.86699261  1
  V  V17  1  0.69215394  0.68553472  0.93027445  1
  V  V18  1  0.89623592  0.85783893  -0.00934877  1
  V  V19  1  0.36804768  0.75076878  0.13211876  1
  V  V20  1  0.51196204  0.37283367  0.37411328  1
  V  V21  1  0.12714228  0.76557641  0.86523981  1
  V  V22  1  0.59916220  0.01911310  0.13447217  1
  V  V23  1  -0.01965345  0.01221178  0.51664682  1
  V  V24  1  0.62117879  0.10725647  0.48043428  1
  V  V25  1  0.13071201  0.01341029  0.10079366  1
  V  V26  1  0.23980767  0.38787899  0.12826809  1
  V  V27  1  0.49749007  0.50923780  0.00963906  1
  V  V28  1  0.73768774  -0.01070116  0.75775887  1
  V  V29  1  0.63829173  0.51135024  0.12488584  1
  V  V30  1  0.87343984  0.75835856  0.60985894  1
  V  V31  1  0.24077683  0.24311816  0.00017784  1
  V  V32  1  0.37654944  0.36707281  0.50122643  1
  V  V33  1  0.01090579  0.61248599  0.12600319  1
  V  V34  1  0.50320711  0.38054637  0.86838071  1
  V  V35  1  0.87737245  0.50426852  0.88306423  1
  V  V36  1  0.38339307  0.12296830  0.74025447  1
  V  V37  1  0.88485363  0.74651518  0.13963266  1
  V  V38  1  0.24232063  -0.00367916  0.73486210  1
  V  V39  1  0.00816317  0.61414058  0.60827359  1
  V  V40  1  0.74459596  0.12329300  0.88855339  1
  V  V41  1  0.18809092  0.43729487  0.67452407  1
  V  V42  1  0.87465073  0.12400520  0.75098973  1
  V  V43  1  0.62571530  0.50147533  0.63169716  1
  V  V44  1  0.87701002  0.37749371  0.50043191  1
  V  V45  1  0.37821872  0.24617353  0.12282427  1
  V  V46  1  0.37125481  0.37875534  -0.00708356  1
  V  V47  1  0.36816547  0.00580566  0.38037469  1
  V  V48  1  0.23676899  -0.01817589  0.24838343  1
  V  V49  1  0.88066763  0.28061404  0.11874586  1
  V  V50  1  0.37041205  0.61884031  0.75256314  1
  V  V51  1  0.00058804  0.38484817  0.88322209  1
  V  V52  1  0.61901040  0.25070920  0.87797889  1
  V  V53  1  0.12219098  0.24605712  0.87100567  1
  V  V54  1  -0.00246044  0.25566698  0.74870332  1
  V  V55  1  -0.02929454  0.89624752  0.38338148  1
  V  V56  1  0.49862625  0.73457970  0.25150304  1
  V  V57  1  0.24088715  0.75419761  0.00903122  1
  V  V58  1  0.50040544  0.63273401  0.62677473  1
  V  V59  1  0.37069610  0.87239844  0.49818320  1
  V  V60  1  0.22830349  0.63207051  0.38630404  1
  V  V61  1  0.36978926  0.75238701  0.62147308  1
  V  V62  1  0.00011560  0.24125133  0.25762073  1
  V  V63  1  0.89495293  -0.00091759  0.87991420  1
  V  V64  1  0.37581241  0.88143993  -0.01219799  1
  V  V65  1  0.74393755  0.87551388  0.61778685  1
  V  V66  1  0.87175290  0.24840750  0.63051343  1
  V  V67  1  0.63336490  0.37985253  0.24044761  1
  V  V68  1  0.00418622  0.76289957  0.74921414  1
  V  V69  1  0.11712952  0.38403695  0.27373221  1
  Zn  Zn70  1  0.62481243  0.87024375  0.24632254  1
  Zn  Zn71  1  0.38109105  0.24928697  0.62944699  1
  Zn  Zn72  1  0.11946533  0.57779717  -0.00148187  1
  Zn  Zn73  1  0.73708616  0.24624328  0.50639990  1
  Zn  Zn74  1  0.75318451  0.27741642  0.01076634  1
  Zn  Zn75  1  0.35818953  0.61021006  0.23580391  1
  Zn  Zn76  1  0.17535566  0.19319328  0.19146741  1
  Zn  Zn77  1  0.17284944  0.23807722  0.65445072  1
  Zn  Zn78  1  0.16005216  0.65307196  0.21257651  1
  Zn  Zn79  1  0.18428524  0.68554278  0.67942517  1
  Zn  Zn80  1  0.68198413  0.20056721  0.15812325  1
  Zn  Zn81  1  0.68435002  0.18270207  0.69974822  1
  Zn  Zn82  1  0.67080155  0.71275650  0.13560569  1
  Zn  Zn83  1  0.68796128  0.69605195  0.68899637  1
  Zn  Zn84  1  0.31179591  0.32030607  0.31013342  1
  Zn  Zn85  1  0.31030946  0.31082920  0.80601035  1
  Zn  Zn86  1  0.29773671  0.80552368  0.31736140  1
  Zn  Zn87  1  0.31396563  0.81178287  0.80577773  1
  Zn  Zn88  1  0.83119544  0.32985574  0.29779216  1
  Zn  Zn89  1  0.79435050  0.33171629  0.84115106  1
  Zn  Zn90  1  0.85334318  0.86079836  0.28030040  1
  Zn  Zn91  1  0.81629483  0.81286806  0.82097399  1
  Zn  Zn92  1  0.18915766  0.45050239  0.45429147  1
  Zn  Zn93  1  0.18451299  0.44225197  0.84907517  1
  Zn  Zn94  1  0.18694152  0.94496333  0.43912441  1
  Zn  Zn95  1  0.19310731  0.93289763  0.93207649  1
  Zn  Zn96  1  0.69911890  0.44214377  0.44149964  1
  Zn  Zn97  1  0.68325688  0.44895092  0.94002845  1
  Zn  Zn98  1  0.68263409  0.92585553  0.43477327  1
  Zn  Zn99  1  0.71993213  0.85243840  1.06734416  1
  Zn  Zn100  1  0.30826223  0.06104354  0.06742574  1
  Zn  Zn101  1  0.30773198  0.06995448  0.56281661  1
  Zn  Zn102  1  0.30517625  0.56673452  0.05208337  1
  Zn  Zn103  1  0.31340273  0.55737119  0.56075614  1
  Zn  Zn104  1  0.77898319  0.01128981  0.03931429  1
  Zn  Zn105  1  0.79094580  0.06219072  0.56871741  1
  Zn  Zn106  1  0.81731145  0.57306084  0.06622711  1
  Zn  Zn107  1  0.81468010  0.56677538  0.55621039  1
  Zn  Zn108  1  0.43830701  0.43110999  0.18460676  1
  Zn  Zn109  1  0.43848802  0.43794712  0.68415011  1
  Zn  Zn110  1  0.42474450  0.93354375  0.18386835  1
  Zn  Zn111  1  0.43517396  0.94287725  0.69082433  1
  Zn  Zn112  1  0.94267341  0.44447862  0.19369781  1
  Zn  Zn113  1  0.93686953  0.43777574  0.68534399  1
  Zn  Zn114  1  0.98161864  0.91990556  0.16495149  1
  Zn  Zn115  1  0.93571159  0.94060698  0.68507566  1
  Zn  Zn116  1  0.05922490  0.07126628  0.32687410  1
  Zn  Zn117  1  0.06748507  0.06986360  0.79920329  1
  Zn  Zn118  1  0.04814260  0.55049606  0.32019994  1
  Zn  Zn119  1  0.06215055  0.56740812  0.79731650  1
  Zn  Zn120  1  0.55607106  0.05410410  0.31064824  1
  Zn  Zn121  1  0.56518971  0.06465409  0.81841514  1
  Zn  Zn122  1  0.56445088  0.56541955  0.31052755  1
  Zn  Zn123  1  0.55593816  0.56724503  0.81735745  1
  Zn  Zn124  1  0.44910987  0.18505223  0.43045760  1
  Zn  Zn125  1  0.42962643  0.19275415  0.92592897  1
  Zn  Zn126  1  0.43512454  0.68517156  0.43935900  1
  Zn  Zn127  1  0.43245161  0.69536608  0.94041859  1
  Zn  Zn128  1  0.97769025  0.22457375  0.46743896  1
  Zn  Zn129  1  0.93199167  0.19029014  0.93872953  1
  Zn  Zn130  1  0.94222680  0.69651118  0.42664864  1
  Zn  Zn131  1  0.95362046  0.67890668  0.93635221  1
  Zn  Zn132  1  0.05897257  0.31483864  0.06475139  1
  Zn  Zn133  1  0.07982495  0.36529446  0.54448093  1
  Zn  Zn134  1  0.06335862  0.81286192  0.06336385  1
  Zn  Zn135  1  0.05169279  0.81245043  0.54999040  1
  Zn  Zn136  1  0.56353274  0.31666749  0.05637001  1
  Zn  Zn137  1  0.55549613  0.22259144  0.57839410  1
  Zn  Zn138  1  0.54150384  0.82265837  0.07306691  1
  Zn  Zn139  1  0.55289333  0.83757565  0.57308325  1
  O  O140  1  0.13104355  0.11345698  0.12439060  1
  O  O141  1  0.12657107  0.14950932  0.60200512  1
  O  O142  1  0.12152262  0.61789383  0.11180963  1
  O  O143  1  0.10769229  0.63218514  0.61843575  1
  O  O144  1  0.61165968  0.12053212  0.13199840  1
  O  O145  1  0.62441849  0.13897358  0.61670982  1
  O  O146  1  0.62451710  0.61010710  0.13834672  1
  O  O147  1  0.61482425  0.62153822  0.61789490  1
  O  O148  1  0.39001393  0.38561265  0.37652063  1
  O  O149  1  0.38308411  0.36263127  0.88836637  1
  O  O150  1  0.36765277  0.88014144  0.38133281  1
  O  O151  1  0.36283827  0.87322205  0.88709274  1
  O  O152  1  0.85615767  0.36103638  0.40262659  1
  O  O153  1  0.89195385  0.39285419  0.86484181  1
  O  O154  1  0.87380026  0.88294496  0.39844436  1
  O  O155  1  0.88327886  0.89067727  0.87847052  1
  O  O156  1  0.26245160  -0.00284288  0.36229399  1
  O  O157  1  0.24663958  0.00969690  0.86411690  1
  O  O158  1  0.26781381  0.49594341  0.38142321  1
  O  O159  1  0.26534466  0.52336706  0.86916793  1
  O  O160  1  0.74134967  -0.04357765  0.33783920  1
  O  O161  1  0.76648651  0.01169782  0.86454828  1
  O  O162  1  0.77805540  0.50759520  0.39711052  1
  O  O163  1  0.76630949  0.50285949  0.86108830  1
  O  O164  1  0.25850507  0.48556632  0.11954465  1
  O  O165  1  0.26523085  0.49003425  0.63538787  1
  O  O166  1  0.23753977  1.00015504  0.13885597  1
  O  O167  1  0.25005970  0.98889129  0.62763261  1
  O  O168  1  0.73650678  0.50324656  0.11229295  1
  O  O169  1  0.74419888  0.49405547  0.63173990  1
  O  O170  1  0.83568183  1.00992470  0.14719563  1
  O  O171  1  0.75340346  0.98629836  0.64560960  1
  O  O172  1  0.01145283  0.37221954  0.25301612  1
  O  O173  1  -0.00763656  0.35905760  0.75374124  1
  O  O174  1  -0.04008239  0.91042223  0.27432150  1
  O  O175  1  -0.00315896  0.86126113  0.74520501  1
  O  O176  1  0.50905124  0.36966013  0.25723904  1
  O  O177  1  0.48776870  0.38333542  0.77048383  1
  O  O178  1  0.48747002  0.85925901  0.25587569  1
  O  O179  1  0.48985395  0.86340246  0.75678849  1
  O  O180  1  0.49023418  0.14131269  0.25524415  1
  O  O181  1  0.48128758  0.11234061  0.76386456  1
  O  O182  1  0.48261027  0.63243108  0.25721967  1
  O  O183  1  0.48920698  0.63182141  0.74189737  1
  O  O184  1  1.00972312  0.14087343  0.24730586  1
  O  O185  1  0.98037216  0.13515198  0.75354076  1
  O  O186  1  1.02204727  0.61864317  0.22966607  1
  O  O187  1  0.99273413  0.63496667  0.73337987  1
  O  O188  1  0.37207003  0.25457555  0.00660390  1
  O  O189  1  0.38781968  0.26230957  0.49294343  1
  O  O190  1  0.35897755  0.75402129  0.00787902  1
  O  O191  1  0.37542063  0.75669367  0.51108238  1
  O  O192  1  0.87488391  0.24868575  0.01601251  1
  O  O193  1  0.85989411  0.24616904  0.52460949  1
  O  O194  1  0.88236404  0.75868474  -0.02150818  1
  O  O195  1  0.87556281  0.75175548  0.51195598  1
  O  O196  1  0.14566555  0.26919695  0.49421722  1
  O  O197  1  0.13680437  0.25278929  0.99204294  1
  O  O198  1  0.10873667  0.74778663  0.47420779  1
  O  O199  1  0.13330980  0.75571088  0.98189236  1
  O  O200  1  0.62551224  0.23993278  0.49173469  1
  O  O201  1  0.63697841  0.25832609  0.99092847  1
  O  O202  1  0.61052666  0.74539564  0.50884595  1
  O  O203  1  0.61398658  0.72448603  1.01568750  1
  O  O204  1  0.48987007  0.25986108  0.13532115  1
  O  O205  1  0.48948084  0.27592334  0.64345050  1
  O  O206  1  0.47703901  0.74614060  0.13978164  1
  O  O207  1  0.48979414  0.74339105  0.62885015  1
  O  O208  1  0.98691913  0.25771884  0.12964012  1
  O  O209  1  0.97716720  0.24830057  0.64079129  1
  O  O210  1  0.99548652  0.73821915  0.11849273  1
  O  O211  1  0.98924353  0.74858941  0.63140457  1
  O  O212  1  -0.01791208  0.24915055  0.35664867  1
  O  O213  1  0.00011518  0.25470831  0.86759736  1
  O  O214  1  -0.00145158  0.78649910  0.37743226  1
  O  O215  1  0.01662923  0.74374268  0.85886641  1
  O  O216  1  0.49837364  0.26510392  0.35770550  1
  O  O217  1  0.51172808  0.25846850  0.88435182  1
  O  O218  1  0.47596042  0.75845021  0.36009625  1
  O  O219  1  0.49723772  0.74479101  0.86356658  1
  O  O220  1  0.24099102  0.13408938  0.49447436  1
  O  O221  1  0.25857258  0.13900759  0.98773399  1
  O  O222  1  0.25862096  0.61651454  0.48338949  1
  O  O223  1  0.24995189  0.63926011  0.97856837  1
  O  O224  1  0.72957723  0.12847676  0.50324462  1
  O  O225  1  0.75405060  0.11317282  0.98797630  1
  O  O226  1  0.73078469  0.63104686  0.51272677  1
  O  O227  1  0.75013868  0.63145859  0.99240685  1
  O  O228  1  0.26542960  0.36108578  0.00480284  1
  O  O229  1  0.27516820  0.36917768  0.48812847  1
  O  O230  1  0.25323587  0.85786059  -0.00457686  1
  O  O231  1  0.25767557  0.88176271  0.51143068  1
  O  O232  1  0.76098993  0.37058454  -0.05229068  1
  O  O233  1  0.75520871  0.36871690  0.52134049  1
  O  O234  1  0.79585533  0.90000440  0.00507217  1
  O  O235  1  0.74745395  0.88271427  0.51778198  1
  O  O236  1  0.12018746  0.48213759  0.25159358  1
  O  O237  1  0.13083855  0.49435142  0.73985699  1
  O  O238  1  0.14099209  1.01220458  0.26180392  1
  O  O239  1  0.14281645  1.00549236  0.74458345  1
  O  O240  1  0.62017052  0.48990203  0.23824562  1
  O  O241  1  0.63378127  0.51517499  0.73902234  1
  O  O242  1  0.61540246  0.99012986  0.23435334  1
  O  O243  1  0.63823616  0.99570299  0.76726520  1
  O  O244  1  0.35631068  0.00911244  0.24850474  1
  O  O245  1  0.35961810  0.01105385  0.74380996  1
  O  O246  1  0.38045406  0.49515213  0.26246179  1
  O  O247  1  0.38287672  0.52040896  0.74658963  1
  O  O248  1  0.82840356  0.05888444  0.27065891  1
  O  O249  1  0.87413059  0.01406856  0.75455742  1
  O  O250  1  0.85889940  0.49736947  0.25201208  1
  O  O251  1  0.86861278  0.51206432  0.74742180  1
  O  O252  1  0.12976200  0.38548537  0.37333851  1
  O  O253  1  0.10769420  0.35502822  0.86253817  1
  O  O254  1  0.12280095  0.87946512  0.37174717  1
  O  O255  1  0.12890964  0.86459036  0.86517201  1
  O  O256  1  0.61570940  0.38730858  0.36575285  1
  O  O257  1  0.60932285  0.36860083  0.87865030  1
  O  O258  1  0.59840995  0.87351221  0.36829865  1
  O  O259  1  0.65859570  0.78552653  0.97403225  1
  O  O260  1  0.36990748  0.13770869  0.13226267  1
  O  O261  1  0.37982921  0.12223573  0.63476109  1
  O  O262  1  0.35633472  0.64151196  0.12297388  1
  O  O263  1  0.38070433  0.63232733  0.62973127  1
  O  O264  1  0.97583072  0.09781993  0.07292697  1
  O  O265  1  0.85382320  0.13883007  0.64358441  1
  O  O266  1  0.89191382  0.63822200  0.12093538  1
  O  O267  1  0.88021806  0.63924283  0.62980018  1
  O  O268  1  0.25353822  0.25373574  0.10970434  1
  O  O269  1  0.27143400  0.25093858  0.59576348  1
  O  O270  1  0.24341447  0.74771004  0.10917415  1
  O  O271  1  0.25761201  0.76316222  0.63218077  1
  O  O272  1  0.77178065  0.25047827  0.12503031  1
  O  O273  1  0.75237468  0.26548822  0.64380614  1
  O  O274  1  0.77901660  0.75253865  0.11588218  1
  O  O275  1  0.76698809  0.76101629  0.63516230  1
  O  O276  1  0.26863312  0.25065138  0.38738071  1
  O  O277  1  0.24095688  0.24865282  0.88345579  1
  O  O278  1  0.23143763  0.74054608  0.38474339  1
  O  O279  1  0.23671248  0.74651921  0.86798782  1
  O  O280  1  0.77936696  0.21064589  0.36492768  1
  O  O281  1  0.74914259  0.23025904  0.87908163  1
  O  O282  1  0.73958281  0.74136382  0.35908638  1
  O  O283  1  0.75167098  0.73189932  0.86173243  1
  O  O284  1  0.01123459  0.12659582  0.01048574  1
  O  O285  1  0.00729230  0.12028957  0.50586784  1
  O  O286  1  0.01443644  0.62060494  0.00699322  1
  O  O287  1  -0.01381006  0.62824210  0.51044427  1
  O  O288  1  0.49276896  0.09217480  -0.02539969  1
  O  O289  1  0.51677767  0.13223173  0.50276073  1
  O  O290  1  0.48210395  0.60629109  -0.00497154  1
  O  O291  1  0.50270435  0.61812152  0.51062002  1
  O  O292  1  0.49882651  0.38264010  0.48151000  1
  O  O293  1  0.48600383  0.38088527  0.99628488  1
  O  O294  1  0.48120724  0.86678566  0.47740118  1
  O  O295  1  0.47672048  0.86472352  0.99613096  1
  O  O296  1  0.97772735  0.33982387  0.50620040  1
  O  O297  1  1.00314504  0.37545639  0.98144267  1
  O  O298  1  0.99979781  0.89999260  0.49463306  1
  O  O299  1  0.99558366  0.87644528  0.98993544  1
  O  O300  1  0.49705925  0.49260991  0.37999253  1
  O  O301  1  0.50654034  0.48706671  0.89026679  1
  O  O302  1  0.47497327  0.98043103  0.35722695  1
  O  O303  1  0.50936378  1.03314907  0.92991121  1
  O  O304  1  0.96237314  0.50081272  0.37597302  1
  O  O305  1  0.99627693  0.49124199  0.86362065  1
  O  O306  1  0.99655443  1.00208201  0.39491310  1
  O  O307  1  0.99272193  1.01134229  0.86207800  1
  O  O308  1  0.00891998  0.02664548  0.09819765  1
  O  O309  1  0.00025918  0.00126391  0.61618617  1
  O  O310  1  -0.00877189  0.51299026  0.11757108  1
  O  O311  1  -0.00438356  0.51470665  0.62743350  1
  O  O312  1  0.50359795  -0.01332254  0.11843880  1
  O  O313  1  0.51196741  -0.05864651  0.61010512  1
  O  O314  1  0.49997242  0.49709523  0.11364595  1
  O  O315  1  0.50761960  0.50948319  0.61951569  1
  O  O316  1  0.23542693  0.36661177  0.23468049  1
  O  O317  1  0.24289870  0.38740905  0.75754199  1
  O  O318  1  0.24193285  0.88299740  0.25051721  1
  O  O319  1  0.25458322  0.88684011  0.73411274  1
  O  O320  1  0.72933980  0.36471823  0.26050642  1
  O  O321  1  0.75691078  0.39292768  0.74380707  1
  O  O322  1  0.74319665  0.89780867  0.28080280  1
  O  O323  1  0.75919163  0.88819817  0.75535681  1
  O  O324  1  0.26138510  0.13898658  0.25212414  1
  O  O325  1  0.25626190  0.11355346  0.75798652  1
  O  O326  1  0.25031386  0.62070922  0.27842065  1
  O  O327  1  0.26212576  0.63360137  0.75015907  1
  O  O328  1  0.80329474  0.06459295  0.20020079  1
  O  O329  1  0.75594038  0.11381779  0.76079080  1
  O  O330  1  0.74032520  0.68446394  0.31397269  1
  O  O331  1  0.76374162  0.61932689  0.73723135  1
  O  O332  1  0.38295234  0.10997849  0.36670708  1
  O  O333  1  0.35738206  0.12864038  0.86646711  1
  O  O334  1  0.37666784  0.60668380  0.37754561  1
  O  O335  1  0.36442009  0.64111935  0.85690941  1
  O  O336  1  0.83000293  0.15924270  0.37876217  1
  O  O337  1  0.86707615  0.12300873  0.86598491  1
  O  O338  1  0.87838067  0.63492550  0.35672657  1
  O  O339  1  0.89271711  0.61155773  0.85852139  1
  O  O340  1  0.14098862  0.37856891  0.11176080  1
  O  O341  1  0.13545594  0.34794890  0.64762382  1
  O  O342  1  0.09106896  0.91318068  0.12605256  1
  O  O343  1  0.13725568  0.86421074  0.61541557  1
  O  O344  1  0.62409817  0.38261990  0.13551837  1
  O  O345  1  0.63820205  0.38759947  0.63039259  1
  O  O346  1  0.63425480  0.82774771  0.13790346  1
  O  O347  1  0.64800808  0.85987842  0.63616477  1
  O  O348  1  0.10903321  0.26638872  0.24553209  1
  O  O349  1  0.10190974  0.23465859  0.75473610  1
  O  O350  1  0.11860961  0.73780755  0.27985906  1
  O  O351  1  0.11437708  0.74933661  0.75237414  1
  O  O352  1  0.61092326  0.25989493  0.23710467  1
  O  O353  1  0.63381971  0.25173914  0.77806967  1
  O  O354  1  0.59780088  0.73919969  0.25319758  1
  O  O355  1  0.60481013  0.74641466  0.74549666  1
  O  O356  1  0.38342927  0.24861881  0.24183959  1
  O  O357  1  0.36427953  0.22936801  0.74885119  1
  O  O358  1  0.36224027  0.74879773  0.23820054  1
  O  O359  1  0.38390422  0.74530269  0.73692275  1
  O  O360  1  0.88769543  0.25845258  0.23143674  1
  O  O361  1  0.87652513  0.24220021  0.75143035  1
  O  O362  1  0.88043746  0.75751746  0.23895542  1
  O  O363  1  0.89029191  0.74305893  0.75352693  1
  O  O364  1  0.39105384  0.49093126  0.49121452  1
  O  O365  1  0.37979989  0.48433479  1.00321091  1
  O  O366  1  0.36673495  0.99626338  0.48454567  1
  O  O367  1  0.35881888  0.98007311  1.00867637  1
  O  O368  1  0.87796089  0.47590629  0.51987848  1
  O  O369  1  0.87416357  0.51127317  0.98046865  1
  O  O370  1  0.88101665  1.01804321  0.51283181  1
  O  O371  1  0.88717696  1.01527272  0.97816900  1
  O  O372  1  0.14808882  0.00882082  0.00293353  1
  O  O373  1  0.12601879  0.01266110  0.50752903  1
  O  O374  1  0.14799915  0.48164364  -0.04812153  1
  O  O375  1  0.13994401  0.46118460  0.55420918  1
  O  O376  1  0.66941478  -0.02487608  0.07324706  1
  O  O377  1  0.62603311  0.00645096  0.49220708  1
  O  O378  1  0.60975425  0.49647721  0.01465096  1
  O  O379  1  0.61707550  0.50013383  0.51166955  1
  O  O380  1  0.36502729  0.36319573  0.11835296  1
  O  O381  1  0.38598471  0.37947161  0.60304920  1
  O  O382  1  0.36572739  0.85655069  0.11613483  1
  O  O383  1  0.36654119  0.86731006  0.61456022  1
  O  O384  1  0.87635568  0.37946573  0.11853689  1
  O  O385  1  0.86417539  0.36307850  0.62736317  1
  O  O386  1  0.89986397  0.85550673  0.10841563  1
  O  O387  1  0.86950441  0.86283974  0.63032170  1
  O  O388  1  0.11638121  0.13845350  0.40207392  1
  O  O389  1  0.13940094  0.13602965  0.86871177  1
  O  O390  1  0.13225326  0.60173410  0.38511898  1
  O  O391  1  0.13955035  0.63048679  0.86093921  1
  O  O392  1  0.62103537  0.11615437  0.37849934  1
  O  O393  1  0.63518458  0.13420018  0.88017007  1
  O  O394  1  0.61420135  0.62267567  0.39729996  1
  O  O395  1  0.63068275  0.62202845  0.87962130  1
