# generated using pymatgen
data_V35Zn35O128
_symmetry_space_group_name_H-M   'P 1'
_cell_length_a   16.94640719
_cell_length_b   16.85798444
_cell_length_c   16.90354426
_cell_angle_alpha   90.49145112
_cell_angle_beta   89.41796653
_cell_angle_gamma   90.43423612
_symmetry_Int_Tables_number   1
_chemical_formula_structural   V35Zn35O128
_chemical_formula_sum   'V70 Zn70 O256'
_cell_volume   4828.48055397
_cell_formula_units_Z   2
loop_
 _symmetry_equiv_pos_site_id
 _symmetry_equiv_pos_as_xyz
  1  'x, y, z'
loop_
 _atom_site_type_symbol
 _atom_site_label
 _atom_site_symmetry_multiplicity
 _atom_site_fract_x
 _atom_site_fract_y
 _atom_site_fract_z
 _atom_site_occupancy
  V  V0  1  0.11835948  0.76261364  0.37275238  1
  V  V1  1  0.24297455  0.37331459  0.64253841  1
  V  V2  1  0.87661700  -0.01569901  0.86828264  1
  V  V3  1  0.00437268  0.25664792  0.24991354  1
  V  V4  1  0.61725299  0.12626101  0.00731079  1
  V  V5  1  0.61673012  0.78471144  0.87515306  1
  V  V6  1  0.30759484  0.30190169  0.06067627  1
  V  V7  1  0.87831110  0.25437876  0.11475569  1
  V  V8  1  0.75427682  0.60284567  0.39278088  1
  V  V9  1  0.13401438  0.37664857  0.23198949  1
  V  V10  1  0.25139729  0.49926345  0.21267320  1
  V  V11  1  0.25143556  0.75169676  0.50358577  1
  V  V12  1  -0.00657963  0.62183573  0.63011156  1
  V  V13  1  0.00156177  0.12514464  0.12070200  1
  V  V14  1  0.75171560  0.11939366  0.86436225  1
  V  V15  1  0.73732191  0.89376979  0.60211337  1
  V  V16  1  0.12633805  0.87637864  0.74523714  1
  V  V17  1  0.37113680  0.01059051  0.37246369  1
  V  V18  1  0.25299990  0.25320037  0.48962505  1
  V  V19  1  0.86680280  0.12946026  0.25410982  1
  V  V20  1  0.54067931  0.45119113  -0.03632843  1
  V  V21  1  0.89142418  0.24842443  0.62967318  1
  V  V22  1  0.35505578  0.76947591  0.12619984  1
  V  V23  1  0.12169080  0.24361654  0.84884793  1
  V  V24  1  0.89653479  0.11919104  0.74386423  1
  V  V25  1  -0.01282303  0.74974740  0.74669326  1
  V  V26  1  0.13095187  0.12951453  0.00044573  1
  V  V27  1  -0.00142896  0.35863086  0.86487596  1
  V  V28  1  0.00413203  -0.00718335  0.00036551  1
  V  V29  1  0.64204289  0.87100938  0.26718379  1
  V  V30  1  0.12593988  0.74346273  0.86827682  1
  V  V31  1  0.88519674  0.84344732  0.50858412  1
  V  V32  1  0.25559960  -0.00075897  0.72951395  1
  V  V33  1  0.36997420  0.87871601  0.50835153  1
  V  V34  1  0.60519624  0.24901014  0.37728653  1
  V  V35  1  0.24718721  0.76159756  -0.01178917  1
  V  V36  1  0.61936209  0.50661280  0.64141189  1
  V  V37  1  0.38426152  0.26223429  0.62064148  1
  V  V38  1  0.23903421  -0.00453528  0.23691907  1
  V  V39  1  0.87287689  0.63995502  0.25412671  1
  V  V40  1  0.36138617  0.48494677  0.88773757  1
  V  V41  1  0.13601944  0.61717946  0.49073729  1
  V  V42  1  0.00823978  0.60701157  0.13306868  1
  V  V43  1  0.88584739  -0.01859326  0.38608022  1
  V  V44  1  0.38776086  0.74661179  0.63183594  1
  V  V45  1  0.38850267  0.00290831  0.88045118  1
  V  V46  1  0.49649757  0.74540202  0.23746820  1
  V  V47  1  0.38046626  0.63542449  0.76911629  1
  V  V48  1  0.75124980  0.24691173  -0.01120665  1
  V  V49  1  0.24969657  0.12387939  0.86963327  1
  V  V50  1  0.38443204  0.13564721  0.73919549  1
  V  V51  1  0.63981714  0.12263201  0.49961657  1
  V  V52  1  0.61491372  -0.02144566  0.11731524  1
  V  V53  1  0.49517364  0.86498552  0.37400110  1
  V  V54  1  0.10472884  -0.00044459  0.61610151  1
  V  V55  1  0.11665802  0.12115452  0.49661659  1
  V  V56  1  0.13066361  0.50049768  0.64451043  1
  V  V57  1  0.60798669  0.63739762  0.00112405  1
  V  V58  1  0.36939515  0.61943272  0.24435917  1
  V  V59  1  -0.00074411  0.48505187  0.48825680  1
  V  V60  1  0.73816249  0.37455149  0.12290293  1
  V  V61  1  0.74080124  0.35927467  0.64096851  1
  V  V62  1  0.86198498  0.88382374  0.03247495  1
  V  V63  1  0.38043716  0.12465630  0.23379478  1
  V  V64  1  0.49346406  0.25499326  0.22929946  1
  V  V65  1  0.12561454  0.25155523  0.37083104  1
  V  V66  1  0.74802787  0.75256550  0.02904173  1
  V  V67  1  0.76615763  0.25146475  0.48917111  1
  V  V68  1  0.50900959  0.01067383  0.49899863  1
  V  V69  1  0.62170258  0.50889983  0.12624367  1
  Zn  Zn70  1  0.88919641  0.39005588  -0.00299532  1
  Zn  Zn71  1  0.76151948  0.52118705  0.74229547  1
  Zn  Zn72  1  0.74490815  0.01594922  0.25376928  1
  Zn  Zn73  1  0.20301980  0.56718268  0.81664507  1
  Zn  Zn74  1  0.61431186  0.38844924  0.27071259  1
  Zn  Zn75  1  0.63514366  0.72956462  0.38349351  1
  Zn  Zn76  1  0.19498228  0.17244311  0.18731903  1
  Zn  Zn77  1  0.19178277  0.17993358  0.67476955  1
  Zn  Zn78  1  0.18682319  0.69049400  0.18767818  1
  Zn  Zn79  1  0.19851775  0.68869639  0.68324621  1
  Zn  Zn80  1  0.68406085  0.19821840  0.18921102  1
  Zn  Zn81  1  0.68940836  0.17903300  0.68157840  1
  Zn  Zn82  1  0.68859432  0.68125481  0.20380490  1
  Zn  Zn83  1  0.66032632  0.68873284  0.70314656  1
  Zn  Zn84  1  0.30831812  0.31185553  0.29579130  1
  Zn  Zn85  1  0.31383984  0.30769199  0.81754690  1
  Zn  Zn86  1  0.30409829  0.81640365  0.31634034  1
  Zn  Zn87  1  0.31502694  0.82495185  0.80894767  1
  Zn  Zn88  1  0.81307992  0.32186844  0.29919807  1
  Zn  Zn89  1  0.82237565  0.30860931  0.80755063  1
  Zn  Zn90  1  0.82103808  0.79272142  0.33794896  1
  Zn  Zn91  1  0.77500632  0.67781820  0.85341539  1
  Zn  Zn92  1  0.18281332  0.42704487  0.43921796  1
  Zn  Zn93  1  0.18439276  0.41879122  0.93556636  1
  Zn  Zn94  1  0.19009707  0.93775457  0.43370604  1
  Zn  Zn95  1  0.18996912  0.93831767  0.92764084  1
  Zn  Zn96  1  0.69560597  0.42600596  0.44954685  1
  Zn  Zn97  1  0.71312887  0.45060950  0.94614647  1
  Zn  Zn98  1  0.69497827  0.93613208  0.42470777  1
  Zn  Zn99  1  0.69461032  0.94330251  0.94268468  1
  Zn  Zn100  1  0.31513211  -0.05325638  0.05787793  1
  Zn  Zn101  1  0.31395021  0.07494625  0.55264914  1
  Zn  Zn102  1  0.31202737  0.58421686  0.05376225  1
  Zn  Zn103  1  0.30838280  0.56797940  0.57776434  1
  Zn  Zn104  1  0.80283717  0.06150993  0.07289887  1
  Zn  Zn105  1  0.82102880  0.06210339  0.55802857  1
  Zn  Zn106  1  0.81147163  0.57223699  0.07009660  1
  Zn  Zn107  1  0.81551614  0.54073939  0.56463650  1
  Zn  Zn108  1  0.44357378  0.43242375  0.16261769  1
  Zn  Zn109  1  0.41931618  0.45402374  0.69608537  1
  Zn  Zn110  1  0.45863388  0.94094027  0.18047117  1
  Zn  Zn111  1  0.44048153  0.94703182  0.67930500  1
  Zn  Zn112  1  0.94922705  0.43462353  0.17479290  1
  Zn  Zn113  1  0.93951939  0.43179617  0.68524187  1
  Zn  Zn114  1  0.95016014  0.95037845  0.20571163  1
  Zn  Zn115  1  0.92911500  0.92350655  0.68278800  1
  Zn  Zn116  1  0.05822588  0.06475594  0.31370745  1
  Zn  Zn117  1  0.06378580  0.05113119  0.81394135  1
  Zn  Zn118  1  0.06760389  0.56169356  0.30857957  1
  Zn  Zn119  1  -0.07864898  0.57229197  0.80877126  1
  Zn  Zn120  1  0.56015272  0.06210798  0.30756672  1
  Zn  Zn121  1  0.55906837  0.10027573  0.82035522  1
  Zn  Zn122  1  0.58154117  0.55858512  0.45861110  1
  Zn  Zn123  1  0.55934633  0.56859597  0.81607563  1
  Zn  Zn124  1  0.43727604  0.18866452  0.44256392  1
  Zn  Zn125  1  0.40419530  0.13301182  1.01974406  1
  Zn  Zn126  1  0.42279128  0.67454506  0.43652134  1
  Zn  Zn127  1  0.43864265  0.70166564  0.94687020  1
  Zn  Zn128  1  0.94075569  0.18688155  0.43531796  1
  Zn  Zn129  1  0.93937120  0.18103511  0.93160870  1
  Zn  Zn130  1  0.94400711  0.66804875  0.43603329  1
  Zn  Zn131  1  0.93619439  0.71543543  0.93974666  1
  Zn  Zn132  1  0.06930025  0.31344872  0.04939706  1
  Zn  Zn133  1  0.06993674  0.31247504  0.56522947  1
  Zn  Zn134  1  0.05839169  0.80763658  0.05632941  1
  Zn  Zn135  1  0.06791215  0.80888763  0.56400844  1
  Zn  Zn136  1  0.55745978  0.29712257  0.04376263  1
  Zn  Zn137  1  0.54573698  0.37341387  0.57029901  1
  Zn  Zn138  1  0.53900632  0.81695456  0.03887729  1
  Zn  Zn139  1  0.55585124  0.81210358  0.55799266  1
  O  O140  1  0.11659089  0.13019966  0.10849023  1
  O  O141  1  0.12464649  0.11086623  0.61149454  1
  O  O142  1  0.10776938  0.62411012  0.14005310  1
  O  O143  1  0.12859853  0.61002513  0.62135665  1
  O  O144  1  0.62692797  0.14365545  0.10639568  1
  O  O145  1  0.62638846  0.12943386  0.59863699  1
  O  O146  1  0.63122808  0.61347191  0.12395711  1
  O  O147  1  0.62178831  0.60523040  0.62508108  1
  O  O148  1  0.33636324  0.40945730  0.36699047  1
  O  O149  1  0.36886012  0.38481249  0.87929767  1
  O  O150  1  0.38281864  0.88470004  0.38271847  1
  O  O151  1  0.37727852  0.90280461  0.86539085  1
  O  O152  1  0.87575575  0.42120478  0.32746310  1
  O  O153  1  0.89386045  0.36013988  0.87820367  1
  O  O154  1  0.88343148  0.87387058  0.39578128  1
  O  O155  1  0.87241737  0.88802344  0.87848917  1
  O  O156  1  0.26879138  -0.00075175  0.37189781  1
  O  O157  1  0.25405591  0.01059797  0.85752232  1
  O  O158  1  0.28157344  0.46411955  0.37047943  1
  O  O159  1  0.25395922  0.49560851  0.88555850  1
  O  O160  1  0.78482851  -0.00720529  0.36464958  1
  O  O161  1  0.76939400  0.01135466  0.88352985  1
  O  O162  1  0.74979664  0.49830966  0.38050089  1
  O  O163  1  0.80604942  0.50751128  0.91771822  1
  O  O164  1  0.24394071  0.50491828  0.11555112  1
  O  O165  1  0.24347185  0.48528912  0.62307571  1
  O  O166  1  0.25334438  1.00241994  0.13702364  1
  O  O167  1  0.25348581  1.00684092  0.62865802  1
  O  O168  1  0.73610129  0.48291717  0.10951193  1
  O  O169  1  0.73547508  0.47826924  0.62672157  1
  O  O170  1  0.71944231  1.01346399  0.13950795  1
  O  O171  1  0.74985360  0.99359615  0.61815904  1
  O  O172  1  0.01675455  0.36506510  0.24154642  1
  O  O173  1  0.00318320  0.38017088  0.76623587  1
  O  O174  1  0.03728355  0.86568197  0.21047113  1
  O  O175  1  0.01211544  0.85747464  0.73182698  1
  O  O176  1  0.49787199  0.36099791  0.24338784  1
  O  O177  1  0.52074130  0.29548958  0.81053573  1
  O  O178  1  0.51013156  0.87176957  0.26420779  1
  O  O179  1  0.54727303  0.92653001  0.73904488  1
  O  O180  1  0.48669457  0.14498813  0.26441471  1
  O  O181  1  0.48236369  0.12381844  0.73970274  1
  O  O182  1  0.48191684  0.64341592  0.23987515  1
  O  O183  1  0.48141520  0.62749835  0.75461339  1
  O  O184  1  0.99510647  0.13756286  0.23587641  1
  O  O185  1  0.99449635  0.11717866  0.74929385  1
  O  O186  1  0.98834186  0.60974802  0.24343463  1
  O  O187  1  1.00046347  0.63234499  0.73971229  1
  O  O188  1  0.36152341  0.23514149  0.00179552  1
  O  O189  1  0.36047674  0.24669806  0.50866559  1
  O  O190  1  0.36023400  0.76117011  0.01458741  1
  O  O191  1  0.37215020  0.75720147  0.50911757  1
  O  O192  1  0.87149802  0.24323678  0.00571566  1
  O  O193  1  0.87004325  0.22940945  0.51750249  1
  O  O194  1  0.86014538  0.77736364  0.00443671  1
  O  O195  1  0.87991658  0.74389801  0.50128672  1
  O  O196  1  0.13202957  0.24250734  0.49166476  1
  O  O197  1  0.12059010  0.23009216  0.98426337  1
  O  O198  1  0.13282983  0.73619248  0.49985675  1
  O  O199  1  0.13055158  0.77018965  0.97654200  1
  O  O200  1  0.64789484  0.23878291  0.48177642  1
  O  O201  1  0.64516851  0.24184666  0.98912823  1
  O  O202  1  0.57813906  0.72167321  0.48727280  1
  O  O203  1  0.63341889  0.74479073  1.02712906  1
  O  O204  1  0.50211894  0.24563900  0.13135422  1
  O  O205  1  0.48050738  0.28093788  0.59835424  1
  O  O206  1  0.48721281  0.76573246  0.13697562  1
  O  O207  1  0.48707357  0.75844512  0.63167835  1
  O  O208  1  0.99595876  0.24544835  0.12506787  1
  O  O209  1  0.99019392  0.25153713  0.62039410  1
  O  O210  1  0.98872445  0.72054790  0.09634595  1
  O  O211  1  1.01371786  0.73016340  0.63515947  1
  O  O212  1  0.00947481  0.24618769  0.35946117  1
  O  O213  1  0.01098023  0.24616500  0.86676263  1
  O  O214  1  0.02112688  0.73495514  0.38197743  1
  O  O215  1  0.01690360  0.75148982  0.85786925  1
  O  O216  1  0.50710213  0.26481496  0.39322818  1
  O  O217  1  0.56303274  0.27393004  0.75253230  1
  O  O218  1  0.47825883  0.76154278  0.35966103  1
  O  O219  1  0.52036284  0.78034544  0.92813321  1
  O  O220  1  0.23696378  0.14389045  0.50487927  1
  O  O221  1  0.23087690  0.11352614  0.98383252  1
  O  O222  1  0.24070779  0.63137161  0.50731036  1
  O  O223  1  0.24097995  0.66170262  1.00538725  1
  O  O224  1  0.74627654  0.13017512  0.49521959  1
  O  O225  1  0.75313378  0.13536233  0.99473825  1
  O  O226  1  0.76099144  0.60847108  0.49392615  1
  O  O227  1  0.75026512  0.64901990  1.00825601  1
  O  O228  1  0.23914446  0.35473028  0.00606351  1
  O  O229  1  0.24188514  0.35755147  0.51041995  1
  O  O230  1  0.24609436  0.87418750  0.00127133  1
  O  O231  1  0.26500526  0.87367329  0.49857390  1
  O  O232  1  0.76276579  0.35723239  0.00203176  1
  O  O233  1  0.75800190  0.35372776  0.51735873  1
  O  O234  1  0.75616579  0.87929094  0.01901987  1
  O  O235  1  0.76692544  0.87743450  0.49762871  1
  O  O236  1  0.14100627  0.48637208  0.25008498  1
  O  O237  1  0.13145260  0.50654623  0.74238095  1
  O  O238  1  0.14135811  1.01780675  0.25174563  1
  O  O239  1  0.13270824  0.99951324  0.73215747  1
  O  O240  1  0.61436797  0.49194011  0.22453279  1
  O  O241  1  0.63058763  0.50341034  0.74523382  1
  O  O242  1  0.64377641  0.97462737  0.30021172  1
  O  O243  1  0.59645032  0.98315900  0.73998698  1
  O  O244  1  0.38571282  0.00993653  0.26010953  1
  O  O245  1  0.36668198  0.01160549  0.74279996  1
  O  O246  1  0.36699420  0.51132335  0.22213873  1
  O  O247  1  0.37550532  0.51680470  0.77895056  1
  O  O248  1  0.86320355  0.02806353  0.22573321  1
  O  O249  1  0.88395617  0.00203998  0.76026451  1
  O  O250  1  0.88070763  0.46975795  0.26794164  1
  O  O251  1  0.86974393  0.49326704  0.75034436  1
  O  O252  1  0.13382988  0.35866025  0.35789537  1
  O  O253  1  0.12050974  0.34802281  0.86942914  1
  O  O254  1  0.11880019  0.86363176  0.38898053  1
  O  O255  1  0.12340033  0.88193037  0.84975443  1
  O  O256  1  0.64396462  0.35039232  0.37388197  1
  O  O257  1  0.61597631  0.40674536  0.91015788  1
  O  O258  1  0.60773729  0.85318040  0.38357348  1
  O  O259  1  0.62507116  0.88624314  0.87661348  1
  O  O260  1  0.39311488  0.11283743  0.13659601  1
  O  O261  1  0.37141105  0.14605766  0.62899009  1
  O  O262  1  0.36322410  0.65373576  0.13407282  1
  O  O263  1  0.37868016  0.64195210  0.63221054  1
  O  O264  1  0.88229171  0.13903293  0.12717166  1
  O  O265  1  0.87550651  0.12475125  0.63942481  1
  O  O266  1  0.88325421  0.60747025  0.14890324  1
  O  O267  1  0.89615539  0.61263559  0.61992035  1
  O  O268  1  0.25598762  0.24641762  0.12904561  1
  O  O269  1  0.25391387  0.26209195  0.61861405  1
  O  O270  1  0.25144057  0.76766807  0.12386726  1
  O  O271  1  0.26166820  0.75476208  0.61169517  1
  O  O272  1  0.75882054  0.25627197  0.11096950  1
  O  O273  1  0.76064285  0.24841465  0.62183015  1
  O  O274  1  0.74988962  0.75209742  0.12826068  1
  O  O275  1  0.73404762  0.78075122  0.65820438  1
  O  O276  1  0.24788052  0.25411961  0.38356365  1
  O  O277  1  0.23554540  0.23357406  0.86152977  1
  O  O278  1  0.24378647  0.75582790  0.39578986  1
  O  O279  1  0.24349038  0.76525864  0.88074323  1
  O  O280  1  0.78432415  0.26085942  0.39061185  1
  O  O281  1  0.76514731  0.23455512  0.88249674  1
  O  O282  1  0.74899387  0.71889578  0.38261219  1
  O  O283  1  0.71892637  0.76383574  0.90370213  1
  O  O284  1  0.00577551  0.11619078  0.00334238  1
  O  O285  1  0.01768690  0.13047746  0.49879794  1
  O  O286  1  -0.00818542  0.66133468  0.03155849  1
  O  O287  1  0.01868659  0.61292223  0.51386899  1
  O  O288  1  0.51943604  0.13723350  -0.00992178  1
  O  O289  1  0.51139648  0.11534235  0.49181855  1
  O  O290  1  0.50972944  0.63768116  0.01638775  1
  O  O291  1  0.52311294  0.65587829  0.49417263  1
  O  O292  1  0.42774655  0.48945251  0.46494570  1
  O  O293  1  0.49000662  0.36734433  0.98828939  1
  O  O294  1  0.49000939  0.88394289  0.48692317  1
  O  O295  1  0.53122394  0.92339748  1.07512693  1
  O  O296  1  1.02059273  0.38620914  0.49712471  1
  O  O297  1  1.00316386  0.36952962  0.98000402  1
  O  O298  1  0.98356186  0.86530817  0.51623243  1
  O  O299  1  0.98578219  0.88846835  1.01032229  1
  O  O300  1  0.48187802  0.50243543  0.40860637  1
  O  O301  1  0.48981240  0.50155232  0.88842372  1
  O  O302  1  0.49121574  0.98933059  0.37944869  1
  O  O303  1  0.48566132  1.02151002  0.86799215  1
  O  O304  1  1.01131316  0.50342359  0.38982270  1
  O  O305  1  1.02218195  0.48351681  0.88114122  1
  O  O306  1  0.97371827  0.98613759  0.32339432  1
  O  O307  1  0.98577602  1.00446843  0.89051179  1
  O  O308  1  -0.00471432  0.01488791  0.11244007  1
  O  O309  1  0.00737681  -0.00282559  0.62509314  1
  O  O310  1  0.00124692  0.50760154  0.10644333  1
  O  O311  1  0.01817303  0.50343492  0.62385085  1
  O  O312  1  0.55328659  0.02426666  0.18523785  1
  O  O313  1  0.50198708  -0.00157201  0.59766229  1
  O  O314  1  0.52478425  0.48035327  0.09103657  1
  O  O315  1  0.51659302  0.46646961  0.64160915  1
  O  O316  1  0.24432704  0.38599077  0.23577343  1
  O  O317  1  0.24545493  0.36752602  0.74132340  1
  O  O318  1  0.25195237  0.89642953  0.25673346  1
  O  O319  1  0.24491489  0.89432889  0.74431276  1
  O  O320  1  0.73588703  0.36234634  0.22624738  1
  O  O321  1  0.75037368  0.36514389  0.74262002  1
  O  O322  1  0.73794126  0.85140837  0.28101315  1
  O  O323  1  0.73703804  0.84540288  0.70731304  1
  O  O324  1  0.27349502  0.11432537  0.25036083  1
  O  O325  1  0.25424147  0.11458092  0.74820466  1
  O  O326  1  0.25401883  0.60511632  0.24035984  1
  O  O327  1  0.27000201  0.62475117  0.74466563  1
  O  O328  1  0.76409352  0.14476753  0.25129140  1
  O  O329  1  0.75106418  0.12035851  0.76283641  1
  O  O330  1  0.76863551  0.61965722  0.25561180  1
  O  O331  1  0.73611218  0.62936718  0.76095958  1
  O  O332  1  0.38018327  0.11259757  0.37782196  1
  O  O333  1  0.36356390  0.12086138  0.85133138  1
  O  O334  1  0.36782222  0.63135694  0.34418313  1
  O  O335  1  0.37337833  0.64844187  0.87022051  1
  O  O336  1  0.88760015  0.12131443  0.35409390  1
  O  O337  1  0.87094645  0.11841476  0.85953476  1
  O  O338  1  0.87076903  0.61567934  0.36308666  1
  O  O339  1  0.87744872  0.64383042  0.88040407  1
  O  O340  1  0.12529731  0.36811957  0.13359378  1
  O  O341  1  0.13425568  0.38626004  0.62918827  1
  O  O342  1  0.09180386  0.86562228  0.15558341  1
  O  O343  1  0.12699718  0.89220072  0.62565078  1
  O  O344  1  0.63721968  0.36827569  0.10580866  1
  O  O345  1  0.64093249  0.35243986  0.63317562  1
  O  O346  1  0.64141776  0.88310289  0.16353665  1
  O  O347  1  0.63742563  0.88126285  0.58640930  1
  O  O348  1  0.12455494  0.25289980  0.25106886  1
  O  O349  1  0.12222056  0.23550028  0.75007672  1
  O  O350  1  0.14320369  0.74706742  0.27559018  1
  O  O351  1  0.13677934  0.75990547  0.75560633  1
  O  O352  1  0.60489779  0.24806922  0.26143638  1
  O  O353  1  0.61508925  0.20809702  0.76941923  1
  O  O354  1  0.60701657  0.75132360  0.25676717  1
  O  O355  1  0.60387698  0.75590617  0.77914728  1
  O  O356  1  0.38358172  0.23979659  0.25150356  1
  O  O357  1  0.37482005  0.24536578  0.73582375  1
  O  O358  1  0.37439440  0.75408440  0.24023402  1
  O  O359  1  0.36948374  0.75031353  0.74015968  1
  O  O360  1  0.88593112  0.24921773  0.23785979  1
  O  O361  1  0.87875546  0.22967410  0.74031087  1
  O  O362  1  0.88321119  0.73959890  0.25475567  1
  O  O363  1  0.89250024  0.75580685  0.74953045  1
  O  O364  1  0.39255102  0.55874090  0.49314788  1
  O  O365  1  0.37218808  0.51705441  0.98470236  1
  O  O366  1  0.38437825  1.00048364  0.49117062  1
  O  O367  1  0.37191166  1.02099024  0.98444805  1
  O  O368  1  0.90040998  0.48936614  0.50815872  1
  O  O369  1  0.85821600  0.50428767  0.98338576  1
  O  O370  1  0.89526250  1.01331318  0.48137175  1
  O  O371  1  0.87775069  0.99297188  0.99936078  1
  O  O372  1  0.10768930  0.00515015  -0.01171068  1
  O  O373  1  0.12895379  0.01000228  0.50448546  1
  O  O374  1  0.08174296  0.50295902  -0.07511418  1
  O  O375  1  0.12911718  0.50803109  0.50365180  1
  O  O376  1  0.63384141  0.01741546  0.01309545  1
  O  O377  1  0.61990211  0.01361601  0.47828821  1
  O  O378  1  0.62952876  0.52477856  0.00213619  1
  O  O379  1  0.61052566  0.46573696  0.52133488  1
  O  O380  1  0.36831009  0.36612087  0.11302048  1
  O  O381  1  0.35991179  0.37121635  0.63368668  1
  O  O382  1  0.37639125  0.87509915  0.12911322  1
  O  O383  1  0.38221104  0.86934260  0.61633848  1
  O  O384  1  0.86830785  0.36823472  0.11885045  1
  O  O385  1  0.86895707  0.35223496  0.63369903  1
  O  O386  1  0.87591151  0.88894432  0.13000114  1
  O  O387  1  0.85789110  0.87290954  0.61047335  1
  O  O388  1  0.12349235  0.13419753  0.38420090  1
  O  O389  1  0.12775963  0.12665781  0.87581333  1
  O  O390  1  0.13260452  0.62292809  0.38967089  1
  O  O391  1  0.13360375  0.64533117  0.86854704  1
  O  O392  1  0.62088356  0.14184352  0.37613577  1
  O  O393  1  0.64818742  0.11033706  0.88884719  1
  O  O394  1  0.64407677  0.61002283  0.37812389  1
  O  O395  1  0.61312808  0.63898224  0.89763461  1
