# generated using pymatgen
data_V35Zn35O128
_symmetry_space_group_name_H-M   'P 1'
_cell_length_a   16.92717546
_cell_length_b   16.91493742
_cell_length_c   16.93491941
_cell_angle_alpha   90.04239914
_cell_angle_beta   90.10300948
_cell_angle_gamma   90.03694638
_symmetry_Int_Tables_number   1
_chemical_formula_structural   V35Zn35O128
_chemical_formula_sum   'V70 Zn70 O256'
_cell_volume   4848.83174022
_cell_formula_units_Z   2
loop_
 _symmetry_equiv_pos_site_id
 _symmetry_equiv_pos_as_xyz
  1  'x, y, z'
loop_
 _atom_site_type_symbol
 _atom_site_label
 _atom_site_symmetry_multiplicity
 _atom_site_fract_x
 _atom_site_fract_y
 _atom_site_fract_z
 _atom_site_occupancy
  V  V0  1  0.74717399  0.00112315  0.25131983  1
  V  V1  1  0.49476890  0.39282544  0.37009009  1
  V  V2  1  0.12451015  0.50531698  0.13202493  1
  V  V3  1  0.87944458  0.61044234  0.25622311  1
  V  V4  1  0.00891188  0.76829149  0.75473147  1
  V  V5  1  0.50324388  0.51218275  0.53067043  1
  V  V6  1  0.50565822  0.86583837  0.38574470  1
  V  V7  1  0.89161612  0.73929792  0.12820412  1
  V  V8  1  0.50194694  0.62661008  0.12084339  1
  V  V9  1  0.12779282  0.48486234  0.61890612  1
  V  V10  1  0.36899298  0.74531726  0.11278902  1
  V  V11  1  -0.00513330  0.37803822  0.39175044  1
  V  V12  1  0.73841688  0.74097641  -0.00008670  1
  V  V13  1  0.12558805  0.00311755  0.12034159  1
  V  V14  1  -0.05322357  0.15196191  0.57769107  1
  V  V15  1  0.25344358  0.12747489  0.37473775  1
  V  V16  1  0.24724354  0.63950638  0.88742966  1
  V  V17  1  0.50031924  0.86834889  0.87769867  1
  V  V18  1  0.87553986  0.13015762  0.24074180  1
  V  V19  1  0.25527851  0.87167575  0.11316209  1
  V  V20  1  0.62742190  0.86257860  0.25313154  1
  V  V21  1  -0.00121856  0.12981464  0.12138068  1
  V  V22  1  0.50616194  0.75792047  0.74303682  1
  V  V23  1  0.00071289  -0.00044157  0.50049636  1
  V  V24  1  0.00394667  0.61545855  0.63058993  1
  V  V25  1  0.49082952  0.24109652  0.74528012  1
  V  V26  1  0.00335389  0.26195279  0.24098000  1
  V  V27  1  0.88422951  0.77177785  0.61832001  1
  V  V28  1  0.13024194  0.26067590  0.86668836  1
  V  V29  1  0.74981078  0.12265677  0.88041875  1
  V  V30  1  0.75699450  0.35053792  0.12109109  1
  V  V31  1  0.12455016  0.64594509  0.49453683  1
  V  V32  1  0.26270023  0.61600018  0.37741627  1
  V  V33  1  0.37856249  0.62080137  0.74153918  1
  V  V34  1  0.12856208  0.12576787  0.50459578  1
  V  V35  1  0.74616245  0.13734166  0.38064250  1
  V  V36  1  0.24781795  -0.00113376  0.25170194  1
  V  V37  1  0.87141995  0.12925005  0.75171475  1
  V  V38  1  0.35619943  0.75737360  0.62861784  1
  V  V39  1  0.37149569  -0.00974204  0.38679598  1
  V  V40  1  0.88002267  -0.02089469  0.87462289  1
  V  V41  1  0.50149365  0.37542687  0.87821911  1
  V  V42  1  0.12582320  0.25532368  0.36739996  1
  V  V43  1  0.24011263  0.49291571  0.74772150  1
  V  V44  1  0.63458477  0.24649119  0.87615567  1
  V  V45  1  0.36969564  0.49912255  0.88723774  1
  V  V46  1  0.25442379  0.25768444  0.51280636  1
  V  V47  1  0.13813970  0.13347933  -0.00785737  1
  V  V48  1  -0.00293557  -0.00748949  -0.00542399  1
  V  V49  1  0.61668258  -0.00119340  0.12271920  1
  V  V50  1  0.73969041  -0.02121122  0.75431685  1
  V  V51  1  0.63892861  0.38686195  0.75155688  1
  V  V52  1  0.49261006  -0.00236426  0.00077292  1
  V  V53  1  0.51626287  0.50890075  -0.00458515  1
  V  V54  1  0.48797186  0.74530827  0.25385876  1
  V  V55  1  -0.00254092  0.52276079  -0.00467106  1
  V  V56  1  -0.00298347  0.86678849  0.37222159  1
  V  V57  1  0.14195669  -0.00345139  0.63400007  1
  V  V58  1  0.74586813  0.61026911  0.83868171  1
  V  V59  1  0.12046151  0.86153941  0.25273568  1
  V  V60  1  0.74752592  0.87948299  0.59889580  1
  V  V61  1  0.87910699  0.00548983  0.37889700  1
  V  V62  1  0.36955668  0.38836488  0.51358657  1
  V  V63  1  0.39154018  0.12105738  0.24721656  1
  V  V64  1  0.63794075  0.49920940  0.13286262  1
  V  V65  1  0.25394131  0.37109590  0.09406220  1
  V  V66  1  0.88232947  0.35405696  -0.00414121  1
  V  V67  1  0.34497112  0.86607617  0.50402914  1
  V  V68  1  0.36529340  0.01322621  0.86671550  1
  V  V69  1  0.76252348  0.87363722  0.12181885  1
  Zn  Zn70  1  0.63148879  0.26898996  0.36566572  1
  Zn  Zn71  1  0.50166355  0.25362511  0.25960782  1
  Zn  Zn72  1  0.73990466  0.64994050  0.36251123  1
  Zn  Zn73  1  0.63065231  0.13157277  0.01657357  1
  Zn  Zn74  1  0.57052296  0.04528404  0.56178841  1
  Zn  Zn75  1  0.00666184  0.25007436  0.74618601  1
  Zn  Zn76  1  0.19273456  0.19280120  0.18215769  1
  Zn  Zn77  1  0.20239801  0.18138599  0.70027778  1
  Zn  Zn78  1  0.18492258  0.68047971  0.18875050  1
  Zn  Zn79  1  0.18076310  0.68239791  0.69905656  1
  Zn  Zn80  1  0.67790152  0.18787596  0.19706137  1
  Zn  Zn81  1  0.63012968  0.20836483  0.65758550  1
  Zn  Zn82  1  0.69042810  0.68462503  0.18460787  1
  Zn  Zn83  1  0.70016572  0.70776657  0.68850242  1
  Zn  Zn84  1  0.33093713  0.30588120  0.32243038  1
  Zn  Zn85  1  0.31152215  0.31121154  0.81626969  1
  Zn  Zn86  1  0.30545039  0.80269005  0.31392210  1
  Zn  Zn87  1  0.32338417  0.81887908  0.81455047  1
  Zn  Zn88  1  0.81397314  0.33018770  0.30160178  1
  Zn  Zn89  1  0.84992838  0.34086094  0.78216686  1
  Zn  Zn90  1  0.81848174  0.80700985  0.31287623  1
  Zn  Zn91  1  0.82082565  0.78538947  0.81503749  1
  Zn  Zn92  1  0.18351912  0.43888175  0.43362696  1
  Zn  Zn93  1  0.17691022  0.44109820  0.93998178  1
  Zn  Zn94  1  0.17843359  0.93580523  0.43672030  1
  Zn  Zn95  1  0.21552974  0.90312531  0.90378000  1
  Zn  Zn96  1  0.65416816  0.48000081  0.41887705  1
  Zn  Zn97  1  0.74010551  0.41211697  0.90390857  1
  Zn  Zn98  1  0.68316865  0.94443203  0.43694864  1
  Zn  Zn99  1  0.70214082  0.89968374  0.91684857  1
  Zn  Zn100  1  0.31551570  0.06509018  0.06342076  1
  Zn  Zn101  1  0.31186958  0.07477959  0.58499733  1
  Zn  Zn102  1  0.30531129  0.56054928  0.07010329  1
  Zn  Zn103  1  0.30091134  0.56966880  0.56191770  1
  Zn  Zn104  1  0.81296232  0.05691594  0.06093478  1
  Zn  Zn105  1  0.75609850  0.09020102  0.59148370  1
  Zn  Zn106  1  0.81713810  0.56599124  0.05522740  1
  Zn  Zn107  1  0.84332185  0.56312155  0.54723449  1
  Zn  Zn108  1  0.44116360  0.42707872  0.17184260  1
  Zn  Zn109  1  0.43522180  0.42742772  0.69552522  1
  Zn  Zn110  1  0.43594781  0.93364711  0.19419498  1
  Zn  Zn111  1  0.43076839  0.95204090  0.69356459  1
  Zn  Zn112  1  0.93229584  0.44464793  0.17058580  1
  Zn  Zn113  1  1.00657873  0.40579637  0.84072438  1
  Zn  Zn114  1  0.93883637  0.94204291  0.19039639  1
  Zn  Zn115  1  0.94310806  0.94551571  0.68437223  1
  Zn  Zn116  1  0.06319921  0.06742401  0.31090964  1
  Zn  Zn117  1  0.06249094  0.06735387  0.81121744  1
  Zn  Zn118  1  0.05722118  0.56045567  0.31310684  1
  Zn  Zn119  1  0.04054017  0.61023416  0.84081584  1
  Zn  Zn120  1  0.56715089  0.05178971  0.34815851  1
  Zn  Zn121  1  0.56076094  0.05835994  0.81205681  1
  Zn  Zn122  1  0.56129026  0.56860939  0.31034592  1
  Zn  Zn123  1  0.56799089  0.57540542  0.81160815  1
  Zn  Zn124  1  0.43825793  0.19878435  0.43885395  1
  Zn  Zn125  1  0.45352763  0.18057360  0.94123063  1
  Zn  Zn126  1  0.43470269  0.68525648  0.44714903  1
  Zn  Zn127  1  0.43104021  0.68780127  0.93352214  1
  Zn  Zn128  1  0.89906862  0.23009596  0.40792183  1
  Zn  Zn129  1  0.94571815  0.18424765  0.93159031  1
  Zn  Zn130  1  0.93845426  0.67986712  0.43906831  1
  Zn  Zn131  1  0.91613500  0.69819014  0.93578863  1
  Zn  Zn132  1  0.06807439  0.32287031  0.05539925  1
  Zn  Zn133  1  0.06559449  0.30596166  0.56589181  1
  Zn  Zn134  1  0.06448491  0.81444073  0.06631543  1
  Zn  Zn135  1  0.06486649  0.81596236  0.56403402  1
  Zn  Zn136  1  0.57898175  0.32519941  0.04973762  1
  Zn  Zn137  1  0.56230675  0.34203264  0.56778780  1
  Zn  Zn138  1  0.56066657  0.81798269  0.06571960  1
  Zn  Zn139  1  0.53625730  0.86195378  0.59639640  1
  O  O140  1  0.11909210  0.11956948  0.12069357  1
  O  O141  1  0.13566221  0.11708491  0.60721659  1
  O  O142  1  0.14063008  0.60710997  0.11779239  1
  O  O143  1  0.12364135  0.62448366  0.61260100  1
  O  O144  1  0.62992103  0.10260070  0.13174834  1
  O  O145  1  0.64740288  0.10794823  0.61649157  1
  O  O146  1  0.60735412  0.61881302  0.12820568  1
  O  O147  1  0.65725650  0.65312604  0.56880554  1
  O  O148  1  0.38786909  0.36912309  0.39771686  1
  O  O149  1  0.38809594  0.39295517  0.86746470  1
  O  O150  1  0.37124706  0.86948496  0.38952202  1
  O  O151  1  0.38912250  0.89436366  0.87592346  1
  O  O152  1  0.89223198  0.34732174  0.38115688  1
  O  O153  1  0.86015092  0.37327185  0.89475663  1
  O  O154  1  0.89180902  0.89231481  0.35887301  1
  O  O155  1  0.88156743  0.88215086  0.87650150  1
  O  O156  1  0.25130124  0.00587158  0.37013736  1
  O  O157  1  0.26847651  0.00224888  0.89619669  1
  O  O158  1  0.23985981  0.51635585  0.37793489  1
  O  O159  1  0.26162492  0.50467324  0.86921628  1
  O  O160  1  0.75849510  0.00988143  0.36317607  1
  O  O161  1  0.76471172  -0.00655823  0.87437690  1
  O  O162  1  0.76997127  0.46754021  0.43787491  1
  O  O163  1  0.76384485  0.51644266  0.86975771  1
  O  O164  1  0.23790461  0.48545656  0.11818027  1
  O  O165  1  0.23962429  0.50605704  0.63832722  1
  O  O166  1  0.24539945  0.98949828  0.13276320  1
  O  O167  1  0.24052815  0.98856118  0.61589816  1
  O  O168  1  0.73523209  0.51912320  0.12442123  1
  O  O169  1  0.75876498  0.49629493  0.61687434  1
  O  O170  1  0.74567186  0.99222290  0.13635305  1
  O  O171  1  0.76036879  0.98051804  0.64517233  1
  O  O172  1  -0.00475965  0.36081329  0.24389199  1
  O  O173  1  -0.04084944  0.35444550  0.75338630  1
  O  O174  1  0.01406674  0.88493830  0.25625248  1
  O  O175  1  -0.00397057  0.86919565  0.75327280  1
  O  O176  1  0.47689324  0.37653826  0.26612390  1
  O  O177  1  0.51238303  0.37045104  0.76552076  1
  O  O178  1  0.50629681  0.86141806  0.25530067  1
  O  O179  1  0.48989441  0.86457387  0.76041351  1
  O  O180  1  0.48890447  0.10398498  0.26984956  1
  O  O181  1  0.50425512  0.14107809  0.75628367  1
  O  O182  1  0.49852478  0.63980773  0.24210778  1
  O  O183  1  0.48467807  0.64035468  0.75773670  1
  O  O184  1  0.99434600  0.12686400  0.23790094  1
  O  O185  1  0.97528964  0.12564238  0.75611896  1
  O  O186  1  0.98098374  0.62685882  0.25864900  1
  O  O187  1  1.01360224  0.63889228  0.73091544  1
  O  O188  1  0.42801013  0.24342273  0.04848481  1
  O  O189  1  0.35784705  0.25262293  0.50303037  1
  O  O190  1  0.37944897  0.75423046  0.01525503  1
  O  O191  1  0.37193179  0.75781601  0.51635183  1
  O  O192  1  0.88344926  0.25334360  -0.00149427  1
  O  O193  1  0.88965193  0.20774953  0.51909816  1
  O  O194  1  0.85833874  0.75140342  0.02189967  1
  O  O195  1  0.87995463  0.73592708  0.52299133  1
  O  O196  1  0.13504058  0.24331121  0.48782376  1
  O  O197  1  0.11969369  0.23807064  0.98881540  1
  O  O198  1  0.12328554  0.74629998  0.49741643  1
  O  O199  1  0.12421732  0.77183011  0.97100037  1
  O  O200  1  0.64258926  0.27273300  0.50435537  1
  O  O201  1  0.61719117  0.24211930  0.98212141  1
  O  O202  1  0.64113834  0.69732151  0.51266400  1
  O  O203  1  0.63898928  0.75281008  1.01882378  1
  O  O204  1  0.48612133  0.25816108  0.09724870  1
  O  O205  1  0.51924810  0.25728919  0.64427542  1
  O  O206  1  0.48789603  0.74706220  0.13114357  1
  O  O207  1  0.48403518  0.76471860  0.63933378  1
  O  O208  1  1.01316051  0.24151030  0.13422569  1
  O  O209  1  1.00429361  0.22369957  0.62478707  1
  O  O210  1  0.99127952  0.74841508  0.11531470  1
  O  O211  1  0.99554802  0.75215208  0.63111916  1
  O  O212  1  0.00995513  0.25277247  0.35938394  1
  O  O213  1  0.01989448  0.23891113  0.86762928  1
  O  O214  1  -0.01062300  0.76960568  0.37783101  1
  O  O215  1  -0.00796020  0.72933941  0.85251433  1
  O  O216  1  0.50954044  0.26281419  0.38294312  1
  O  O217  1  0.50607787  0.25792242  0.87111248  1
  O  O218  1  0.48856476  0.75463242  0.36260358  1
  O  O219  1  0.48841421  0.76135130  0.86619783  1
  O  O220  1  0.24802908  0.13624197  0.49113868  1
  O  O221  1  0.23567088  0.12727206  1.01520958  1
  O  O222  1  0.23559700  0.62985223  0.49031896  1
  O  O223  1  0.25775079  0.62004966  0.98602694  1
  O  O224  1  0.75491440  0.12172345  0.47814783  1
  O  O225  1  0.74420170  0.10801988  0.98462535  1
  O  O226  1  0.79455695  0.54272801  0.44824098  1
  O  O227  1  0.74882032  0.64052369  0.99702744  1
  O  O228  1  0.25135966  0.37058468  -0.00735647  1
  O  O229  1  0.25836442  0.36616358  0.49163293  1
  O  O230  1  0.24322369  0.87836960  0.01596727  1
  O  O231  1  0.24719847  0.86324713  0.49395357  1
  O  O232  1  0.76571727  0.37771700  0.01207982  1
  O  O233  1  0.72109699  0.28514314  0.53127887  1
  O  O234  1  0.74796221  0.88613312  0.02387822  1
  O  O235  1  0.76028288  0.89359677  0.50072056  1
  O  O236  1  0.11414106  0.50064724  0.23265329  1
  O  O237  1  0.14005878  0.50109899  0.74718490  1
  O  O238  1  0.13376387  1.00242663  0.23907809  1
  O  O239  1  0.12631741  1.02187996  0.73120259  1
  O  O240  1  0.61235441  0.49836064  0.22883873  1
  O  O241  1  0.62032341  0.48456179  0.76490734  1
  O  O242  1  0.63325255  0.98766245  0.25016772  1
  O  O243  1  0.64135206  0.99281194  0.76177288  1
  O  O244  1  0.36239758  -0.00206161  0.26290711  1
  O  O245  1  0.36841616  0.00788700  0.76466528  1
  O  O246  1  0.33022842  0.46864353  0.25854522  1
  O  O247  1  0.37384286  0.51262713  0.75325618  1
  O  O248  1  0.86898480  0.01145643  0.25434051  1
  O  O249  1  0.87679276  0.00090374  0.76723710  1
  O  O250  1  0.87535393  0.50940131  0.24553921  1
  O  O251  1  0.79570366  0.46667053  0.67357309  1
  O  O252  1  0.11469892  0.36151065  0.37693666  1
  O  O253  1  0.11701790  0.36459102  0.87051229  1
  O  O254  1  0.11484283  0.87824029  0.35975419  1
  O  O255  1  0.12180888  0.82153636  0.91375197  1
  O  O256  1  0.60217801  0.38402179  0.38091759  1
  O  O257  1  0.62310415  0.35956794  0.87774297  1
  O  O258  1  0.61029617  0.87255255  0.36787437  1
  O  O259  1  0.60022155  0.88057240  0.87265777  1
  O  O260  1  0.38021204  0.10786168  0.14850004  1
  O  O261  1  0.42303561  0.11910107  0.58528238  1
  O  O262  1  0.38025139  0.63802498  0.12335651  1
  O  O263  1  0.36826270  0.63657217  0.63677427  1
  O  O264  1  0.88600022  0.11735720  0.12950859  1
  O  O265  1  0.86369032  0.11340548  0.63931461  1
  O  O266  1  0.87438330  0.63516854  0.13615032  1
  O  O267  1  0.89875772  0.61495496  0.62394982  1
  O  O268  1  0.24794350  0.27430426  0.13298739  1
  O  O269  1  0.23586363  0.25725725  0.60858401  1
  O  O270  1  0.25879699  0.76028117  0.12986329  1
  O  O271  1  0.25853764  0.75035817  0.63753058  1
  O  O272  1  0.74111394  0.25137461  0.11943934  1
  O  O273  1  0.73546154  0.25734312  0.60203537  1
  O  O274  1  0.75236682  0.76484125  0.12145742  1
  O  O275  1  0.76933584  0.77479557  0.62836599  1
  O  O276  1  0.24439463  0.24223528  0.37150761  1
  O  O277  1  0.23237386  0.25275363  0.87063427  1
  O  O278  1  0.23782963  0.72920638  0.36299624  1
  O  O279  1  0.27760725  0.73570326  0.88191572  1
  O  O280  1  0.75918100  0.24252305  0.36660680  1
  O  O281  1  0.74048271  0.23113480  0.87605904  1
  O  O282  1  0.74696248  0.76029973  0.38198844  1
  O  O283  1  0.74420542  0.78874855  0.90600161  1
  O  O284  1  0.00915043  0.11763307  0.00926488  1
  O  O285  1  0.01272614  0.11969496  0.49542246  1
  O  O286  1  -0.01040106  0.62316560  -0.00965427  1
  O  O287  1  0.01321267  0.62940277  0.51556112  1
  O  O288  1  0.51759231  0.10080890  -0.00162954  1
  O  O289  1  0.47124052  0.11801730  0.52246063  1
  O  O290  1  0.49298529  0.61704028  0.00617376  1
  O  O291  1  0.49330215  0.61043814  0.50624010  1
  O  O292  1  0.48517406  0.39271858  0.49984414  1
  O  O293  1  0.50646017  0.39475596  0.98795195  1
  O  O294  1  0.49880064  0.85650785  0.48430043  1
  O  O295  1  0.50167504  0.88390601  0.99179634  1
  O  O296  1  1.00375117  0.36597435  0.49070938  1
  O  O297  1  0.98675840  0.37584921  0.99352623  1
  O  O298  1  1.00947496  0.88911436  0.47981239  1
  O  O299  1  1.00680933  0.89482250  1.00604485  1
  O  O300  1  0.49343397  0.49491024  0.37718495  1
  O  O301  1  0.49536484  0.50247822  0.88391108  1
  O  O302  1  0.47851964  0.97062342  0.36607711  1
  O  O303  1  0.49422680  0.99421503  0.88671409  1
  O  O304  1  0.99874731  0.47511668  0.37179002  1
  O  O305  1  1.00319141  0.50947870  0.88526535  1
  O  O306  1  0.99674977  1.00309897  0.37945585  1
  O  O307  1  0.99345435  1.00451002  0.88633480  1
  O  O308  1  0.00673916  0.00874950  0.11811985  1
  O  O309  1  -0.01219186  0.02213754  0.60453762  1
  O  O310  1  0.01319623  0.49817375  0.11034408  1
  O  O311  1  0.02228088  0.51257779  0.63596400  1
  O  O312  1  0.50969981  -0.01480789  0.12036202  1
  O  O313  1  0.50698705  -0.03061565  0.61671663  1
  O  O314  1  0.50060122  0.50585144  0.11036797  1
  O  O315  1  0.49110576  0.50432041  0.63024135  1
  O  O316  1  0.28425131  0.41105122  0.26656814  1
  O  O317  1  0.26089484  0.39539217  0.75419444  1
  O  O318  1  0.23685614  0.88267946  0.24980606  1
  O  O319  1  0.22411369  0.86940583  0.79779906  1
  O  O320  1  0.75774805  0.37717053  0.22072071  1
  O  O321  1  0.73903249  0.37074712  0.77881766  1
  O  O322  1  0.74508741  0.88270139  0.24531250  1
  O  O323  1  0.75634080  0.87883592  0.76352934  1
  O  O324  1  0.25775841  0.11614462  0.25749370  1
  O  O325  1  0.29647736  0.12933848  0.68462383  1
  O  O326  1  0.24467910  0.63709030  0.27319528  1
  O  O327  1  0.26436502  0.61770631  0.75977584  1
  O  O328  1  0.75942852  0.11770431  0.24816978  1
  O  O329  1  0.76004554  0.09733263  0.76832723  1
  O  O330  1  0.76609510  0.63529812  0.24939186  1
  O  O331  1  0.74213217  0.61620277  0.73503985  1
  O  O332  1  0.36647469  0.11119841  0.37457276  1
  O  O333  1  0.38110797  0.11277547  0.88921484  1
  O  O334  1  0.36237931  0.62202202  0.38617966  1
  O  O335  1  0.37287332  0.61135072  0.86571624  1
  O  O336  1  0.86708417  0.12345793  0.35852732  1
  O  O337  1  0.86302256  0.11908276  0.87215441  1
  O  O338  1  0.86803550  0.63483423  0.36252495  1
  O  O339  1  0.83032916  0.67195130  0.86034794  1
  O  O340  1  0.13989252  0.38629822  0.11499399  1
  O  O341  1  0.11971028  0.38530466  0.62678669  1
  O  O342  1  0.13391192  0.88274383  0.13483708  1
  O  O343  1  0.10339136  0.90386911  0.62184718  1
  O  O344  1  0.64533199  0.39148302  0.11131171  1
  O  O345  1  0.63499532  0.37428201  0.65181689  1
  O  O346  1  0.63406099  0.88296208  0.13873895  1
  O  O347  1  0.64893657  0.86742708  0.60785606  1
  O  O348  1  0.11418803  0.24046697  0.25752967  1
  O  O349  1  0.12511085  0.23279705  0.76055982  1
  O  O350  1  0.12064993  0.76458045  0.23955011  1
  O  O351  1  0.10987670  0.75941440  0.74236177  1
  O  O352  1  0.61151481  0.25868454  0.24829229  1
  O  O353  1  0.61744574  0.25787532  0.76620337  1
  O  O354  1  0.61121890  0.75734725  0.24087315  1
  O  O355  1  0.60504946  0.74783778  0.73645817  1
  O  O356  1  0.38703293  0.22710173  0.25867486  1
  O  O357  1  0.39255129  0.26117103  0.75343816  1
  O  O358  1  0.38571532  0.75807824  0.23950498  1
  O  O359  1  0.37736430  0.74357622  0.74076940  1
  O  O360  1  0.89341361  0.23896201  0.25054537  1
  O  O361  1  0.85195568  0.22659128  0.75004097  1
  O  O362  1  0.87847948  0.75632984  0.22995024  1
  O  O363  1  0.88869171  0.75396084  0.72669896  1
  O  O364  1  0.37295969  0.49226283  0.51201708  1
  O  O365  1  0.37996039  0.50406698  0.98680709  1
  O  O366  1  0.36118557  0.97928889  0.49321355  1
  O  O367  1  0.39166764  1.00113115  1.00731347  1
  O  O368  1  0.86221494  0.42843585  0.54555486  1
  O  O369  1  0.89415850  0.49647092  1.01011652  1
  O  O370  1  0.88628255  1.01263340  0.48124428  1
  O  O371  1  0.88892113  1.00333953  0.98998131  1
  O  O372  1  0.11569215  0.01099497  0.01167667  1
  O  O373  1  0.11840013  0.00938565  0.50183437  1
  O  O374  1  0.10632379  0.50164171  0.00301281  1
  O  O375  1  0.13257534  0.50005813  0.51815454  1
  O  O376  1  0.62202498  -0.00990980  0.02104556  1
  O  O377  1  0.59995732  0.01518797  0.45585252  1
  O  O378  1  0.61388021  0.51129493  0.00725531  1
  O  O379  1  0.60213155  0.49028048  0.52160656  1
  O  O380  1  0.35428068  0.38914744  0.11639574  1
  O  O381  1  0.37706891  0.37013070  0.61231172  1
  O  O382  1  0.36032175  0.86898395  0.13027733  1
  O  O383  1  0.36446038  0.86777180  0.61349321  1
  O  O384  1  0.86729743  0.36706845  0.11236848  1
  O  O385  1  0.87528950  0.40001213  0.61208957  1
  O  O386  1  0.86534031  0.87620802  0.13121811  1
  O  O387  1  0.88039804  0.87527049  0.61185628  1
  O  O388  1  0.13672127  0.13014959  0.38054105  1
  O  O389  1  0.12967758  0.11983613  0.89143401  1
  O  O390  1  0.11250099  0.61978641  0.39553418  1
  O  O391  1  0.14871054  0.63559643  0.86682768  1
  O  O392  1  0.64584555  0.13691646  0.35881491  1
  O  O393  1  0.63625390  0.13023170  0.87114444  1
  O  O394  1  0.64784297  0.58638616  0.37845650  1
  O  O395  1  0.64875465  0.63520683  0.86437079  1
