# generated using pymatgen
data_V35Zn35O128
_symmetry_space_group_name_H-M   'P 1'
_cell_length_a   16.89490541
_cell_length_b   16.91325397
_cell_length_c   16.86350665
_cell_angle_alpha   89.92724782
_cell_angle_beta   89.68281183
_cell_angle_gamma   90.32279432
_symmetry_Int_Tables_number   1
_chemical_formula_structural   V35Zn35O128
_chemical_formula_sum   'V70 Zn70 O256'
_cell_volume   4818.55597482
_cell_formula_units_Z   2
loop_
 _symmetry_equiv_pos_site_id
 _symmetry_equiv_pos_as_xyz
  1  'x, y, z'
loop_
 _atom_site_type_symbol
 _atom_site_label
 _atom_site_symmetry_multiplicity
 _atom_site_fract_x
 _atom_site_fract_y
 _atom_site_fract_z
 _atom_site_occupancy
  V  V0  1  0.11050838  0.38251867  0.24493214  1
  V  V1  1  0.24750434  0.11464318  0.86510870  1
  V  V2  1  0.62939368  0.51245682  0.11362959  1
  V  V3  1  0.01493804  0.62387658  0.12028769  1
  V  V4  1  0.75256441  0.64042496  0.38734948  1
  V  V5  1  0.88096973  0.62888484  0.24724673  1
  V  V6  1  0.14985189  0.24167352  0.35709205  1
  V  V7  1  0.87934595  0.62385504  0.75071255  1
  V  V8  1  0.74373192  0.24623924  0.00457409  1
  V  V9  1  0.51165139  0.36809151  0.38244872  1
  V  V10  1  0.25350450  0.24718057  0.01205329  1
  V  V11  1  0.74759287  0.74771282  0.00020772  1
  V  V12  1  0.10729394  -0.00373773  0.12665001  1
  V  V13  1  0.88690303  -0.01300296  0.40310855  1
  V  V14  1  0.49640176  0.24978647  0.23153260  1
  V  V15  1  0.86986814  0.10271893  0.26538634  1
  V  V16  1  0.24352129  0.87722352  0.64018501  1
  V  V17  1  0.10613433  0.12136302  0.00302954  1
  V  V18  1  0.38160668  0.87377749  0.49016782  1
  V  V19  1  0.61534638  0.74308342  0.37661048  1
  V  V20  1  0.27034556  0.49926938  0.24638815  1
  V  V21  1  0.72288129  0.21215294  0.46342354  1
  V  V22  1  0.12694144  0.25270325  0.85893089  1
  V  V23  1  0.37404076  0.11850588  0.74848132  1
  V  V24  1  0.24888995  0.61546550  0.87923524  1
  V  V25  1  0.76032596  0.37751441  0.62177871  1
  V  V26  1  0.88913022  0.23931157  0.13550868  1
  V  V27  1  0.01834075  0.49974057  0.00240961  1
  V  V28  1  0.12604530  0.74671759  0.87391603  1
  V  V29  1  0.38433267  0.88273159  -0.01378336  1
  V  V30  1  0.38081651  0.74325396  0.62880478  1
  V  V31  1  0.37519835  0.75232936  0.12940054  1
  V  V32  1  0.62344370  0.02133909  0.13575062  1
  V  V33  1  0.73318728  0.12870209  0.87770525  1
  V  V34  1  0.63120751  0.37611085  0.24621209  1
  V  V35  1  0.00527834  0.88557022  0.87291282  1
  V  V36  1  0.12332937  0.85996309  0.24789972  1
  V  V37  1  0.09710336  0.03515632  0.61408953  1
  V  V38  1  0.88049332  0.74793837  0.12716346  1
  V  V39  1  0.00448993  0.84764787  0.37977960  1
  V  V40  1  0.01025910  0.59910139  0.62484704  1
  V  V41  1  0.49406310  0.88450730  0.35740004  1
  V  V42  1  0.36896485  0.38239757  0.50058553  1
  V  V43  1  0.88095814  0.49363564  0.38458342  1
  V  V44  1  0.73851167  0.87804786  0.13436919  1
  V  V45  1  0.24040144  0.74797379  0.49587958  1
  V  V46  1  0.74908072  0.50535995  0.24760967  1
  V  V47  1  0.49109501  0.36670573  0.88082896  1
  V  V48  1  0.51905273  0.50909773  0.49426555  1
  V  V49  1  0.62179964  0.36166647  0.75679255  1
  V  V50  1  0.00534216  0.37140504  0.85938676  1
  V  V51  1  -0.07422202  0.18408026  0.67814315  1
  V  V52  1  0.47533332  0.50342451  -0.00586470  1
  V  V53  1  0.23841096  0.48740921  0.73495723  1
  V  V54  1  0.12460638  0.60222119  0.49347641  1
  V  V55  1  0.74406538  0.62739906  0.88221788  1
  V  V56  1  0.88046168  0.88519341  0.00409446  1
  V  V57  1  0.87511533  0.75525812  0.61082709  1
  V  V58  1  0.26610976  0.61571492  0.37335251  1
  V  V59  1  0.87437423  0.37082684  0.00687267  1
  V  V60  1  0.37585556  0.61479591  0.75196086  1
  V  V61  1  0.86700764  0.00768737  0.86596828  1
  V  V62  1  0.00688987  0.74906871  0.74900406  1
  V  V63  1  0.51446806  0.61880640  0.62746068  1
  V  V64  1  0.51190746  0.00931475  -0.00855052  1
  V  V65  1  0.24863802  0.76079648  0.00076280  1
  V  V66  1  0.87747815  0.49997645  0.87484165  1
  V  V67  1  0.73815962  0.50460489  0.75001978  1
  V  V68  1  0.36072457  0.25753622  0.61865996  1
  V  V69  1  0.61799511  0.76423217  0.86974667  1
  Zn  Zn70  1  0.49233710  0.62151670  0.12626521  1
  Zn  Zn71  1  0.55775702  0.02870881  0.55807602  1
  Zn  Zn72  1  0.24326976  0.00016435  0.24632457  1
  Zn  Zn73  1  0.50629762  0.23923678  0.72332323  1
  Zn  Zn74  1  0.25477933  0.38283905  0.12350542  1
  Zn  Zn75  1  0.51130647  0.74463642  0.24222717  1
  Zn  Zn76  1  0.16148952  0.18008925  0.18979616  1
  Zn  Zn77  1  0.18969620  0.18676599  0.67747130  1
  Zn  Zn78  1  0.19691022  0.68083116  0.18765027  1
  Zn  Zn79  1  0.19011375  0.68215231  0.68553287  1
  Zn  Zn80  1  0.70073938  0.19561418  0.19015626  1
  Zn  Zn81  1  0.73601692  0.17564056  0.67654993  1
  Zn  Zn82  1  0.68929801  0.69152032  0.19243640  1
  Zn  Zn83  1  0.69159214  0.69916596  0.68940846  1
  Zn  Zn84  1  0.32143395  0.31770289  0.31816491  1
  Zn  Zn85  1  0.31573409  0.30837598  0.80910419  1
  Zn  Zn86  1  0.29903139  0.81259285  0.31273236  1
  Zn  Zn87  1  0.31868151  0.80708101  0.81430084  1
  Zn  Zn88  1  0.80667206  0.30834363  0.31799429  1
  Zn  Zn89  1  0.81330005  0.30957565  0.81271702  1
  Zn  Zn90  1  0.78594647  0.85167707  0.34282022  1
  Zn  Zn91  1  0.81694669  0.81475177  0.81245553  1
  Zn  Zn92  1  0.18553550  0.42918375  0.42396705  1
  Zn  Zn93  1  0.19672031  0.42771999  0.93351202  1
  Zn  Zn94  1  0.17084793  0.93459825  0.44237190  1
  Zn  Zn95  1  0.18270148  0.93858967  0.93621241  1
  Zn  Zn96  1  0.69331173  0.44798338  0.43488687  1
  Zn  Zn97  1  0.68922291  0.43155387  0.93469576  1
  Zn  Zn98  1  0.69662757  1.02060186  0.43656838  1
  Zn  Zn99  1  0.68880298  0.93924955  0.94540397  1
  Zn  Zn100  1  0.28645918  0.04400125  0.04541362  1
  Zn  Zn101  1  0.35855068  0.04231429  0.58013309  1
  Zn  Zn102  1  0.30696147  0.56824658  0.06391265  1
  Zn  Zn103  1  0.31418139  0.55492398  0.56070975  1
  Zn  Zn104  1  0.81153768  0.06592058  0.06938437  1
  Zn  Zn105  1  0.80933362  0.04184995  0.57736210  1
  Zn  Zn106  1  0.81612477  0.55995412  0.06200154  1
  Zn  Zn107  1  0.81607839  0.56338140  0.56604597  1
  Zn  Zn108  1  0.44122232  0.43349684  0.18367719  1
  Zn  Zn109  1  0.44061065  0.43775922  0.68759199  1
  Zn  Zn110  1  0.44247270  0.93016735  0.16961795  1
  Zn  Zn111  1  0.42441779  0.93523260  0.68598463  1
  Zn  Zn112  1  0.93415011  0.44268593  0.18731249  1
  Zn  Zn113  1  0.97490064  0.37751076  0.64560475  1
  Zn  Zn114  1  0.94361052  0.93162980  0.19635697  1
  Zn  Zn115  1  0.94235518  0.93673291  0.68619830  1
  Zn  Zn116  1  0.05192887  0.07078188  0.30950425  1
  Zn  Zn117  1  0.06450948  0.06884544  0.79142213  1
  Zn  Zn118  1  0.06620524  0.55892930  0.30857176  1
  Zn  Zn119  1  0.06723363  0.55995135  0.81336011  1
  Zn  Zn120  1  0.55801885  0.06765708  0.31153759  1
  Zn  Zn121  1  0.55791206  0.07164396  0.81700602  1
  Zn  Zn122  1  0.56028972  0.56836215  0.30823280  1
  Zn  Zn123  1  0.55726259  0.57086953  0.82378652  1
  Zn  Zn124  1  0.50118359  0.21204070  0.49690258  1
  Zn  Zn125  1  0.43482634  0.18569880  0.93835618  1
  Zn  Zn126  1  0.43748664  0.68696916  0.44600499  1
  Zn  Zn127  1  0.43580100  0.68709209  0.94011171  1
  Zn  Zn128  1  0.87965629  0.15968629  0.47552320  1
  Zn  Zn129  1  0.93535648  0.19226857  0.92866315  1
  Zn  Zn130  1  0.94442331  0.67391195  0.43892285  1
  Zn  Zn131  1  0.93821027  0.68809041  0.94249844  1
  Zn  Zn132  1  0.07167452  0.31435906  0.06220966  1
  Zn  Zn133  1  0.04908853  0.22006911  0.54745690  1
  Zn  Zn134  1  0.06401452  0.81291591  0.06078693  1
  Zn  Zn135  1  0.06442711  0.80877025  0.56688559  1
  Zn  Zn136  1  0.56096786  0.32336844  0.06287526  1
  Zn  Zn137  1  0.58255520  0.32854631  0.57448352  1
  Zn  Zn138  1  0.55994098  0.81324305  0.05503292  1
  Zn  Zn139  1  0.60955052  0.86484016  0.49973289  1
  O  O140  1  0.10301270  0.12060912  0.10802519  1
  O  O141  1  0.11531075  0.14104008  0.60652439  1
  O  O142  1  0.11331271  0.62804575  0.12432052  1
  O  O143  1  0.11517542  0.61882241  0.61997247  1
  O  O144  1  0.63652304  0.11993527  0.12792638  1
  O  O145  1  0.63011319  0.09470789  0.66020144  1
  O  O146  1  0.62626868  0.61517602  0.12630280  1
  O  O147  1  0.61134557  0.63498167  0.63556404  1
  O  O148  1  0.39939110  0.37465388  0.39214338  1
  O  O149  1  0.39183893  0.37417766  0.86911563  1
  O  O150  1  0.38284158  0.85333502  0.38237080  1
  O  O151  1  0.37809011  0.87189903  0.88535840  1
  O  O152  1  0.85944163  0.39578627  0.36843672  1
  O  O153  1  0.89008818  0.37980748  0.87928096  1
  O  O154  1  0.89865858  0.87745872  0.37213039  1
  O  O155  1  0.88065267  0.88266239  0.88609116  1
  O  O156  1  0.23439667  0.00626457  0.36812378  1
  O  O157  1  0.23869275  0.01543890  0.86986700  1
  O  O158  1  0.25423201  0.51027914  0.36902107  1
  O  O159  1  0.24794217  0.51396738  0.87675459  1
  O  O160  1  0.77680105  -0.03950195  0.38383913  1
  O  O161  1  0.76046446  0.01201322  0.88707625  1
  O  O162  1  0.75724955  0.51874914  0.36495131  1
  O  O163  1  0.75872166  0.50889775  0.87191746  1
  O  O164  1  0.24972617  0.50883242  0.14241906  1
  O  O165  1  0.24806206  0.49805837  0.63497470  1
  O  O166  1  0.22207630  1.02425434  0.13361214  1
  O  O167  1  0.26928167  0.97373019  0.62066259  1
  O  O168  1  0.74271971  0.50731205  0.13592190  1
  O  O169  1  0.75559956  0.50466827  0.64759301  1
  O  O170  1  0.73599502  0.98636321  0.11608406  1
  O  O171  1  0.74802483  0.93928279  0.70866419  1
  O  O172  1  0.01079736  0.38687591  0.24561681  1
  O  O173  1  0.00277297  0.38773496  0.76289543  1
  O  O174  1  0.01343368  0.86747977  0.25818383  1
  O  O175  1  -0.00781419  0.86084379  0.76705748  1
  O  O176  1  0.51169277  0.37385446  0.26397028  1
  O  O177  1  0.51096156  0.37906970  0.76094733  1
  O  O178  1  0.48393405  0.86073609  0.25601542  1
  O  O179  1  0.51958167  0.87786109  0.73705997  1
  O  O180  1  0.51271841  0.15362032  0.25709074  1
  O  O181  1  0.47877575  0.13485332  0.76639209  1
  O  O182  1  0.49879820  0.63091247  0.24024958  1
  O  O183  1  0.48514542  0.61730123  0.74186517  1
  O  O184  1  0.96609304  0.13839154  0.26640528  1
  O  O185  1  0.98157894  0.12516864  0.73787002  1
  O  O186  1  0.99338771  0.61458664  0.22974434  1
  O  O187  1  0.99836914  0.62607108  0.74329292  1
  O  O188  1  0.35193431  0.23625158  -0.00093697  1
  O  O189  1  0.38452740  0.26233568  0.51153958  1
  O  O190  1  0.36417358  0.76141199  -0.00292648  1
  O  O191  1  0.36244165  0.74739362  0.51116362  1
  O  O192  1  0.87876421  0.26142348  0.00429708  1
  O  O193  1  0.81135866  0.25247760  0.49218999  1
  O  O194  1  0.86876290  0.75841432  0.00635906  1
  O  O195  1  0.88883319  0.74325384  0.51207129  1
  O  O196  1  0.09752454  0.21978046  0.44180449  1
  O  O197  1  0.12602235  0.23457085  0.99034760  1
  O  O198  1  0.13931617  0.73333929  0.50869136  1
  O  O199  1  0.13850253  0.75610830  0.98927297  1
  O  O200  1  0.63788180  0.25230952  0.50619502  1
  O  O201  1  0.64630935  0.26334340  1.01195772  1
  O  O202  1  0.63170083  0.75817915  0.47790062  1
  O  O203  1  0.64297340  0.75503873  0.99425973  1
  O  O204  1  0.49870343  0.25705684  0.13063619  1
  O  O205  1  0.50187733  0.24856850  0.60870938  1
  O  O206  1  0.48683516  0.75054735  0.12081892  1
  O  O207  1  0.48221992  0.73185640  0.61976547  1
  O  O208  1  0.98702179  0.25587128  0.11624477  1
  O  O209  1  0.99554408  0.26342109  0.64973659  1
  O  O210  1  0.99287384  0.73220242  0.10733720  1
  O  O211  1  0.99708337  0.74164174  0.63780280  1
  O  O212  1  -0.02336769  0.32454363  0.44300420  1
  O  O213  1  0.00888172  0.26375663  0.87137819  1
  O  O214  1  0.00081999  0.74798534  0.37083506  1
  O  O215  1  0.00932298  0.74856084  0.86991619  1
  O  O216  1  0.51697165  0.26910530  0.38797148  1
  O  O217  1  0.50123894  0.26587290  0.88777563  1
  O  O218  1  0.50981054  0.73544917  0.37238802  1
  O  O219  1  0.51975104  0.74511288  0.88800269  1
  O  O220  1  0.27241093  0.07453934  0.40930395  1
  O  O221  1  0.23482212  0.12983971  0.98069993  1
  O  O222  1  0.24327245  0.62361886  0.49373005  1
  O  O223  1  0.25847303  0.63822581  0.98239719  1
  O  O224  1  0.74518622  0.11011755  0.49753339  1
  O  O225  1  0.75837985  0.13852195  0.99584526  1
  O  O226  1  0.75927172  0.62710864  0.48547671  1
  O  O227  1  0.76369361  0.63573729  0.99200068  1
  O  O228  1  0.23947958  0.35324931  0.00621114  1
  O  O229  1  0.27104462  0.38354021  0.49020375  1
  O  O230  1  0.25703990  0.86603905  -0.00922240  1
  O  O231  1  0.25366207  0.85464128  0.49674649  1
  O  O232  1  0.76957799  0.36403350  -0.01417973  1
  O  O233  1  0.73683818  0.39629666  0.52508497  1
  O  O234  1  0.76561740  0.86774044  0.00964278  1
  O  O235  1  0.74827010  0.94590822  0.63041702  1
  O  O236  1  0.13864869  0.48580639  0.26050069  1
  O  O237  1  0.13884693  0.49935436  0.75298860  1
  O  O238  1  0.11380969  0.99614573  0.23510948  1
  O  O239  1  0.12894517  1.01694513  0.71136504  1
  O  O240  1  0.63345000  0.50129785  0.24249196  1
  O  O241  1  0.63910420  0.51330372  0.76099926  1
  O  O242  1  0.62180673  1.00564120  0.23599761  1
  O  O243  1  0.62150471  1.04180743  0.71723841  1
  O  O244  1  0.36569408  0.00326765  0.22376483  1
  O  O245  1  0.37310297  0.01901734  0.74862670  1
  O  O246  1  0.37031754  0.50415604  0.24754814  1
  O  O247  1  0.36493604  0.51171119  0.74589875  1
  O  O248  1  0.87238293  0.00209693  0.24940546  1
  O  O249  1  0.87368675  -0.01189176  0.76797291  1
  O  O250  1  0.86534496  0.51153399  0.24981588  1
  O  O251  1  0.86956255  0.51055707  0.76524858  1
  O  O252  1  0.12929215  0.35667071  0.35849533  1
  O  O253  1  0.11458219  0.36407303  0.87851530  1
  O  O254  1  0.11474974  0.87511998  0.36027158  1
  O  O255  1  0.10989258  0.86776523  0.87888795  1
  O  O256  1  0.61907110  0.39211549  0.36219041  1
  O  O257  1  0.61671990  0.38366275  0.86285440  1
  O  O258  1  0.59709975  0.86330638  0.37246883  1
  O  O259  1  0.63484615  0.86390314  0.87895908  1
  O  O260  1  0.37451055  0.08795880  0.20752752  1
  O  O261  1  0.36309493  0.14132775  0.63739618  1
  O  O262  1  0.37269053  0.64731450  0.11340161  1
  O  O263  1  0.37205715  0.62894565  0.63478457  1
  O  O264  1  0.87798681  0.13376562  0.13662708  1
  O  O265  1  0.83524576  0.12296385  0.64909831  1
  O  O266  1  0.88110623  0.63038476  0.12832650  1
  O  O267  1  0.89357631  0.62625529  0.63405156  1
  O  O268  1  0.23674294  0.22935065  0.11127990  1
  O  O269  1  0.26093262  0.25970318  0.62091794  1
  O  O270  1  0.25343798  0.74428362  0.10434191  1
  O  O271  1  0.25706689  0.75020329  0.61599563  1
  O  O272  1  0.77157036  0.25025358  0.10893043  1
  O  O273  1  0.73952721  0.27931714  0.63752520  1
  O  O274  1  0.76031573  0.75704726  0.11790756  1
  O  O275  1  0.77648901  0.73286577  0.62633557  1
  O  O276  1  0.24888679  0.24825772  0.37525543  1
  O  O277  1  0.23537886  0.24933909  0.88062311  1
  O  O278  1  0.25112481  0.73312276  0.38891385  1
  O  O279  1  0.24151525  0.74515502  0.87922087  1
  O  O280  1  0.72757315  0.23749205  0.36402005  1
  O  O281  1  0.75907546  0.23876246  0.89014105  1
  O  O282  1  0.75053021  0.74420131  0.37127356  1
  O  O283  1  0.75162872  0.74439491  0.88231836  1
  O  O284  1  0.01037852  0.12069113  -0.02094756  1
  O  O285  1  -0.05109160  0.16060708  0.56122783  1
  O  O286  1  -0.00148842  0.60948007  0.00482077  1
  O  O287  1  0.01401463  0.61683984  0.51404550  1
  O  O288  1  0.48838294  0.10698901  -0.00124134  1
  O  O289  1  0.54068162  0.10527975  0.46808284  1
  O  O290  1  0.49232925  0.60782067  0.00270178  1
  O  O291  1  0.49659394  0.61601143  0.51586682  1
  O  O292  1  0.51339909  0.39098673  0.49340292  1
  O  O293  1  0.50671863  0.39138626  0.98851418  1
  O  O294  1  0.48517078  0.86826908  0.48639498  1
  O  O295  1  0.48955872  0.88622818  1.00012628  1
  O  O296  1  1.01593874  0.37855406  0.47643419  1
  O  O297  1  0.99389031  0.38716523  0.99371684  1
  O  O298  1  1.01855013  0.86345342  0.47985938  1
  O  O299  1  0.98847830  0.86730568  0.98554749  1
  O  O300  1  0.50614365  0.50494479  0.39056811  1
  O  O301  1  0.49749675  0.49850094  0.88916618  1
  O  O302  1  0.49026338  0.98311142  0.35692651  1
  O  O303  1  0.51428014  0.99569352  0.89005995  1
  O  O304  1  0.97983270  0.50980128  0.36661939  1
  O  O305  1  0.99726204  0.49424869  0.88443174  1
  O  O306  1  0.98938657  0.99859071  0.37764094  1
  O  O307  1  0.99738309  0.98729112  0.86644855  1
  O  O308  1  0.00630102  -0.00368439  0.12035027  1
  O  O309  1  0.00029148  0.00210265  0.61605643  1
  O  O310  1  -0.00229333  0.50906688  0.10946195  1
  O  O311  1  -0.00058547  0.50216427  0.63203719  1
  O  O312  1  0.51791186  -0.00225408  0.11663035  1
  O  O313  1  0.46574177  0.01202163  0.61418964  1
  O  O314  1  0.51211024  0.49917693  0.10988171  1
  O  O315  1  0.50307645  0.51304687  0.62093887  1
  O  O316  1  0.25828724  0.39204015  0.25294395  1
  O  O317  1  0.25554251  0.39097084  0.75932464  1
  O  O318  1  0.22954170  0.88355579  0.25808810  1
  O  O319  1  0.25861197  0.86680557  0.73942446  1
  O  O320  1  0.73684298  0.38986171  0.25700761  1
  O  O321  1  0.74177642  0.39174460  0.75943913  1
  O  O322  1  0.76096177  0.86975080  0.23033812  1
  O  O323  1  0.73976547  0.86362289  0.73531796  1
  O  O324  1  0.31453940  0.12556381  0.23340461  1
  O  O325  1  0.25607242  0.13553353  0.75837670  1
  O  O326  1  0.24669428  0.61661962  0.26635819  1
  O  O327  1  0.25644874  0.61548084  0.75778684  1
  O  O328  1  0.77319618  0.13705715  0.25292684  1
  O  O329  1  0.74471878  0.12827191  0.77890980  1
  O  O330  1  0.76278241  0.62217929  0.25368216  1
  O  O331  1  0.76116450  0.61912149  0.76138770  1
  O  O332  1  0.33527028  0.09717403  0.37718954  1
  O  O333  1  0.35469805  0.13455142  0.86341525  1
  O  O334  1  0.36419993  0.62359391  0.38167219  1
  O  O335  1  0.36303659  0.63549699  0.85885935  1
  O  O336  1  0.86618196  0.09561571  0.37968236  1
  O  O337  1  0.87808164  0.10809483  0.87794001  1
  O  O338  1  0.86801761  0.62340989  0.36446052  1
  O  O339  1  0.87321856  0.61852671  0.87080157  1
  O  O340  1  0.13533697  0.37526497  0.13795125  1
  O  O341  1  0.05428994  0.35564038  0.54645624  1
  O  O342  1  0.11887347  0.88547052  0.13120808  1
  O  O343  1  0.14295572  0.86572729  0.62741871  1
  O  O344  1  0.62040992  0.39597835  0.14067996  1
  O  O345  1  0.63295393  0.39251062  0.65433163  1
  O  O346  1  0.63859280  0.86560603  0.12605928  1
  O  O347  1  0.58128002  0.88499085  0.69524679  1
  O  O348  1  0.12748852  0.27281032  0.24930670  1
  O  O349  1  0.13191501  0.25161900  0.76054972  1
  O  O350  1  0.13188751  0.76123756  0.23732955  1
  O  O351  1  0.11675633  0.74284710  0.75917760  1
  O  O352  1  0.62302417  0.27286214  0.23699775  1
  O  O353  1  0.62020819  0.26173596  0.75320431  1
  O  O354  1  0.62881923  0.75287110  0.26684073  1
  O  O355  1  0.63054634  0.74734745  0.76999018  1
  O  O356  1  0.39985109  0.26374477  0.25755447  1
  O  O357  1  0.38260656  0.25183425  0.73162653  1
  O  O358  1  0.35771837  0.75800299  0.22862579  1
  O  O359  1  0.36928640  0.73655567  0.73582555  1
  O  O360  1  0.87250629  0.26976860  0.23079790  1
  O  O361  1  0.87190059  0.24475948  0.74191279  1
  O  O362  1  0.87732294  0.73930402  0.23279347  1
  O  O363  1  0.88695597  0.73566275  0.75411698  1
  O  O364  1  0.39223070  0.48607551  0.51008265  1
  O  O365  1  0.37633859  0.49597850  1.00392577  1
  O  O366  1  0.36305214  0.97134873  0.48825702  1
  O  O367  1  0.37679727  0.98763178  1.00468393  1
  O  O368  1  0.87289872  0.50654163  0.48494532  1
  O  O369  1  0.87648012  0.48889872  0.98913940  1
  O  O370  1  0.88089618  0.99019927  0.50349131  1
  O  O371  1  0.87464155  0.98741559  0.99708977  1
  O  O372  1  0.12823669  0.01091037  0.00863006  1
  O  O373  1  0.13931374  -0.00122952  0.52795877  1
  O  O374  1  0.11616611  0.49435559  -0.00535597  1
  O  O375  1  0.13381945  0.50366426  0.49819738  1
  O  O376  1  0.61755127  0.00009545  0.01160387  1
  O  O377  1  0.64245340  -0.03408090  0.52294491  1
  O  O378  1  0.64050268  0.49816422  0.01415251  1
  O  O379  1  0.61787950  0.51129299  0.50195234  1
  O  O380  1  0.36805248  0.37257231  0.12516023  1
  O  O381  1  0.38262499  0.36776019  0.61511338  1
  O  O382  1  0.37271047  0.86041468  0.10507931  1
  O  O383  1  0.37092836  0.85610678  0.61409035  1
  O  O384  1  0.87736560  0.37786562  0.10799836  1
  O  O385  1  0.86048825  0.38723409  0.63022943  1
  O  O386  1  0.87998952  0.86820249  0.11425653  1
  O  O387  1  0.88547972  0.85374166  0.63132334  1
  O  O388  1  0.14328525  0.14291957  0.30400264  1
  O  O389  1  0.12812415  0.13530426  0.86991580  1
  O  O390  1  0.12720530  0.61896720  0.39098070  1
  O  O391  1  0.13890908  0.63386065  0.87260678  1
  O  O392  1  0.60756507  0.10750772  0.41100174  1
  O  O393  1  0.63403308  0.12281054  0.88682292  1
  O  O394  1  0.64239807  0.63380660  0.37254661  1
  O  O395  1  0.64097079  0.63321194  0.87871370  1
