# generated using pymatgen
data_V35Zn35O128
_symmetry_space_group_name_H-M   'P 1'
_cell_length_a   16.85240394
_cell_length_b   16.84201539
_cell_length_c   16.84678078
_cell_angle_alpha   90.28194741
_cell_angle_beta   90.14537877
_cell_angle_gamma   89.97166273
_symmetry_Int_Tables_number   1
_chemical_formula_structural   V35Zn35O128
_chemical_formula_sum   'V70 Zn70 O256'
_cell_volume   4781.52177895
_cell_formula_units_Z   2
loop_
 _symmetry_equiv_pos_site_id
 _symmetry_equiv_pos_as_xyz
  1  'x, y, z'
loop_
 _atom_site_type_symbol
 _atom_site_label
 _atom_site_symmetry_multiplicity
 _atom_site_fract_x
 _atom_site_fract_y
 _atom_site_fract_z
 _atom_site_occupancy
  V  V0  1  0.74591755  0.51798623  0.75835210  1
  V  V1  1  0.50907283  0.01178125  -0.00465337  1
  V  V2  1  0.74986168  0.00288173  0.75384666  1
  V  V3  1  0.49327443  0.12425794  0.61219611  1
  V  V4  1  0.73261670  0.51801380  0.24550033  1
  V  V5  1  0.00166452  0.49180624  0.00815571  1
  V  V6  1  0.49645255  0.61681409  0.61175393  1
  V  V7  1  -0.00270930  0.86536415  0.86528525  1
  V  V8  1  0.00272881  0.49138536  0.48238609  1
  V  V9  1  0.12426658  0.76124276  0.37452042  1
  V  V10  1  0.87533966  0.51237787  0.35465537  1
  V  V11  1  0.14394369  -0.00468694  0.10168954  1
  V  V12  1  0.37318792  0.87558900  0.00714222  1
  V  V13  1  0.63168792  0.00564380  0.12852159  1
  V  V14  1  0.25190059  0.74947635  0.00136489  1
  V  V15  1  0.38794376  0.49396557  0.87390984  1
  V  V16  1  0.51105795  0.35277441  0.38405208  1
  V  V17  1  0.87901533  0.00241566  0.87485030  1
  V  V18  1  0.12760539  0.87452096  0.22792333  1
  V  V19  1  0.36799980  0.36870611  0.00411948  1
  V  V20  1  0.24928414  0.47850104  0.73810396  1
  V  V21  1  0.88439516  0.73871247  0.62216657  1
  V  V22  1  0.38636188  0.73579498  0.13073307  1
  V  V23  1  0.62596157  0.34800179  0.25360026  1
  V  V24  1  0.62289051  0.00305136  0.60975268  1
  V  V25  1  0.49748419  0.87120827  0.87489006  1
  V  V26  1  0.37294345  0.62279031  0.74164833  1
  V  V27  1  0.64051952  0.23499665  0.88607626  1
  V  V28  1  0.36094369  0.37000382  0.50690326  1
  V  V29  1  0.88444109  0.09374702  0.26281020  1
  V  V30  1  0.49321528  0.74758564  0.73630076  1
  V  V31  1  0.86693026  0.50285269  0.89293097  1
  V  V32  1  0.62673683  0.49132987  0.61663759  1
  V  V33  1  0.12462450  0.47848168  0.61779750  1
  V  V34  1  0.85756281  0.39011748  0.50247998  1
  V  V35  1  0.10209374  0.35204167  0.24805639  1
  V  V36  1  0.45863501  0.91097133  0.39079628  1
  V  V37  1  0.87945662  0.86836323  0.00368754  1
  V  V38  1  0.37664739  0.24573306  0.13250504  1
  V  V39  1  0.00003789  0.09804976  0.11865232  1
  V  V40  1  0.50092616  0.49796558  0.02427467  1
  V  V41  1  0.07075151  0.29675585  0.88163888  1
  V  V42  1  0.11998051  0.73748732  0.85930496  1
  V  V43  1  0.50830270  0.13024952  0.14436021  1
  V  V44  1  0.27513000  0.73996865  0.50797862  1
  V  V45  1  0.74822594  0.86056842  0.62167707  1
  V  V46  1  0.87933227  0.25260202  0.14001124  1
  V  V47  1  0.26726626  0.87523812  0.63075322  1
  V  V48  1  0.24403727  0.01168730  0.26681126  1
  V  V49  1  0.62364806  0.87440157  0.74803232  1
  V  V50  1  0.49832083  0.24547615  0.75177081  1
  V  V51  1  0.62427387  0.73725635  0.87273745  1
  V  V52  1  0.37200609  0.00660641  0.86316600  1
  V  V53  1  0.24914661  0.47241809  0.24277336  1
  V  V54  1  0.63152332  0.37232546  0.76260325  1
  V  V55  1  0.60079009  0.81614211  0.33220254  1
  V  V56  1  0.88278087  0.13404440  0.73308780  1
  V  V57  1  0.12141932  0.62425762  0.50208472  1
  V  V58  1  0.39101810  0.49597617  0.37532826  1
  V  V59  1  0.12574150  0.88398441  0.73902463  1
  V  V60  1  0.12345820  0.62132499  0.00999713  1
  V  V61  1  0.24427608  0.12772848  0.87496532  1
  V  V62  1  0.74791258  0.36906891  0.12008317  1
  V  V63  1  0.25522401  0.61694760  0.36498751  1
  V  V64  1  0.74272219  0.87681744  0.12382645  1
  V  V65  1  0.61524031  0.62416992  0.01835179  1
  V  V66  1  0.74882077  0.74372833  -0.00380264  1
  V  V67  1  -0.01147965  0.64128131  0.13480836  1
  V  V68  1  0.63066543  0.62779510  0.49280324  1
  V  V69  1  0.24656885  0.61440633  0.87212767  1
  Zn  Zn70  1  0.74623393  0.74451694  0.47431842  1
  Zn  Zn71  1  0.86027669  0.67361860  0.25230450  1
  Zn  Zn72  1  0.11755338  0.13974259  -0.01025096  1
  Zn  Zn73  1  0.35509006  0.24643064  0.62736552  1
  Zn  Zn74  1  0.88037110  0.87300378  0.47128180  1
  Zn  Zn75  1  0.90880051  0.63648869  0.76067284  1
  Zn  Zn76  1  0.19094230  0.19203282  0.16902491  1
  Zn  Zn77  1  0.19387913  0.21952491  0.74450173  1
  Zn  Zn78  1  0.19408244  0.68928609  0.18916497  1
  Zn  Zn79  1  0.18981872  0.67691981  0.68043316  1
  Zn  Zn80  1  0.70367382  0.17382798  0.19373840  1
  Zn  Zn81  1  0.68460714  0.18162923  0.69319884  1
  Zn  Zn82  1  0.67626044  0.70140362  0.19015657  1
  Zn  Zn83  1  0.67839632  0.68395603  0.68101658  1
  Zn  Zn84  1  0.31850358  0.29709989  0.32056659  1
  Zn  Zn85  1  0.32561918  0.31041086  0.82031473  1
  Zn  Zn86  1  0.30498939  0.81284084  0.30890313  1
  Zn  Zn87  1  0.31057728  0.80887942  0.81393821  1
  Zn  Zn88  1  0.82029938  0.32546205  0.31163790  1
  Zn  Zn89  1  0.81713818  0.31651077  0.81642009  1
  Zn  Zn90  1  0.78824829  0.83197048  0.32175887  1
  Zn  Zn91  1  0.81130316  0.80262185  0.80851153  1
  Zn  Zn92  1  0.18450529  0.42503494  0.42165197  1
  Zn  Zn93  1  0.18592978  0.43289265  0.94167652  1
  Zn  Zn94  1  0.25003808  0.92284368  0.43297348  1
  Zn  Zn95  1  0.18889601  0.93043436  0.92304573  1
  Zn  Zn96  1  0.68626604  0.45007509  0.42358610  1
  Zn  Zn97  1  0.68210559  0.44105727  0.93870009  1
  Zn  Zn98  1  0.70453425  0.93637455  0.43251720  1
  Zn  Zn99  1  0.69107903  0.93414588  0.93505766  1
  Zn  Zn100  1  0.32390854  0.07169640  0.05403676  1
  Zn  Zn101  1  0.30874241  0.06207704  0.68835351  1
  Zn  Zn102  1  0.31320030  0.55862470  0.06566470  1
  Zn  Zn103  1  0.31257916  0.55151325  0.55479636  1
  Zn  Zn104  1  0.82222061  0.05991362  0.06299894  1
  Zn  Zn105  1  0.81102949  0.05393626  0.56372672  1
  Zn  Zn106  1  0.80896693  0.56890399  0.07684223  1
  Zn  Zn107  1  0.80629164  0.55863555  0.56094973  1
  Zn  Zn108  1  0.43899008  0.42551202  0.19688225  1
  Zn  Zn109  1  0.44417154  0.43145205  0.68668067  1
  Zn  Zn110  1  0.42312433  0.92976050  0.20787418  1
  Zn  Zn111  1  0.44446586  0.93664862  0.67849501  1
  Zn  Zn112  1  0.94041771  0.43823190  0.17698720  1
  Zn  Zn113  1  0.93681940  0.47598219  0.67920403  1
  Zn  Zn114  1  0.92014394  0.88131355  0.22792223  1
  Zn  Zn115  1  0.92895698  0.92147503  0.69234485  1
  Zn  Zn116  1  0.09585872  0.13951217  0.28728252  1
  Zn  Zn117  1  0.06057156  0.06378619  0.80570350  1
  Zn  Zn118  1  0.07365762  0.55954128  0.30451271  1
  Zn  Zn119  1  0.06201131  0.52654995  0.81735230  1
  Zn  Zn120  1  0.57433576  0.03336875  0.32697729  1
  Zn  Zn121  1  0.56375702  0.06668170  0.81061966  1
  Zn  Zn122  1  0.55390403  0.57559276  0.30115210  1
  Zn  Zn123  1  0.56149456  0.56242397  0.80641694  1
  Zn  Zn124  1  0.42268920  0.18637682  0.43430023  1
  Zn  Zn125  1  0.44176724  0.19092660  0.93096823  1
  Zn  Zn126  1  0.45300459  0.68607812  0.40268737  1
  Zn  Zn127  1  0.43633717  0.68303013  0.93648524  1
  Zn  Zn128  1  0.92490967  0.17967966  0.45260778  1
  Zn  Zn129  1  0.93155941  0.18815195  0.94315123  1
  Zn  Zn130  1  0.93643344  0.69119126  0.43337236  1
  Zn  Zn131  1  0.93638484  0.68020313  0.93787452  1
  Zn  Zn132  1  0.07076887  0.31222116  0.07071566  1
  Zn  Zn133  1  0.04496771  0.30254216  0.55320227  1
  Zn  Zn134  1  0.06325167  0.80749900  0.05226528  1
  Zn  Zn135  1  0.06845293  0.81069645  0.55859573  1
  Zn  Zn136  1  0.56411597  0.31317728  0.06242110  1
  Zn  Zn137  1  0.56461478  0.30968240  0.56672881  1
  Zn  Zn138  1  0.56063470  0.81411019  0.06458487  1
  Zn  Zn139  1  0.53934273  0.80288199  0.53094069  1
  O  O140  1  0.11894016  0.10926399  0.10790998  1
  O  O141  1  0.13947256  0.13865673  0.60667043  1
  O  O142  1  0.12604839  0.63157357  0.11259934  1
  O  O143  1  0.13409890  0.60868179  0.60505209  1
  O  O144  1  0.62222053  0.11661792  0.12221979  1
  O  O145  1  0.62316345  0.10741219  0.62536166  1
  O  O146  1  0.61277221  0.63395156  0.11662574  1
  O  O147  1  0.61284553  0.61338260  0.61846723  1
  O  O148  1  0.39358014  0.37489880  0.38686556  1
  O  O149  1  0.37723993  0.38382726  0.89009835  1
  O  O150  1  0.35582966  0.88702172  0.38622284  1
  O  O151  1  0.38354130  0.87999732  0.87712258  1
  O  O152  1  0.87066337  0.40633293  0.38267173  1
  O  O153  1  0.86922312  0.40437795  0.86774870  1
  O  O154  1  0.81005840  0.91696462  0.39505790  1
  O  O155  1  0.88220180  0.87253324  0.87385928  1
  O  O156  1  0.22831449  0.01047532  0.36759849  1
  O  O157  1  0.26848209  -0.00112119  0.87415671  1
  O  O158  1  0.25513910  0.50530091  0.36659302  1
  O  O159  1  0.25363304  0.50198719  0.86306839  1
  O  O160  1  0.72186320  0.07767172  0.41016371  1
  O  O161  1  0.76488995  -0.01406430  0.86310169  1
  O  O162  1  0.75914502  0.51184549  0.35304899  1
  O  O163  1  0.75097109  0.50499352  0.86987908  1
  O  O164  1  0.26599158  0.49437640  0.14535200  1
  O  O165  1  0.24352824  0.49269525  0.63064404  1
  O  O166  1  0.24409469  1.00444707  0.10738363  1
  O  O167  1  0.25813915  0.97540750  0.62795243  1
  O  O168  1  0.75766979  0.48633484  0.14278222  1
  O  O169  1  0.73156999  0.51014282  0.63999061  1
  O  O170  1  0.73804390  0.99352141  0.10219166  1
  O  O171  1  0.73931920  0.98495816  0.63236630  1
  O  O172  1  0.00262308  0.37467666  0.24726860  1
  O  O173  1  -0.01175098  0.36602385  0.73161042  1
  O  O174  1  0.03216199  0.87852307  0.25784404  1
  O  O175  1  0.01333738  0.86948828  0.74980495  1
  O  O176  1  0.51896704  0.36965485  0.26097755  1
  O  O177  1  0.51758040  0.35845874  0.73894695  1
  O  O178  1  0.48776926  0.88164265  0.28892226  1
  O  O179  1  0.50457425  0.86652758  0.75487315  1
  O  O180  1  0.51228643  0.11677802  0.24159098  1
  O  O181  1  0.50885460  0.13755388  0.73851579  1
  O  O182  1  0.47852492  0.65436299  0.29498526  1
  O  O183  1  0.49213042  0.62993581  0.73956712  1
  O  O184  1  1.00054851  0.11824158  0.22900802  1
  O  O185  1  0.98318907  0.11621352  0.74398533  1
  O  O186  1  1.01337522  0.62451663  0.23254681  1
  O  O187  1  0.99143928  0.56475599  0.73738488  1
  O  O188  1  0.38611360  0.26573372  -0.00305216  1
  O  O189  1  0.38105287  0.26562525  0.51374418  1
  O  O190  1  0.37109524  0.75471961  0.00313259  1
  O  O191  1  0.37225385  0.73460328  0.48885123  1
  O  O192  1  0.84492549  0.21757319  0.02039681  1
  O  O193  1  0.84329638  0.27913090  0.46790162  1
  O  O194  1  0.86311340  0.75824065  -0.00915172  1
  O  O195  1  0.86355930  0.75611075  0.50012626  1
  O  O196  1  0.13884336  0.25691099  0.48641967  1
  O  O197  1  0.11082478  0.25850859  0.97360452  1
  O  O198  1  0.13524680  0.73402416  0.49548468  1
  O  O199  1  0.13375255  0.74004600  0.98379880  1
  O  O200  1  0.67331795  0.25179286  0.53571675  1
  O  O201  1  0.61697229  0.25306873  0.98290594  1
  O  O202  1  0.62656525  0.73096767  0.51615133  1
  O  O203  1  0.62460264  0.74023178  0.99234662  1
  O  O204  1  0.50332469  0.23431070  0.12299903  1
  O  O205  1  0.51219749  0.23402625  0.63278868  1
  O  O206  1  0.48574482  0.75436633  0.12146206  1
  O  O207  1  0.50044988  0.74176314  0.63228336  1
  O  O208  1  0.97694716  0.25209993  0.11058511  1
  O  O209  1  0.99631339  0.30577536  0.68846172  1
  O  O210  1  1.00384380  0.74173326  0.12324483  1
  O  O211  1  0.98295989  0.75164883  0.60973078  1
  O  O212  1  0.10038588  0.21583076  0.43049292  1
  O  O213  1  -0.03003200  0.27848521  0.88783037  1
  O  O214  1  0.02417074  0.75081955  0.38341285  1
  O  O215  1  0.00753151  0.75312037  0.87477876  1
  O  O216  1  0.50595123  0.25398441  0.37898865  1
  O  O217  1  0.51223744  0.24352403  0.85651933  1
  O  O218  1  0.52711093  0.77846557  0.39551910  1
  O  O219  1  0.50303121  0.75512812  0.86538563  1
  O  O220  1  0.21007254  0.15663633  0.59222790  1
  O  O221  1  0.25182022  0.12347170  0.98044022  1
  O  O222  1  0.24629692  0.62645583  0.49170778  1
  O  O223  1  0.24448127  0.62301639  0.98930052  1
  O  O224  1  0.75649541  0.11598526  0.47433550  1
  O  O225  1  0.78647099  0.16128039  1.01385148  1
  O  O226  1  0.73675070  0.62566779  0.49741619  1
  O  O227  1  0.73224647  0.63368301  1.01226105  1
  O  O228  1  0.26803813  0.38378628  0.00367799  1
  O  O229  1  0.26210846  0.37269313  0.48985358  1
  O  O230  1  0.26213132  0.85901975  -0.01854216  1
  O  O231  1  0.25417744  0.85156104  0.52039688  1
  O  O232  1  0.73607285  0.38255600  0.02202535  1
  O  O233  1  0.75985302  0.41289510  0.50338942  1
  O  O234  1  0.75869850  0.86419661  -0.00120893  1
  O  O235  1  0.73048506  0.86175964  0.52145929  1
  O  O236  1  0.14479560  0.48512643  0.25351531  1
  O  O237  1  0.13899427  0.49026747  0.73107151  1
  O  O238  1  0.13582376  0.98693261  0.21958242  1
  O  O239  1  0.12619814  0.98282612  0.74735550  1
  O  O240  1  0.63172868  0.51132477  0.24872144  1
  O  O241  1  0.62833329  0.48983837  0.74783959  1
  O  O242  1  0.63017436  1.00203095  0.22670532  1
  O  O243  1  0.63137021  0.98871238  0.75144698  1
  O  O244  1  0.34327616  0.00436400  0.24255555  1
  O  O245  1  0.38388269  -0.00187892  0.76011449  1
  O  O246  1  0.36698689  0.48294954  0.26979077  1
  O  O247  1  0.36750013  0.50028028  0.75457625  1
  O  O248  1  0.89199373  -0.00651310  0.25281195  1
  O  O249  1  0.86825027  -0.00114813  0.75452186  1
  O  O250  1  0.87382309  0.50197906  0.25344718  1
  O  O251  1  0.84748430  0.50471066  0.74823358  1
  O  O252  1  0.12693637  0.36154492  0.35053797  1
  O  O253  1  0.10252426  0.39595355  0.87201244  1
  O  O254  1  0.14351707  0.85732674  0.39597026  1
  O  O255  1  0.11929846  0.85986308  0.85808406  1
  O  O256  1  0.62080843  0.37541252  0.36596896  1
  O  O257  1  0.62168381  0.37168894  0.86517238  1
  O  O258  1  0.61828452  0.91906424  0.35909519  1
  O  O259  1  0.61486052  0.86589618  0.86690719  1
  O  O260  1  0.39870617  0.13184000  0.11912504  1
  O  O261  1  0.38929396  0.12385924  0.62979478  1
  O  O262  1  0.37695112  0.63597007  0.12077747  1
  O  O263  1  0.38068067  0.60833286  0.63443563  1
  O  O264  1  0.88970569  0.12064713  0.13750993  1
  O  O265  1  0.86582570  0.12560995  0.63293401  1
  O  O266  1  0.88252833  0.63809218  0.13784745  1
  O  O267  1  0.87029088  0.63734447  0.61708224  1
  O  O268  1  0.27736769  0.23370614  0.11368451  1
  O  O269  1  0.23712386  0.23605123  0.63912568  1
  O  O270  1  0.25625614  0.74392901  0.10494475  1
  O  O271  1  0.25987246  0.73864136  0.61253707  1
  O  O272  1  0.75831542  0.26166832  0.13574642  1
  O  O273  1  0.72471653  0.24428647  0.59144352  1
  O  O274  1  0.73804478  0.76718477  0.11030547  1
  O  O275  1  0.75156937  0.75593923  0.63074897  1
  O  O276  1  0.32946369  0.20124860  0.37306661  1
  O  O277  1  0.25376189  0.23167451  0.86056448  1
  O  O278  1  0.24976937  0.73479692  0.38600269  1
  O  O279  1  0.24412659  0.73105907  0.87709262  1
  O  O280  1  0.78434968  0.27117073  0.41108991  1
  O  O281  1  0.73890966  0.25740606  0.87680918  1
  O  O282  1  0.69458854  0.77874251  0.37061282  1
  O  O283  1  0.73544217  0.75441083  0.88324970  1
  O  O284  1  -0.00262367  0.12457806  0.01335835  1
  O  O285  1  -0.02227905  0.21547103  0.53944102  1
  O  O286  1  0.00755164  0.62608297  0.01286861  1
  O  O287  1  0.01826646  0.61795858  0.49031473  1
  O  O288  1  0.50109362  0.11191721  -0.00729436  1
  O  O289  1  0.49455059  0.13364556  0.51218982  1
  O  O290  1  0.50664925  0.61494282  -0.00130540  1
  O  O291  1  0.50260063  0.62980729  0.50907349  1
  O  O292  1  0.51239593  0.37100114  0.48685870  1
  O  O293  1  0.49977173  0.39484945  1.00500135  1
  O  O294  1  0.48725356  0.89209430  0.48991777  1
  O  O295  1  0.49381811  0.87947524  0.98783475  1
  O  O296  1  0.99509697  0.38998553  0.48409715  1
  O  O297  1  1.00025804  0.39348731  1.01792614  1
  O  O298  1  0.99327645  0.89276392  0.51257555  1
  O  O299  1  0.98467409  0.86547953  0.98707848  1
  O  O300  1  0.49167674  0.49434159  0.36903978  1
  O  O301  1  0.48907625  0.50377099  0.87322041  1
  O  O302  1  0.47497229  1.01169857  0.38189130  1
  O  O303  1  0.49463883  0.99224437  0.87819261  1
  O  O304  1  0.99365092  0.50991263  0.37595486  1
  O  O305  1  0.98258566  0.50684021  0.90064185  1
  O  O306  1  1.05425568  1.02882022  0.42382179  1
  O  O307  1  0.98754655  0.98035934  0.86537243  1
  O  O308  1  0.00867300  -0.00030764  0.11576392  1
  O  O309  1  -0.02925134  -0.03757459  0.55938258  1
  O  O310  1  -0.01237318  0.52074392  0.11191159  1
  O  O311  1  0.01994785  0.49748356  0.59836305  1
  O  O312  1  0.51291058  0.00995523  0.11071110  1
  O  O313  1  0.51262259  0.00971089  0.62586267  1
  O  O314  1  0.49298651  0.50182179  0.12302155  1
  O  O315  1  0.51364118  0.50748384  0.63166458  1
  O  O316  1  0.25709177  0.37082817  0.25739142  1
  O  O317  1  0.25786017  0.37987798  0.75112343  1
  O  O318  1  0.23221302  0.89166438  0.26084159  1
  O  O319  1  0.23686345  0.85862402  0.74133647  1
  O  O320  1  0.73503378  0.38552504  0.25063366  1
  O  O321  1  0.73455225  0.38257612  0.75098648  1
  O  O322  1  0.75001120  0.88385767  0.22137426  1
  O  O323  1  0.73993716  0.87635632  0.74319333  1
  O  O324  1  0.21224658  0.11153382  0.25083487  1
  O  O325  1  0.24328601  0.11319383  0.76401584  1
  O  O326  1  0.24919387  0.61860667  0.26303714  1
  O  O327  1  0.25672664  0.61071302  0.75359571  1
  O  O328  1  0.78354317  0.11390167  0.24925473  1
  O  O329  1  0.75806092  0.10784241  0.74568053  1
  O  O330  1  0.74911905  0.62262175  0.23364831  1
  O  O331  1  0.73459511  0.61847156  0.75695231  1
  O  O332  1  0.34752806  0.07174089  0.44807308  1
  O  O333  1  0.37065255  0.11134421  0.87591635  1
  O  O334  1  0.36334984  0.60541810  0.38378124  1
  O  O335  1  0.36627503  0.61343917  0.86595812  1
  O  O336  1  0.90671245  0.12197686  0.36089973  1
  O  O337  1  0.88195055  0.10394637  0.87065892  1
  O  O338  1  0.87906973  0.62095809  0.36069629  1
  O  O339  1  0.87334492  0.61300231  0.86936931  1
  O  O340  1  0.13065471  0.36922131  0.14674713  1
  O  O341  1  0.12213855  0.37920832  0.60624574  1
  O  O342  1  0.12865747  0.87598553  0.12075892  1
  O  O343  1  0.13403707  0.86445213  0.63577064  1
  O  O344  1  0.63419791  0.36513512  0.14349316  1
  O  O345  1  0.62413497  0.38866680  0.63008527  1
  O  O346  1  0.63375251  0.89063360  0.10903212  1
  O  O347  1  0.62564099  0.88153514  0.63743188  1
  O  O348  1  0.11323320  0.24537590  0.23652766  1
  O  O349  1  0.09976804  0.24739127  0.79707570  1
  O  O350  1  0.14252127  0.76429554  0.26266603  1
  O  O351  1  0.12640081  0.73656685  0.75691976  1
  O  O352  1  0.63813049  0.24971184  0.25862004  1
  O  O353  1  0.62663224  0.25839659  0.75680387  1
  O  O354  1  0.60805816  0.77744819  0.23823636  1
  O  O355  1  0.61349006  0.75475075  0.75408047  1
  O  O356  1  0.38562451  0.25853602  0.23008844  1
  O  O357  1  0.39340196  0.25835645  0.74148010  1
  O  O358  1  0.35934545  0.76019511  0.22633969  1
  O  O359  1  0.38185146  0.73303431  0.75761672  1
  O  O360  1  0.87858952  0.24898526  0.24238160  1
  O  O361  1  0.86368445  0.23110353  0.75528262  1
  O  O362  1  0.87651124  0.78380869  0.27248827  1
  O  O363  1  0.87667629  0.74441445  0.73289304  1
  O  O364  1  0.37597322  0.48441353  0.48572337  1
  O  O365  1  0.38746873  0.49497474  0.99562806  1
  O  O366  1  0.32914091  1.02574447  0.50234494  1
  O  O367  1  0.38936441  0.99263272  0.98819646  1
  O  O368  1  0.89054269  0.50815398  0.49042546  1
  O  O369  1  0.87280496  0.50791819  0.99817473  1
  O  O370  1  0.90221577  0.99048086  0.51701456  1
  O  O371  1  0.86843038  0.98259926  0.98219622  1
  O  O372  1  0.12482345  -0.01781432  0.00206370  1
  O  O373  1  0.09001775  0.03942116  0.48650063  1
  O  O374  1  0.11133769  0.50882277  -0.00178608  1
  O  O375  1  0.12275384  0.50226576  0.49436194  1
  O  O376  1  0.61168036  -0.00390827  -0.00754036  1
  O  O377  1  0.63353423  -0.00631624  0.51229838  1
  O  O378  1  0.61264693  0.51387285  0.00241560  1
  O  O379  1  0.62790032  0.50761794  0.51221600  1
  O  O380  1  0.38874259  0.36024833  0.11251203  1
  O  O381  1  0.37480017  0.38108323  0.61100631  1
  O  O382  1  0.38059891  0.87788730  0.10916494  1
  O  O383  1  0.36701154  0.86242072  0.64233627  1
  O  O384  1  0.86158374  0.36304901  0.12928837  1
  O  O385  1  0.88429548  0.39549892  0.60022163  1
  O  O386  1  0.86486153  0.88014261  0.10687078  1
  O  O387  1  0.85671667  0.86289234  0.62419931  1
  O  O388  1  0.14715961  0.16443594  0.39206495  1
  O  O389  1  0.13796822  0.10468226  0.87944579  1
  O  O390  1  0.14032301  0.62713332  0.38170170  1
  O  O391  1  0.13044846  0.61938353  0.87855585  1
  O  O392  1  0.65509208  0.11237006  0.38322000  1
  O  O393  1  0.63354883  0.13365760  0.87127581  1
  O  O394  1  0.61527608  0.61638709  0.39493851  1
  O  O395  1  0.61537817  0.63480705  0.88047878  1
