# generated using pymatgen
data_V35Zn35O128
_symmetry_space_group_name_H-M   'P 1'
_cell_length_a   16.89464736
_cell_length_b   16.87854634
_cell_length_c   16.93971219
_cell_angle_alpha   90.23636278
_cell_angle_beta   89.95393954
_cell_angle_gamma   90.02149220
_symmetry_Int_Tables_number   1
_chemical_formula_structural   V35Zn35O128
_chemical_formula_sum   'V70 Zn70 O256'
_cell_volume   4830.43600835
_cell_formula_units_Z   2
loop_
 _symmetry_equiv_pos_site_id
 _symmetry_equiv_pos_as_xyz
  1  'x, y, z'
loop_
 _atom_site_type_symbol
 _atom_site_label
 _atom_site_symmetry_multiplicity
 _atom_site_fract_x
 _atom_site_fract_y
 _atom_site_fract_z
 _atom_site_occupancy
  V  V0  1  0.51658528  0.86379426  0.36623008  1
  V  V1  1  0.49949114  0.23922180  0.25385994  1
  V  V2  1  0.13179132  0.37453966  0.74991497  1
  V  V3  1  0.12983022  0.00365740  0.12910066  1
  V  V4  1  0.74997971  0.14428489  0.38248533  1
  V  V5  1  0.39769119  0.62939782  0.26421368  1
  V  V6  1  0.25362264  0.51467850  0.76008519  1
  V  V7  1  0.24988848  0.88054936  0.62203482  1
  V  V8  1  0.37726440  0.21836321  0.13567970  1
  V  V9  1  0.86567584  0.61543135  0.25205252  1
  V  V10  1  -0.00441337  0.63037922  0.11283849  1
  V  V11  1  0.36356581  0.37955032  0.48786255  1
  V  V12  1  0.74272357  0.73129893  0.01679993  1
  V  V13  1  0.86580484  0.61567935  0.75210862  1
  V  V14  1  0.87779252  0.00554405  0.38943867  1
  V  V15  1  0.24933799  0.74569227  0.48018405  1
  V  V16  1  0.63768764  0.74538998  0.86315415  1
  V  V17  1  0.00233108  0.38306788  0.88910592  1
  V  V18  1  0.49996183  0.38255764  0.36906686  1
  V  V19  1  0.12775417  0.63010457  0.48285463  1
  V  V20  1  0.25006256  0.51597645  0.26825066  1
  V  V21  1  0.49488150  0.13208064  0.61750284  1
  V  V22  1  0.38946427  0.50761027  0.87661637  1
  V  V23  1  0.62750220  0.50405191  0.12136860  1
  V  V24  1  0.88600829  0.13858970  0.25553524  1
  V  V25  1  0.12683957  0.24710115  0.38756432  1
  V  V26  1  0.50462865  0.00317929  0.00536440  1
  V  V27  1  0.64337987  0.73954518  0.38666453  1
  V  V28  1  0.24577709  0.12716052  0.87683083  1
  V  V29  1  0.87084513  0.50216295  0.88792774  1
  V  V30  1  -0.00675628  0.11581673  0.61892509  1
  V  V31  1  0.74379352  -0.00692097  0.25431259  1
  V  V32  1  -0.00774743  0.25196100  0.73980674  1
  V  V33  1  0.26267450  0.39489179  0.11894704  1
  V  V34  1  0.50148580  0.88404243  0.85851021  1
  V  V35  1  0.37509359  0.13117566  0.74171228  1
  V  V36  1  -0.00154973  0.49462945  0.48118051  1
  V  V37  1  0.88164889  0.24895512  0.11339516  1
  V  V38  1  0.75598000  0.36868878  0.10299163  1
  V  V39  1  0.12162504  0.87720905  0.74281562  1
  V  V40  1  0.50707534  0.50631796  0.50940093  1
  V  V41  1  0.12430486  0.24569934  0.88250561  1
  V  V42  1  0.64173806  0.37555874  0.25674440  1
  V  V43  1  -0.00624719  0.88181058  0.87498108  1
  V  V44  1  0.86088155  0.36846153  0.50284966  1
  V  V45  1  0.86164778  0.88466141  0.50864715  1
  V  V46  1  0.00469865  0.75098595  0.75145024  1
  V  V47  1  0.37721867  0.73981339  0.62409930  1
  V  V48  1  0.13180853  0.10226826  0.50670360  1
  V  V49  1  0.49503647  0.00066067  0.49262557  1
  V  V50  1  0.24762567  0.23970784  0.01181307  1
  V  V51  1  0.64002916  0.88571300  0.73273430  1
  V  V52  1  0.75676405  0.60295149  0.39506527  1
  V  V53  1  0.64092953  0.49594466  0.64028028  1
  V  V54  1  0.13018797  0.50373958  0.62403521  1
  V  V55  1  0.35918484  0.24638050  0.60917644  1
  V  V56  1  0.50036174  0.74587774  0.73758459  1
  V  V57  1  0.86294984  0.74866539  0.61730129  1
  V  V58  1  0.87138285  0.01311563  0.84768325  1
  V  V59  1  0.37807984  0.87880010  0.49059621  1
  V  V60  1  0.64105487  0.00713573  0.61721697  1
  V  V61  1  0.35372465  0.72793893  0.12024913  1
  V  V62  1  0.11598345  0.37035076  0.24217491  1
  V  V63  1  0.00563803  0.62594279  0.62428564  1
  V  V64  1  -0.00029231  0.86410947  0.38485147  1
  V  V65  1  0.24400990  0.00258258  0.73914393  1
  V  V66  1  0.62896217  0.14456259  0.49810131  1
  V  V67  1  0.37526065  -0.00082192  0.87258280  1
  V  V68  1  -0.00357322  0.75453347  0.24798658  1
  V  V69  1  0.65199163  0.11842961  0.03237678  1
  Zn  Zn70  1  0.12024806  0.51261444  0.11373821  1
  Zn  Zn71  1  0.24765403  0.37409668  0.61964530  1
  Zn  Zn72  1  0.51257846  0.47622040  0.00067439  1
  Zn  Zn73  1  0.81023076  0.21095702  0.57071325  1
  Zn  Zn74  1  0.41910825  0.33736611  -0.02717650  1
  Zn  Zn75  1  0.58478760  0.27050938  0.90446514  1
  Zn  Zn76  1  0.20519473  0.18807872  0.22307043  1
  Zn  Zn77  1  0.18142193  0.18631864  0.68583907  1
  Zn  Zn78  1  0.17742628  0.69731282  0.19107287  1
  Zn  Zn79  1  0.18992062  0.69324000  0.68707649  1
  Zn  Zn80  1  0.69514981  0.19322320  0.19860057  1
  Zn  Zn81  1  0.69326670  0.30382653  0.68038129  1
  Zn  Zn82  1  0.68680588  0.69164945  0.20217743  1
  Zn  Zn83  1  0.68255503  0.68003178  0.67850331  1
  Zn  Zn84  1  0.30511233  0.31337158  0.30654594  1
  Zn  Zn85  1  0.39910404  0.30871375  0.81316996  1
  Zn  Zn86  1  0.34169301  0.83565527  0.28373677  1
  Zn  Zn87  1  0.31407970  0.81462309  0.80407604  1
  Zn  Zn88  1  0.83202452  0.32409203  0.32368136  1
  Zn  Zn89  1  0.81587246  0.31034475  0.82997842  1
  Zn  Zn90  1  0.81471010  0.80213383  0.32273275  1
  Zn  Zn91  1  0.81855439  0.81576761  0.79865105  1
  Zn  Zn92  1  0.17470710  0.43633511  0.43013855  1
  Zn  Zn93  1  0.23977572  0.39354683  0.90547760  1
  Zn  Zn94  1  0.17516531  0.92428856  0.44801407  1
  Zn  Zn95  1  0.18265006  0.93610415  0.92765853  1
  Zn  Zn96  1  0.68509984  0.42821909  0.44506652  1
  Zn  Zn97  1  0.69013628  0.44054697  0.93380846  1
  Zn  Zn98  1  0.69047425  0.94109949  0.43766690  1
  Zn  Zn99  1  0.68304527  0.95652793  0.91692968  1
  Zn  Zn100  1  0.32022548  0.02785550  0.20298011  1
  Zn  Zn101  1  0.31243057  0.07251501  0.43769264  1
  Zn  Zn102  1  0.33862736  0.56480696  0.05982587  1
  Zn  Zn103  1  0.31176739  0.56174189  0.55357828  1
  Zn  Zn104  1  0.83633424  0.04017321  0.08202031  1
  Zn  Zn105  1  0.79984691  0.10423717  0.68990752  1
  Zn  Zn106  1  0.81180921  0.56045856  0.07232717  1
  Zn  Zn107  1  0.81677673  0.54843460  0.57193545  1
  Zn  Zn108  1  0.43746225  0.45052857  0.19089973  1
  Zn  Zn109  1  0.42638645  0.44402189  0.67736511  1
  Zn  Zn110  1  0.45691820  0.88867585  0.16345179  1
  Zn  Zn111  1  0.43641588  0.94124474  0.67760143  1
  Zn  Zn112  1  0.93470123  0.44465379  0.17571288  1
  Zn  Zn113  1  0.94090117  0.43365933  0.68494391  1
  Zn  Zn114  1  0.88845110  0.91918605  0.21600493  1
  Zn  Zn115  1  0.92633191  0.94105088  0.68646928  1
  Zn  Zn116  1  0.05900621  0.06228064  0.32498253  1
  Zn  Zn117  1  0.05817285  0.06502398  0.80337194  1
  Zn  Zn118  1  0.06123728  0.56434991  0.29578576  1
  Zn  Zn119  1  0.06227145  0.56244885  0.81487052  1
  Zn  Zn120  1  0.56488603  0.05883319  0.31708107  1
  Zn  Zn121  1  0.56504016  0.07102144  0.79840885  1
  Zn  Zn122  1  0.57807026  0.55765417  0.31837587  1
  Zn  Zn123  1  0.56561312  0.56241537  0.80219846  1
  Zn  Zn124  1  0.43532473  0.19050538  0.42746129  1
  Zn  Zn125  1  0.43036479  0.16898534  0.94609806  1
  Zn  Zn126  1  0.44215063  0.68812090  0.43845771  1
  Zn  Zn127  1  0.30277766  0.68559971  0.91673031  1
  Zn  Zn128  1  0.95072401  0.19608756  0.43664088  1
  Zn  Zn129  1  0.92616340  0.19779360  0.92500272  1
  Zn  Zn130  1  0.93281654  0.68151406  0.43673761  1
  Zn  Zn131  1  0.91535196  0.70280306  0.93573120  1
  Zn  Zn132  1  0.07069445  0.31263264  0.07202316  1
  Zn  Zn133  1  0.06375450  0.31373937  0.56000783  1
  Zn  Zn134  1  -0.02407423  0.85925814  0.08513272  1
  Zn  Zn135  1  0.06087933  0.81272662  0.56022088  1
  Zn  Zn136  1  0.57250773  0.29766462  0.07732714  1
  Zn  Zn137  1  0.55163574  0.32303852  0.56360074  1
  Zn  Zn138  1  0.53251006  0.78938332  0.02578199  1
  Zn  Zn139  1  0.56886268  0.81247726  0.55611725  1
  O  O140  1  0.16059410  0.10680371  0.14067610  1
  O  O141  1  0.11431263  0.13165899  0.61197444  1
  O  O142  1  0.10300435  0.63555190  0.12408721  1
  O  O143  1  0.12186168  0.62211354  0.61711149  1
  O  O144  1  0.63409904  0.12144763  0.13043320  1
  O  O145  1  0.61181243  0.11721537  0.61018658  1
  O  O146  1  0.63891031  0.60065947  0.14176188  1
  O  O147  1  0.62706619  0.59856848  0.62765712  1
  O  O148  1  0.37731086  0.37128423  0.38236872  1
  O  O149  1  0.35872458  0.38773952  0.88462545  1
  O  O150  1  0.39392247  0.86304850  0.38712187  1
  O  O151  1  0.39358109  0.88555089  0.85384855  1
  O  O152  1  0.88310158  0.38268371  0.40157554  1
  O  O153  1  0.89210863  0.38480170  0.87628528  1
  O  O154  1  0.87526579  0.88218534  0.39535929  1
  O  O155  1  0.88960711  0.89070250  0.84562300  1
  O  O156  1  0.24431294  -0.03654342  0.35577083  1
  O  O157  1  0.25517208  0.00382746  0.86465209  1
  O  O158  1  0.24503637  0.50418679  0.36656494  1
  O  O159  1  0.25153775  0.50285511  0.86351544  1
  O  O160  1  0.76216665  0.01227429  0.38131414  1
  O  O161  1  0.78709309  -0.00954869  0.90181716  1
  O  O162  1  0.74372422  0.50417896  0.38108355  1
  O  O163  1  0.77267684  0.49034924  0.87134813  1
  O  O164  1  0.25242695  0.49777773  0.10624014  1
  O  O165  1  0.24191438  0.50172403  0.63115283  1
  O  O166  1  0.23157785  0.97277510  0.14408288  1
  O  O167  1  0.25713528  0.98702041  0.63201754  1
  O  O168  1  0.74511666  0.47790867  0.12169408  1
  O  O169  1  0.74245657  0.48853493  0.63090276  1
  O  O170  1  0.75303951  1.00753445  0.15640807  1
  O  O171  1  0.73788503  1.02106144  0.61968842  1
  O  O172  1  0.01852277  0.39091446  0.23557283  1
  O  O173  1  0.01399874  0.36883001  0.75539425  1
  O  O174  1  -0.02574071  0.86238582  0.26990733  1
  O  O175  1  0.00766805  0.86931069  0.73933267  1
  O  O176  1  0.49502313  0.37663252  0.26302579  1
  O  O177  1  0.49424553  0.37274021  0.75731095  1
  O  O178  1  0.51013496  0.87454697  0.26838530  1
  O  O179  1  0.51135035  0.87760752  0.74404559  1
  O  O180  1  0.51088024  0.14096940  0.26045426  1
  O  O181  1  0.48409703  0.11916797  0.73129733  1
  O  O182  1  0.49639325  0.61410160  0.26164404  1
  O  O183  1  0.50532938  0.64815892  0.74672798  1
  O  O184  1  0.98420190  0.12713365  0.26488218  1
  O  O185  1  1.00848900  0.14422759  0.73590257  1
  O  O186  1  0.99021627  0.63693467  0.24127650  1
  O  O187  1  1.00370296  0.63391002  0.74196240  1
  O  O188  1  0.36864131  0.24031856  0.02186768  1
  O  O189  1  0.37113118  0.26002369  0.50321896  1
  O  O190  1  0.32722853  0.67869813  0.02553732  1
  O  O191  1  0.36616405  0.75472668  0.50828581  1
  O  O192  1  0.86884929  0.23762961  0.01401842  1
  O  O193  1  0.88090188  0.26144964  0.50005174  1
  O  O194  1  0.83298783  0.76845858  -0.01677064  1
  O  O195  1  0.87717817  0.75013637  0.51519462  1
  O  O196  1  0.13801143  0.26073235  0.48790811  1
  O  O197  1  0.13138053  0.24690159  0.99333974  1
  O  O198  1  0.14188680  0.74556709  0.50383333  1
  O  O199  1  0.15409595  0.78886174  1.01700571  1
  O  O200  1  0.61427611  0.24161611  0.50276024  1
  O  O201  1  0.62483322  0.21784911  1.00414257  1
  O  O202  1  0.62105640  0.74165309  0.48961523  1
  O  O203  1  0.64109909  0.76614194  0.97232883  1
  O  O204  1  0.48474682  0.24860465  0.13927241  1
  O  O205  1  0.48442455  0.23820248  0.61186457  1
  O  O206  1  0.52388283  0.66621150  0.04590067  1
  O  O207  1  0.48979989  0.75787393  0.62741484  1
  O  O208  1  0.98144012  0.25935529  0.12009290  1
  O  O209  1  1.00334249  0.25522747  0.63750478  1
  O  O210  1  0.98700095  0.75846012  0.14121864  1
  O  O211  1  0.99737941  0.73918479  0.62994789  1
  O  O212  1  0.02652356  0.25023295  0.36923880  1
  O  O213  1  0.00744850  0.26045706  0.86833152  1
  O  O214  1  -0.00789770  0.75806983  0.37388050  1
  O  O215  1  -0.01482518  0.76677149  0.85775606  1
  O  O216  1  0.49424622  0.26483874  0.36068831  1
  O  O217  1  0.47301048  0.25177296  0.88207088  1
  O  O218  1  0.51072227  0.76036160  0.38299505  1
  O  O219  1  0.51657452  0.77256892  0.85197459  1
  O  O220  1  0.23330188  0.11017915  0.50454833  1
  O  O221  1  0.25704590  0.13189429  0.98193192  1
  O  O222  1  0.24507860  0.63811740  0.49833774  1
  O  O223  1  0.14523088  0.60109499  0.96345616  1
  O  O224  1  0.73799817  0.13952538  0.49729548  1
  O  O225  1  0.75048922  0.10385828  1.02135632  1
  O  O226  1  0.76364952  0.61373644  0.49418726  1
  O  O227  1  0.74809599  0.63163342  1.00684877  1
  O  O228  1  0.24894010  0.35403099  0.01589475  1
  O  O229  1  0.26060593  0.38563619  0.49628915  1
  O  O230  1  0.21082532  0.82653839  -0.01249285  1
  O  O231  1  0.25611838  0.86381449  0.50385667  1
  O  O232  1  0.74882121  0.36356952  0.00440377  1
  O  O233  1  0.75918962  0.36792009  0.50460196  1
  O  O234  1  0.64537081  0.88701168  0.12140259  1
  O  O235  1  0.76215323  0.87649957  0.50510097  1
  O  O236  1  0.13979309  0.49619454  0.24107920  1
  O  O237  1  0.13326232  0.49809191  0.74379595  1
  O  O238  1  0.10453727  1.00849554  0.22998190  1
  O  O239  1  0.13620421  0.99516252  0.74744480  1
  O  O240  1  0.62379360  0.47955055  0.24178174  1
  O  O241  1  0.62299216  0.48931717  0.74082304  1
  O  O242  1  0.64405475  0.99359357  0.27042136  1
  O  O243  1  0.62591208  0.99825705  0.72973342  1
  O  O244  1  0.36747651  -0.07042399  0.21892260  1
  O  O245  1  0.36426780  0.00939369  0.74967285  1
  O  O246  1  0.36059365  0.51648591  0.24994628  1
  O  O247  1  0.36054232  0.49297361  0.75644819  1
  O  O248  1  0.86450451  0.02290994  0.27154983  1
  O  O249  1  0.84994164  0.01348227  0.74444555  1
  O  O250  1  0.88350595  0.51469993  0.25151030  1
  O  O251  1  0.88532299  0.51315932  0.74966027  1
  O  O252  1  0.13526198  0.36241821  0.35124087  1
  O  O253  1  0.12282221  0.36549016  0.86941698  1
  O  O254  1  0.09838085  0.87827491  0.37969002  1
  O  O255  1  0.10603426  0.88792978  0.85586511  1
  O  O256  1  0.61174531  0.37410242  0.36501866  1
  O  O257  1  0.65292184  0.35639252  0.85671242  1
  O  O258  1  0.62190159  0.86295807  0.38801906  1
  O  O259  1  0.62288751  0.88550235  0.84695829  1
  O  O260  1  0.37377944  0.11988082  0.14076760  1
  O  O261  1  0.37547487  0.13698077  0.62275787  1
  O  O262  1  0.38067266  0.62687021  0.14823533  1
  O  O263  1  0.37105399  0.64121673  0.61891198  1
  O  O264  1  0.87025318  0.13903789  0.14722030  1
  O  O265  1  0.89120729  0.13392505  0.61991961  1
  O  O266  1  0.87997423  0.62522064  0.14079597  1
  O  O267  1  0.88628916  0.62981532  0.63292333  1
  O  O268  1  0.26546100  0.24482372  0.12886926  1
  O  O269  1  0.25639513  0.25078024  0.62094381  1
  O  O270  1  0.26168376  0.76339724  0.14596708  1
  O  O271  1  0.26537630  0.76162043  0.62837350  1
  O  O272  1  0.75962529  0.26408380  0.13390456  1
  O  O273  1  0.75076130  0.20863411  0.66720308  1
  O  O274  1  0.73277800  0.75092758  0.11504632  1
  O  O275  1  0.76475884  0.74343955  0.62874494  1
  O  O276  1  0.22381571  0.23666820  0.33538442  1
  O  O277  1  0.24084678  0.24552932  0.88784406  1
  O  O278  1  0.25514534  0.75620444  0.38503912  1
  O  O279  1  0.24383394  0.75978924  0.86650625  1
  O  O280  1  0.75340489  0.24173720  0.37508005  1
  O  O281  1  0.74989239  0.20922013  0.88133344  1
  O  O282  1  0.74785647  0.73901635  0.38977394  1
  O  O283  1  0.73671227  0.75622594  0.84944061  1
  O  O284  1  -0.01174460  0.12001996  0.00274262  1
  O  O285  1  0.00932776  0.13000472  0.51354270  1
  O  O286  1  -0.02002431  0.65531806  0.01710367  1
  O  O287  1  0.00835555  0.61905583  0.50777283  1
  O  O288  1  0.49956730  0.10556339  0.00863485  1
  O  O289  1  0.50769572  0.12007766  0.49724651  1
  O  O290  1  0.51953307  0.62147243  -0.01412763  1
  O  O291  1  0.49309606  0.60452735  0.49648594  1
  O  O292  1  0.48656006  0.37754006  0.48489922  1
  O  O293  1  0.52896963  0.36020887  0.99062363  1
  O  O294  1  0.49298604  0.88413355  0.50080456  1
  O  O295  1  0.51637597  0.88814801  0.96479299  1
  O  O296  1  1.01656156  0.39521769  0.49662315  1
  O  O297  1  1.01291123  0.37536516  0.98644938  1
  O  O298  1  0.98612580  0.86598463  0.49253057  1
  O  O299  1  0.99604851  0.87437104  0.97341182  1
  O  O300  1  0.50485484  0.48670455  0.38582733  1
  O  O301  1  0.49110564  0.49926031  0.86389006  1
  O  O302  1  0.51237575  0.98439749  0.38830326  1
  O  O303  1  0.49697423  0.99864504  0.86131981  1
  O  O304  1  1.00829073  0.50814535  0.38352227  1
  O  O305  1  0.99724236  0.48674852  0.87082899  1
  O  O306  1  0.98273741  0.98853810  0.37423263  1
  O  O307  1  0.98537500  0.99424762  0.85886600  1
  O  O308  1  0.04877107  0.04584540  0.08512123  1
  O  O309  1  -0.00316546  0.01732304  0.63725794  1
  O  O310  1  -0.00171759  0.52318122  0.11504186  1
  O  O311  1  0.01575083  0.51179481  0.62552081  1
  O  O312  1  0.49991150  -0.02445815  0.09967142  1
  O  O313  1  0.49752175  0.01334164  0.60853175  1
  O  O314  1  0.52066916  0.48881584  0.12197026  1
  O  O315  1  0.50507430  0.49062087  0.61400572  1
  O  O316  1  0.24940279  0.39246389  0.23161208  1
  O  O317  1  0.23626760  0.38728782  0.74757985  1
  O  O318  1  0.23941998  0.90391902  0.30675037  1
  O  O319  1  0.24263773  0.88432789  0.74084474  1
  O  O320  1  0.74003271  0.36868907  0.26582834  1
  O  O321  1  0.71105886  0.34077767  0.79533043  1
  O  O322  1  0.77840438  0.89237312  0.26027352  1
  O  O323  1  0.73826843  0.87764386  0.73690612  1
  O  O324  1  0.25610665  0.09580521  0.26274901  1
  O  O325  1  0.25362592  0.11948106  0.75308196  1
  O  O326  1  0.24034010  0.61535855  0.24864895  1
  O  O327  1  0.24544177  0.61400741  0.74854110  1
  O  O328  1  0.75123784  0.12193554  0.27309940  1
  O  O329  1  0.71496421  0.15861416  0.83433583  1
  O  O330  1  0.76247158  0.62286842  0.25978641  1
  O  O331  1  0.76820009  0.62588510  0.74529058  1
  O  O332  1  0.38083233  0.11486492  0.36618484  1
  O  O333  1  0.36433199  0.11815853  0.86025799  1
  O  O334  1  0.37431710  0.63594493  0.36234271  1
  O  O335  1  0.37182417  0.60649677  0.87277492  1
  O  O336  1  0.86656414  0.12676197  0.38177178  1
  O  O337  1  0.88366692  0.11216857  0.86463493  1
  O  O338  1  0.86420146  0.61955019  0.37000209  1
  O  O339  1  0.88556828  0.61495442  0.86043839  1
  O  O340  1  0.13918958  0.39054420  0.12500444  1
  O  O341  1  0.12720344  0.38678630  0.63141849  1
  O  O342  1  0.08450647  0.90992986  0.13110000  1
  O  O343  1  0.13686181  0.86982563  0.63013777  1
  O  O344  1  0.64332781  0.37420859  0.13714375  1
  O  O345  1  0.62832972  0.37538770  0.62622202  1
  O  O346  1  0.59202939  0.83654854  0.13145360  1
  O  O347  1  0.62365075  0.89346350  0.62419112  1
  O  O348  1  0.12240716  0.27025936  0.21998894  1
  O  O349  1  0.12112353  0.25823467  0.75904632  1
  O  O350  1  0.09830406  0.75142715  0.25511352  1
  O  O351  1  0.11525258  0.76184030  0.74437267  1
  O  O352  1  0.60751032  0.26705045  0.24102727  1
  O  O353  1  0.54438140  0.31986972  0.73404455  1
  O  O354  1  0.62979099  0.74694703  0.28181392  1
  O  O355  1  0.61813113  0.76630995  0.73838357  1
  O  O356  1  0.38302392  0.25084392  0.24068039  1
  O  O357  1  0.36678435  0.23894746  0.73054512  1
  O  O358  1  0.38184138  0.73706551  0.23703956  1
  O  O359  1  0.38965961  0.75934554  0.73397384  1
  O  O360  1  0.87316671  0.24223838  0.25565082  1
  O  O361  1  0.89314179  0.25973505  0.75840036  1
  O  O362  1  0.88223424  0.73248712  0.26170882  1
  O  O363  1  0.88578484  0.73895736  0.73682712  1
  O  O364  1  0.38491568  0.48384001  0.50862431  1
  O  O365  1  0.39453451  0.49822245  0.98589409  1
  O  O366  1  0.38083018  0.98962044  0.49263772  1
  O  O367  1  0.39239962  0.99709596  0.97375147  1
  O  O368  1  0.89661285  0.49655375  0.50475544  1
  O  O369  1  0.87701421  0.51202688  0.98610878  1
  O  O370  1  0.87457491  0.98694121  0.50366703  1
  O  O371  1  0.94564230  1.05956470  1.01156485  1
  O  O372  1  0.16223714  -0.01018280  0.02661954  1
  O  O373  1  0.11697525  0.00307802  0.50353174  1
  O  O374  1  0.12310948  0.52804255  -0.01721103  1
  O  O375  1  0.12222788  0.51116703  0.50624889  1
  O  O376  1  0.61719840  0.01815122  -0.01344020  1
  O  O377  1  0.61873774  0.00554426  0.50854497  1
  O  O378  1  0.62959436  0.49775372  0.01229991  1
  O  O379  1  0.61075937  0.48780072  0.51001494  1
  O  O380  1  0.36450191  0.38463561  0.12192880  1
  O  O381  1  0.37161309  0.36025927  0.61344539  1
  O  O382  1  0.43087942  0.79749734  0.09169800  1
  O  O383  1  0.36841971  0.87011129  0.61087668  1
  O  O384  1  0.86390979  0.36571437  0.12682244  1
  O  O385  1  0.88534679  0.38068830  0.60504984  1
  O  O386  1  0.89997064  0.94107545  0.10770800  1
  O  O387  1  0.87891820  0.85990425  0.61882132  1
  O  O388  1  0.11904844  0.12969367  0.39692033  1
  O  O389  1  0.13311346  0.13398310  0.86497095  1
  O  O390  1  0.11801561  0.62566520  0.38529512  1
  O  O391  1  0.11779969  0.63033510  0.89450948  1
  O  O392  1  0.63688759  0.12367141  0.39126241  1
  O  O393  1  0.62691416  0.16095741  0.84304325  1
  O  O394  1  0.64551977  0.62657707  0.37926051  1
  O  O395  1  0.62349894  0.64687621  0.85775084  1
