# generated using pymatgen
data_V35Zn35O128
_symmetry_space_group_name_H-M   'P 1'
_cell_length_a   16.94576916
_cell_length_b   16.94418115
_cell_length_c   16.90207034
_cell_angle_alpha   90.00278690
_cell_angle_beta   90.39448009
_cell_angle_gamma   90.30391065
_symmetry_Int_Tables_number   1
_chemical_formula_structural   V35Zn35O128
_chemical_formula_sum   'V70 Zn70 O256'
_cell_volume   4852.94502775
_cell_formula_units_Z   2
loop_
 _symmetry_equiv_pos_site_id
 _symmetry_equiv_pos_as_xyz
  1  'x, y, z'
loop_
 _atom_site_type_symbol
 _atom_site_label
 _atom_site_symmetry_multiplicity
 _atom_site_fract_x
 _atom_site_fract_y
 _atom_site_fract_z
 _atom_site_occupancy
  V  V0  1  0.01325813  0.01497339  0.00939396  1
  V  V1  1  0.39181545  0.50199556  0.86332070  1
  V  V2  1  0.75263620  0.49385441  0.75004547  1
  V  V3  1  0.24942622  0.61721194  0.86278986  1
  V  V4  1  0.74480891  0.51190113  0.24231564  1
  V  V5  1  0.49061292  0.35257428  0.38884643  1
  V  V6  1  0.85659978  0.36950812  0.49856818  1
  V  V7  1  0.50466184  0.35608738  0.86727389  1
  V  V8  1  0.13645404  0.25342889  0.36642948  1
  V  V9  1  0.87923359  0.49357656  0.88156662  1
  V  V10  1  -0.00350060  0.36685028  0.36141558  1
  V  V11  1  0.11643235  0.35798933  0.75452108  1
  V  V12  1  0.03380279  0.62441900  0.12733485  1
  V  V13  1  -0.00425048  0.49634384  0.50070905  1
  V  V14  1  0.25288028  0.74991199  -0.00218614  1
  V  V15  1  0.39351691  0.62224644  0.26431748  1
  V  V16  1  0.61180901  0.87027832  0.26352962  1
  V  V17  1  0.62040799  0.51109697  0.62730147  1
  V  V18  1  0.75161279  0.75525758  0.00016313  1
  V  V19  1  0.76118771  0.63285680  0.86981541  1
  V  V20  1  0.11332487  0.24908250  0.88149119  1
  V  V21  1  0.36486231  0.88087595  0.00546178  1
  V  V22  1  0.00133611  0.13746492  0.62550317  1
  V  V23  1  0.25403094  0.36958430  0.62053750  1
  V  V24  1  0.87919676  0.14621024  0.23934489  1
  V  V25  1  0.86566864  0.50887831  0.36581036  1
  V  V26  1  0.38310796  0.14170111  0.73692366  1
  V  V27  1  0.39756602  0.86368092  0.51022277  1
  V  V28  1  0.72980554  0.25186794  0.00413266  1
  V  V29  1  0.50173800  0.87031944  0.86647150  1
  V  V30  1  -0.00976676  0.62351251  0.63678693  1
  V  V31  1  0.51055265  0.25278871  0.24096035  1
  V  V32  1  0.74845488  0.14140915  0.37060179  1
  V  V33  1  -0.00995435  0.74051231  0.75169959  1
  V  V34  1  0.12803728  0.88541233  0.74503112  1
  V  V35  1  0.12672429  0.77461009  0.38484890  1
  V  V36  1  0.49730527  0.12359657  0.12557738  1
  V  V37  1  0.12612873  0.50076730  0.65061111  1
  V  V38  1  0.87242898  -0.01195440  0.36255099  1
  V  V39  1  0.87938375  0.73716664  0.13249247  1
  V  V40  1  0.61080683  0.49654386  0.12154161  1
  V  V41  1  0.24712835  0.39261459  0.12590342  1
  V  V42  1  0.49464805  0.65183590  0.10483206  1
  V  V43  1  0.39175097  0.64239564  0.74038620  1
  V  V44  1  0.13173436  0.00042738  0.15365306  1
  V  V45  1  0.13048260  0.13389699  0.49525234  1
  V  V46  1  0.35917031  0.12031383  0.25127969  1
  V  V47  1  0.86326773  0.25850804  0.63194563  1
  V  V48  1  -0.00030442  0.87368687  0.87764833  1
  V  V49  1  -0.01122626  -0.00450911  0.50127408  1
  V  V50  1  0.38405162  0.38189453  0.00238037  1
  V  V51  1  0.50144369  0.00953965  -0.00410066  1
  V  V52  1  0.62711576  0.62173004  -0.01013920  1
  V  V53  1  0.12785279  0.74719471  0.87656050  1
  V  V54  1  0.62414298  0.36116036  0.74841856  1
  V  V55  1  0.36459474  0.00307204  0.86218445  1
  V  V56  1  0.62531737  0.02455567  0.62636008  1
  V  V57  1  0.89018479  0.37082765  0.00526413  1
  V  V58  1  0.25229355  0.75350839  0.51364935  1
  V  V59  1  0.25808734  0.24607456  0.00991742  1
  V  V60  1  0.87926922  0.87360305  0.00641298  1
  V  V61  1  0.75537579  0.74470383  0.50290432  1
  V  V62  1  0.37006409  -0.01203468  0.37247210  1
  V  V63  1  0.24611402  0.13304628  0.86381174  1
  V  V64  1  0.50399020  0.02745139  0.49937741  1
  V  V65  1  0.12644807  0.62092728  0.49354584  1
  V  V66  1  0.88062534  0.01853627  0.87502708  1
  V  V67  1  0.00939591  0.75935331  0.26291155  1
  V  V68  1  0.73518468  0.13107790  0.87724821  1
  V  V69  1  0.63307072  -0.00985930  0.12094105  1
  Zn  Zn70  1  0.75121829  0.36965299  0.12970317  1
  Zn  Zn71  1  0.75779228  -0.08103441  0.65825619  1
  Zn  Zn72  1  0.88150949  0.13992519  0.75476268  1
  Zn  Zn73  1  0.24822947  0.87782603  0.16275685  1
  Zn  Zn74  1  0.25718972  0.88675182  0.63608521  1
  Zn  Zn75  1  0.61920579  0.87593366  0.74097029  1
  Zn  Zn76  1  0.06734187  0.18358471  0.18647627  1
  Zn  Zn77  1  0.18832592  0.18866866  0.68303251  1
  Zn  Zn78  1  0.21513899  0.70587550  0.20377571  1
  Zn  Zn79  1  0.18123998  0.68810546  0.69364211  1
  Zn  Zn80  1  0.69071167  0.17467337  0.18504465  1
  Zn  Zn81  1  0.69478630  0.18338318  0.69383675  1
  Zn  Zn82  1  0.68463870  0.69046807  0.18027824  1
  Zn  Zn83  1  0.68190147  0.68728167  0.69801253  1
  Zn  Zn84  1  0.31633868  0.30343368  0.30381451  1
  Zn  Zn85  1  0.30700080  0.31988696  0.79992154  1
  Zn  Zn86  1  0.32624272  0.79465547  0.33667702  1
  Zn  Zn87  1  0.31336542  0.81334346  0.80912140  1
  Zn  Zn88  1  0.80490783  0.31985264  0.30398996  1
  Zn  Zn89  1  0.81210716  0.31041973  0.82235118  1
  Zn  Zn90  1  0.80406825  0.82089631  0.29884218  1
  Zn  Zn91  1  0.82951735  0.83525521  0.78318659  1
  Zn  Zn92  1  0.17722024  0.42830401  0.44253830  1
  Zn  Zn93  1  0.19660742  0.43177142  0.93808201  1
  Zn  Zn94  1  0.19116438  0.95448013  0.47255621  1
  Zn  Zn95  1  0.18474755  0.94047257  0.93297179  1
  Zn  Zn96  1  0.67667898  0.44441516  0.42749205  1
  Zn  Zn97  1  0.68981783  0.43602703  0.93590905  1
  Zn  Zn98  1  0.66573683  0.98698655  0.41014261  1
  Zn  Zn99  1  0.71170716  0.92090373  0.88793481  1
  Zn  Zn100  1  0.30324174  0.06008967  0.06836268  1
  Zn  Zn101  1  0.31048550  0.05528658  0.56379402  1
  Zn  Zn102  1  0.31120351  0.56431548  0.04621369  1
  Zn  Zn103  1  0.30151778  0.56535802  0.57884478  1
  Zn  Zn104  1  0.81395739  0.06465750  0.05575848  1
  Zn  Zn105  1  0.81427144  0.07605639  0.55285650  1
  Zn  Zn106  1  0.81280405  0.56052317  0.06090333  1
  Zn  Zn107  1  0.81150505  0.55250293  0.56588959  1
  Zn  Zn108  1  0.40076255  0.42615981  0.21816714  1
  Zn  Zn109  1  0.43666265  0.44104155  0.69176310  1
  Zn  Zn110  1  0.44054817  0.93122794  0.18709132  1
  Zn  Zn111  1  0.44166674  0.94765410  0.68271452  1
  Zn  Zn112  1  0.94034286  0.44742351  0.17996360  1
  Zn  Zn113  1  0.93639238  0.43234789  0.69064785  1
  Zn  Zn114  1  0.94103235  0.94064747  0.18835343  1
  Zn  Zn115  1  0.94313399  0.94644281  0.68529756  1
  Zn  Zn116  1  0.05480876  0.06474691  0.32218190  1
  Zn  Zn117  1  0.05841070  0.06745535  0.81356959  1
  Zn  Zn118  1  0.04742217  0.56681946  0.30737957  1
  Zn  Zn119  1  0.08125320  0.53506101  0.87173275  1
  Zn  Zn120  1  0.56011775  0.05574739  0.30264442  1
  Zn  Zn121  1  0.55726908  0.06536779  0.80507231  1
  Zn  Zn122  1  0.54124792  0.50756861  0.30143488  1
  Zn  Zn123  1  0.56772010  0.56628115  0.80862883  1
  Zn  Zn124  1  0.44375597  0.17550533  0.41392618  1
  Zn  Zn125  1  0.43025098  0.18871783  0.93414816  1
  Zn  Zn126  1  0.42709670  0.67106633  0.45117225  1
  Zn  Zn127  1  0.43305959  0.69051746  0.93422324  1
  Zn  Zn128  1  0.92975467  0.18468837  0.43649118  1
  Zn  Zn129  1  0.93555704  0.19762145  1.06199629  1
  Zn  Zn130  1  0.94689987  0.68280957  0.43660586  1
  Zn  Zn131  1  0.94448447  0.68018406  0.94817519  1
  Zn  Zn132  1  0.07569270  0.32606642  0.06105762  1
  Zn  Zn133  1  0.06150513  0.31238517  0.55987346  1
  Zn  Zn134  1  0.06883998  0.81673062  0.07072883  1
  Zn  Zn135  1  0.05612082  0.81114007  0.56750103  1
  Zn  Zn136  1  0.55561728  0.31128504  0.06005445  1
  Zn  Zn137  1  0.55007103  0.39431319  0.55913700  1
  Zn  Zn138  1  0.56768374  0.82275116  0.03244038  1
  Zn  Zn139  1  0.58033872  0.81024729  0.58963150  1
  O  O140  1  0.12452501  0.09974530  0.13290612  1
  O  O141  1  0.10944236  0.14009825  0.61192028  1
  O  O142  1  0.13110386  0.64575947  0.14513359  1
  O  O143  1  0.11527503  0.61207880  0.62616504  1
  O  O144  1  0.60321021  0.10884256  0.12761337  1
  O  O145  1  0.61837920  0.12485994  0.63304470  1
  O  O146  1  0.61419161  0.62797859  0.10775752  1
  O  O147  1  0.62818986  0.60951545  0.63161728  1
  O  O148  1  0.39610335  0.37501516  0.36349689  1
  O  O149  1  0.38768931  0.38573109  0.86361071  1
  O  O150  1  0.38452031  0.87569808  0.39595780  1
  O  O151  1  0.37793188  0.89307826  0.87297644  1
  O  O152  1  0.88081337  0.38486661  0.38459752  1
  O  O153  1  0.86974953  0.38608948  0.88811973  1
  O  O154  1  0.87097002  0.88698728  0.36266246  1
  O  O155  1  0.88797083  0.88086426  0.88189117  1
  O  O156  1  0.27244692  -0.01368200  0.38986843  1
  O  O157  1  0.25824263  0.01689262  0.87977724  1
  O  O158  1  0.20922379  0.49617790  0.33772668  1
  O  O159  1  0.25592129  0.51524933  0.87073150  1
  O  O160  1  0.77169907  0.00891663  0.37843134  1
  O  O161  1  0.77163712  0.02017201  0.89301030  1
  O  O162  1  0.75615214  0.49985766  0.36320294  1
  O  O163  1  0.75708284  0.50999435  0.86793719  1
  O  O164  1  0.25577606  0.49180969  0.11018421  1
  O  O165  1  0.22781229  0.49856972  0.63428891  1
  O  O166  1  0.23963726  0.99268596  0.13500620  1
  O  O167  1  0.23060001  0.98076929  0.58094112  1
  O  O168  1  0.74085836  0.50378061  0.13128461  1
  O  O169  1  0.74524640  0.50361343  0.64494207  1
  O  O170  1  0.72975438  1.00847171  0.10777574  1
  O  O171  1  0.73480968  1.02376764  0.61800059  1
  O  O172  1  -0.00938286  0.38308640  0.26357612  1
  O  O173  1  0.01694454  0.37442249  0.74583737  1
  O  O174  1  -0.00433429  0.85683151  0.24671868  1
  O  O175  1  0.00556889  0.86212302  0.76141192  1
  O  O176  1  0.49193771  0.35347076  0.23938875  1
  O  O177  1  0.51055797  0.37365731  0.75894789  1
  O  O178  1  0.51164379  0.86449918  0.24107480  1
  O  O179  1  0.49844584  0.88601056  0.76319111  1
  O  O180  1  0.49631410  0.12818666  0.23821853  1
  O  O181  1  0.48186653  0.12933355  0.75135815  1
  O  O182  1  0.47593226  0.65754697  0.21210343  1
  O  O183  1  0.49185296  0.62982094  0.75490987  1
  O  O184  1  0.98547673  0.12985980  0.25329963  1
  O  O185  1  0.99929010  0.12526320  0.73237950  1
  O  O186  1  1.00222810  0.64908516  0.24308211  1
  O  O187  1  1.00398226  0.63344000  0.74409033  1
  O  O188  1  0.36590476  0.27034215  -0.01412789  1
  O  O189  1  0.35123477  0.23205192  0.48655866  1
  O  O190  1  0.36352725  0.77185391  -0.01717821  1
  O  O191  1  0.36226553  0.75192988  0.50307566  1
  O  O192  1  0.86777380  0.26891757  0.00234760  1
  O  O193  1  0.87398581  0.26720152  0.50447463  1
  O  O194  1  0.87317395  0.75431634  0.00742924  1
  O  O195  1  0.86071631  0.73985669  0.49618581  1
  O  O196  1  0.11601113  0.24350130  0.48664063  1
  O  O197  1  0.14815018  0.26293570  0.98629262  1
  O  O198  1  0.12104449  0.73999944  0.49881703  1
  O  O199  1  0.13920542  0.76184954  0.98495791  1
  O  O200  1  0.64742841  0.27117403  0.51611635  1
  O  O201  1  0.62982424  0.25051079  0.99696239  1
  O  O202  1  0.65130372  0.74741774  0.50539891  1
  O  O203  1  0.64689708  0.74322269  0.99741765  1
  O  O204  1  0.49582171  0.23228651  0.12550100  1
  O  O205  1  0.37834929  0.25556489  0.55047853  1
  O  O206  1  0.50101027  0.74986003  0.08975753  1
  O  O207  1  0.51049655  0.70337711  0.59185334  1
  O  O208  1  1.01430535  0.25355895  0.11819175  1
  O  O209  1  0.98768921  0.24452381  0.61916879  1
  O  O210  1  0.99524313  0.74525335  0.13477593  1
  O  O211  1  1.00067793  0.73584074  0.63882604  1
  O  O212  1  -0.01073872  0.26699849  0.37636331  1
  O  O213  1  0.01901798  0.24447057  0.88987190  1
  O  O214  1  0.00854997  0.75203532  0.37232434  1
  O  O215  1  0.00785346  0.75057898  0.87131460  1
  O  O216  1  0.50834845  0.25075134  0.35764668  1
  O  O217  1  0.49992430  0.25759324  0.87233918  1
  O  O218  1  0.55400451  0.67355615  0.37384320  1
  O  O219  1  0.49477694  0.77223295  0.88049201  1
  O  O220  1  0.22882605  0.12494268  0.50512954  1
  O  O221  1  0.26459231  0.14104544  0.99154890  1
  O  O222  1  0.23216054  0.63163409  0.50895653  1
  O  O223  1  0.26077574  0.64317537  0.97687302  1
  O  O224  1  0.76256350  0.13792083  0.47233599  1
  O  O225  1  0.75554450  0.14207475  0.98987880  1
  O  O226  1  0.75333110  0.63861705  0.50038875  1
  O  O227  1  0.74663999  0.63418990  0.99208062  1
  O  O228  1  0.26515249  0.37043705  0.00657963  1
  O  O229  1  0.24762810  0.39376261  0.51969492  1
  O  O230  1  0.25923021  0.87071917  -0.01313406  1
  O  O231  1  0.25678274  0.85518547  0.50264510  1
  O  O232  1  0.74885515  0.36226553  0.00078155  1
  O  O233  1  0.75912274  0.38018149  0.48611644  1
  O  O234  1  0.76394378  0.85982912  -0.01809961  1
  O  O235  1  0.76345352  0.84722674  0.51219373  1
  O  O236  1  0.15709775  0.50646549  0.28328269  1
  O  O237  1  0.11645659  0.49658074  0.75039355  1
  O  O238  1  0.11575915  0.99611880  0.25277257  1
  O  O239  1  0.11443623  0.98364012  0.75913782  1
  O  O240  1  0.63123917  0.50749580  0.23196189  1
  O  O241  1  0.63477078  0.49627587  0.74520441  1
  O  O242  1  0.61677012  0.98235373  0.22776830  1
  O  O243  1  0.61192523  0.99981484  0.72973864  1
  O  O244  1  0.37980190  -0.00676546  0.26553148  1
  O  O245  1  0.37269499  0.00755757  0.76008133  1
  O  O246  1  0.42791562  0.52201061  0.27934435  1
  O  O247  1  0.37697049  0.51340553  0.76086257  1
  O  O248  1  0.88298597  0.00669997  0.25874377  1
  O  O249  1  0.88720500  0.00518957  0.77394953  1
  O  O250  1  0.86489514  0.50369720  0.26015955  1
  O  O251  1  0.85817231  0.48652689  0.75923627  1
  O  O252  1  0.10535089  0.36494776  0.38028583  1
  O  O253  1  0.13358525  0.36038232  0.86256193  1
  O  O254  1  0.12790791  0.87085763  0.40025916  1
  O  O255  1  0.11676248  0.86758056  0.86761999  1
  O  O256  1  0.62022990  0.21228468  0.48400965  1
  O  O257  1  0.60867537  0.38240192  0.86897932  1
  O  O258  1  0.62107166  0.89189836  0.36210625  1
  O  O259  1  0.60112948  0.88897716  0.88583018  1
  O  O260  1  0.38581615  0.10470851  0.14162551  1
  O  O261  1  0.36383211  0.11816999  0.63927836  1
  O  O262  1  0.40199548  0.62698514  0.07319288  1
  O  O263  1  0.37410610  0.62342600  0.64119181  1
  O  O264  1  0.87562771  0.12529529  0.13226312  1
  O  O265  1  0.88067115  0.14454123  0.62636111  1
  O  O266  1  0.88005211  0.63674319  0.12092458  1
  O  O267  1  0.89217580  0.61129234  0.62626505  1
  O  O268  1  0.25900903  0.26157545  0.10736121  1
  O  O269  1  0.23758905  0.26916679  0.62070868  1
  O  O270  1  0.24971661  0.74945890  0.09568162  1
  O  O271  1  0.23704916  0.75284219  0.61548632  1
  O  O272  1  0.73995283  0.24985496  0.11046319  1
  O  O273  1  0.76440558  0.24583448  0.62467412  1
  O  O274  1  0.76604113  0.74487836  0.10809147  1
  O  O275  1  0.76111681  0.73385711  0.60731044  1
  O  O276  1  0.23571224  0.26935765  0.37374303  1
  O  O277  1  0.25121595  0.23952395  0.87636230  1
  O  O278  1  0.22936589  0.74674165  0.39677204  1
  O  O279  1  0.24243012  0.74655201  0.87443976  1
  O  O280  1  0.73975059  0.24214905  0.35706496  1
  O  O281  1  0.74862453  0.24051785  0.88702364  1
  O  O282  1  0.75206682  0.74892302  0.39841508  1
  O  O283  1  0.76362099  0.73510123  0.88405237  1
  O  O284  1  -0.00191824  0.11207655  0.00639663  1
  O  O285  1  -0.00292264  0.12522271  0.51046132  1
  O  O286  1  0.01381803  0.63300875  0.02567502  1
  O  O287  1  0.00737207  0.61865018  0.51520530  1
  O  O288  1  0.47957904  0.11674476  0.01129950  1
  O  O289  1  0.48889166  0.12583225  0.50561554  1
  O  O290  1  0.52455989  0.63483210  -0.01462393  1
  O  O291  1  0.51662468  0.66201865  0.52962276  1
  O  O292  1  0.48950711  0.33735213  0.48913376  1
  O  O293  1  0.48956379  0.37070058  0.98112761  1
  O  O294  1  0.49549375  0.84702939  0.51694598  1
  O  O295  1  0.48145081  0.89257922  0.98688475  1
  O  O296  1  0.99423837  0.38893582  0.49547380  1
  O  O297  1  0.98945013  0.37655937  1.00282800  1
  O  O298  1  1.00290673  0.89668887  0.51543620  1
  O  O299  1  0.99640493  0.87077090  0.99006491  1
  O  O300  1  0.57027215  0.42365511  0.37619071  1
  O  O301  1  0.49243543  0.49971313  0.87278949  1
  O  O302  1  0.49560082  1.00781404  0.39182799  1
  O  O303  1  0.48185924  1.00878517  0.88384432  1
  O  O304  1  0.98872780  0.49351707  0.38124600  1
  O  O305  1  0.97462174  0.50793769  0.86030811  1
  O  O306  1  0.98250750  1.00622221  0.38926097  1
  O  O307  1  0.99689010  0.99361541  0.88830510  1
  O  O308  1  0.01502812  -0.01246625  0.11288646  1
  O  O309  1  -0.01224339  0.02172914  0.61303416  1
  O  O310  1  0.01816773  0.52605750  0.15434800  1
  O  O311  1  0.00682094  0.50615606  0.62253745  1
  O  O312  1  0.49866325  0.00341552  0.10973551  1
  O  O313  1  0.51025944  -0.00124670  0.60679213  1
  O  O314  1  0.51370319  0.51757422  0.12324822  1
  O  O315  1  0.51562422  0.48942136  0.62596117  1
  O  O316  1  0.29181656  0.38214613  0.22284659  1
  O  O317  1  0.22675529  0.37471198  0.73823005  1
  O  O318  1  0.27379476  0.80160322  0.23966873  1
  O  O319  1  0.23426260  0.87379024  0.75042039  1
  O  O320  1  0.75008641  0.39697377  0.24272093  1
  O  O321  1  0.73487598  0.38786957  0.76783614  1
  O  O322  1  0.72205720  0.86122998  0.23599938  1
  O  O323  1  0.72925001  0.88351467  0.77914926  1
  O  O324  1  0.26439265  0.12345186  0.24572358  1
  O  O325  1  0.25386771  0.12887612  0.76050774  1
  O  O326  1  0.30542887  0.62538252  0.21847236  1
  O  O327  1  0.26293145  0.63441657  0.76042544  1
  O  O328  1  0.76806442  0.12439529  0.25180104  1
  O  O329  1  0.76399550  0.13416896  0.77430223  1
  O  O330  1  0.74558951  0.61297301  0.24366388  1
  O  O331  1  0.74721853  0.61863199  0.76392282  1
  O  O332  1  0.37405105  0.10279916  0.36314929  1
  O  O333  1  0.36490019  0.11990662  0.86408529  1
  O  O334  1  0.42080713  0.54915352  0.45316334  1
  O  O335  1  0.37147377  0.61699978  0.86768180  1
  O  O336  1  0.86654137  0.12839710  0.35748844  1
  O  O337  1  0.89029836  0.11786188  0.87901595  1
  O  O338  1  0.88081292  0.60642372  0.38227554  1
  O  O339  1  0.86537049  0.61334635  0.88624857  1
  O  O340  1  0.14956645  0.37762046  0.13278801  1
  O  O341  1  0.12309583  0.38747141  0.63313731  1
  O  O342  1  0.13488712  0.88708850  0.12777314  1
  O  O343  1  0.11664367  0.87015656  0.64491200  1
  O  O344  1  0.61681988  0.39465236  0.11151251  1
  O  O345  1  0.62545573  0.37877148  0.64659000  1
  O  O346  1  0.62234391  0.89067982  0.10409314  1
  O  O347  1  0.64736493  0.89913546  0.62044924  1
  O  O348  1  0.11943552  0.24721520  0.26841206  1
  O  O349  1  0.12105394  0.25227282  0.76091513  1
  O  O350  1  0.11858017  0.75691721  0.27519430  1
  O  O351  1  0.11517361  0.75752827  0.76145392  1
  O  O352  1  0.60903780  0.24458969  0.23434406  1
  O  O353  1  0.63428576  0.26332224  0.75251687  1
  O  O354  1  0.63427000  0.76595083  0.24575653  1
  O  O355  1  0.61006362  0.77023004  0.69570053  1
  O  O356  1  0.38744811  0.22518557  0.25727806  1
  O  O357  1  0.36990659  0.24101535  0.74716990  1
  O  O358  1  0.38671217  0.68691022  0.34638809  1
  O  O359  1  0.37901383  0.74238490  0.75291796  1
  O  O360  1  0.87280284  0.24621301  0.24304098  1
  O  O361  1  0.87424195  0.26430298  0.73656198  1
  O  O362  1  0.87656983  0.75360637  0.23566570  1
  O  O363  1  0.89236770  0.74218411  0.76433879  1
  O  O364  1  0.37542166  0.50861018  0.49998876  1
  O  O365  1  0.36848527  0.48587224  0.97478725  1
  O  O366  1  0.39449541  0.98407788  0.49593486  1
  O  O367  1  0.37107187  0.99312799  0.98905144  1
  O  O368  1  0.87758660  0.49089454  0.49391618  1
  O  O369  1  0.86927492  0.49235667  0.98778900  1
  O  O370  1  0.88262606  1.00417444  0.49169751  1
  O  O371  1  0.89079662  0.99118859  0.99668790  1
  O  O372  1  0.11315223  0.00195444  -0.00665833  1
  O  O373  1  0.10108968  0.02670626  0.48602217  1
  O  O374  1  0.11535555  0.49632419  -0.02973729  1
  O  O375  1  0.11397324  0.51058102  0.50449217  1
  O  O376  1  0.60069817  0.00791327  0.00033948  1
  O  O377  1  0.61058800  0.01304694  0.50693360  1
  O  O378  1  0.63650657  0.51627524  0.00824588  1
  O  O379  1  0.63352789  0.48356191  0.52642301  1
  O  O380  1  0.38896050  0.39205888  0.10156979  1
  O  O381  1  0.35240347  0.38566667  0.64164684  1
  O  O382  1  0.36748299  0.88369929  0.10669708  1
  O  O383  1  0.37463519  0.88030253  0.61257461  1
  O  O384  1  0.87047948  0.39309109  0.10806189  1
  O  O385  1  0.87506191  0.37066953  0.61037644  1
  O  O386  1  0.88269284  0.86586280  0.11066368  1
  O  O387  1  0.85764038  0.87459554  0.67325014  1
  O  O388  1  0.11857099  0.14317137  0.38387377  1
  O  O389  1  0.13762047  0.13553350  0.87085242  1
  O  O390  1  0.11338272  0.62530091  0.39390058  1
  O  O391  1  0.14120060  0.63404600  0.86437246  1
  O  O392  1  0.64932187  0.10046641  0.35998138  1
  O  O393  1  0.63760195  0.11613700  0.87090124  1
  O  O394  1  0.58043677  0.60367925  0.37835833  1
  O  O395  1  0.64330849  0.61922627  0.88361685  1
