# generated using pymatgen
data_V35Zn35O128
_symmetry_space_group_name_H-M   'P 1'
_cell_length_a   16.88733070
_cell_length_b   16.86741300
_cell_length_c   16.88397797
_cell_angle_alpha   90.24296895
_cell_angle_beta   90.25971391
_cell_angle_gamma   89.56342896
_symmetry_Int_Tables_number   1
_chemical_formula_structural   V35Zn35O128
_chemical_formula_sum   'V70 Zn70 O256'
_cell_volume   4809.09496196
_cell_formula_units_Z   2
loop_
 _symmetry_equiv_pos_site_id
 _symmetry_equiv_pos_as_xyz
  1  'x, y, z'
loop_
 _atom_site_type_symbol
 _atom_site_label
 _atom_site_symmetry_multiplicity
 _atom_site_fract_x
 _atom_site_fract_y
 _atom_site_fract_z
 _atom_site_occupancy
  V  V0  1  0.73942085  0.11934230  0.37775708  1
  V  V1  1  0.50308243  0.86597721  0.37691706  1
  V  V2  1  0.24655616  0.38956394  0.12886416  1
  V  V3  1  0.49861080  0.49418738  0.00632972  1
  V  V4  1  -0.00620545  0.76891192  0.27076896  1
  V  V5  1  0.00330451  0.12644918  0.11210737  1
  V  V6  1  -0.00555584  0.37523864  0.37960551  1
  V  V7  1  0.11208792  0.50031826  0.61425680  1
  V  V8  1  0.49245596  0.11759081  0.12111841  1
  V  V9  1  0.86160974  0.25350859  0.11905907  1
  V  V10  1  0.38264950  0.61830868  0.74747639  1
  V  V11  1  0.23782669  0.50138859  0.75426328  1
  V  V12  1  0.50054306  0.26142032  0.24844897  1
  V  V13  1  0.11658283  0.64270710  0.02030355  1
  V  V14  1  0.73403715  0.26328427  -0.00007117  1
  V  V15  1  0.37303620  0.35946044  0.00224031  1
  V  V16  1  0.73870667  0.73581780  0.00750270  1
  V  V17  1  0.27002191  0.87314585  0.12196089  1
  V  V18  1  0.61987736  0.87856280  0.74471712  1
  V  V19  1  0.92296575  0.72035233  0.61644565  1
  V  V20  1  0.15046508  0.78578556  0.36927849  1
  V  V21  1  0.24978254  -0.00254220  0.74461312  1
  V  V22  1  0.88252897  0.75679032  0.11711347  1
  V  V23  1  0.73863156  0.74872667  0.50178133  1
  V  V24  1  0.26961021  0.23743199  0.49637442  1
  V  V25  1  0.35488589  0.49744738  0.37529503  1
  V  V26  1  0.88646653  0.59967131  0.75696645  1
  V  V27  1  0.75873115  0.00533445  0.75110138  1
  V  V28  1  0.61530623  0.01487257  0.61909270  1
  V  V29  1  0.74088365  0.88910418  0.12123073  1
  V  V30  1  0.36373101  0.50546895  0.88712248  1
  V  V31  1  0.25956150  0.75251102  -0.01617767  1
  V  V32  1  0.12392445  0.38204607  0.24412677  1
  V  V33  1  0.50357820  0.87993834  0.88673027  1
  V  V34  1  0.06775658  0.82138504  0.80681207  1
  V  V35  1  0.50739111  0.26684665  0.76714217  1
  V  V36  1  0.74736710  0.62770914  0.37636694  1
  V  V37  1  0.50109136  0.01413528  0.48917115  1
  V  V38  1  0.35663788  0.62936613  0.25167339  1
  V  V39  1  0.37775865  -0.00572916  0.88495344  1
  V  V40  1  0.49309437  0.63291742  0.11491146  1
  V  V41  1  0.88357868  0.61973880  0.24167454  1
  V  V42  1  -0.00356281  0.23958194  0.24807573  1
  V  V43  1  0.12376228  0.35232564  0.75385808  1
  V  V44  1  0.50894275  0.39107038  0.37283687  1
  V  V45  1  -0.01711190  0.13417514  0.62688010  1
  V  V46  1  0.24136459  0.12905515  0.87670006  1
  V  V47  1  0.62650831  0.89070128  0.24899400  1
  V  V48  1  0.12951043  0.01284818  0.60727555  1
  V  V49  1  0.75355286  0.12003058  0.88196598  1
  V  V50  1  -0.00978407  -0.00459326  -0.01303669  1
  V  V51  1  0.87611964  0.49551494  0.39198377  1
  V  V52  1  0.87373210  0.49265875  0.91538487  1
  V  V53  1  0.50942565  0.73706886  0.25076517  1
  V  V54  1  0.37161226  0.13108038  0.26844751  1
  V  V55  1  0.75684743  0.34835914  0.63803022  1
  V  V56  1  -0.01624243  -0.00400653  0.49209948  1
  V  V57  1  0.75717205  0.88165153  0.61355146  1
  V  V58  1  0.25841641  0.36207531  0.62009529  1
  V  V59  1  0.23091572  0.24024638  0.01095011  1
  V  V60  1  0.62362268  0.09916544  0.00985785  1
  V  V61  1  0.62538527  0.73846000  0.87901951  1
  V  V62  1  0.00120289  0.37638649  0.87430936  1
  V  V63  1  0.12727659  -0.00592652  0.11952892  1
  V  V64  1  0.13117965  0.23694912  0.38059030  1
  V  V65  1  0.24974798  0.86348205  0.62163444  1
  V  V66  1  0.87322127  0.00015339  0.34986492  1
  V  V67  1  0.37677567  0.87119140  0.50208674  1
  V  V68  1  0.38744544  0.13066298  0.74040915  1
  V  V69  1  0.25362289  0.00719148  0.26059419  1
  Zn  Zn70  1  0.66224089  0.19741030  0.53483582  1
  Zn  Zn71  1  0.49783125  0.74456545  0.73933719  1
  Zn  Zn72  1  0.62713816  0.37988197  0.75208867  1
  Zn  Zn73  1  0.42148271  0.68095173  0.56654095  1
  Zn  Zn74  1  0.49009006  0.50271876  0.52499054  1
  Zn  Zn75  1  0.64159137  0.50349339  0.11672322  1
  Zn  Zn76  1  0.18255072  0.18618946  0.18947756  1
  Zn  Zn77  1  0.19661961  0.18101999  0.68537667  1
  Zn  Zn78  1  0.17411716  0.70016907  0.18947330  1
  Zn  Zn79  1  0.17573538  0.68265017  0.68505673  1
  Zn  Zn80  1  0.68174595  0.18512078  0.19654586  1
  Zn  Zn81  1  0.67990673  0.19399902  0.70460351  1
  Zn  Zn82  1  0.69038150  0.66516031  0.18508035  1
  Zn  Zn83  1  0.71215240  0.70173842  0.70472257  1
  Zn  Zn84  1  0.31520673  0.31076703  0.31161096  1
  Zn  Zn85  1  0.31211697  0.30942690  0.81864150  1
  Zn  Zn86  1  0.32771802  0.82470507  0.29874209  1
  Zn  Zn87  1  0.31449318  0.81023590  0.80635271  1
  Zn  Zn88  1  0.80636279  0.29564107  0.31009449  1
  Zn  Zn89  1  0.80789859  0.31649873  0.83228905  1
  Zn  Zn90  1  0.80852963  0.81338074  0.30990846  1
  Zn  Zn91  1  0.84146517  0.77707330  0.79624308  1
  Zn  Zn92  1  0.18556119  0.42543113  0.43642640  1
  Zn  Zn93  1  0.18634234  0.42861472  0.93676051  1
  Zn  Zn94  1  0.19705005  0.94842675  0.43983256  1
  Zn  Zn95  1  0.18773893  0.93804909  0.94033877  1
  Zn  Zn96  1  0.67581963  0.45227558  0.43911139  1
  Zn  Zn97  1  0.67993385  0.44614247  0.92414132  1
  Zn  Zn98  1  0.68706048  0.94180546  0.43046622  1
  Zn  Zn99  1  0.74823113  0.89808440  0.90902071  1
  Zn  Zn100  1  0.31315601  0.06205776  0.06330559  1
  Zn  Zn101  1  0.32308457  0.06111920  0.55684225  1
  Zn  Zn102  1  0.30542632  0.57276236  0.06915398  1
  Zn  Zn103  1  0.30420021  0.54565970  0.56514784  1
  Zn  Zn104  1  0.81708163  0.06895247  0.06675617  1
  Zn  Zn105  1  0.80931618  0.07050885  0.55628702  1
  Zn  Zn106  1  0.80832055  0.56280601  0.07489182  1
  Zn  Zn107  1  0.81650884  0.56302898  0.56296715  1
  Zn  Zn108  1  0.42656573  0.44502792  0.19166715  1
  Zn  Zn109  1  0.43277494  0.43090500  0.70215293  1
  Zn  Zn110  1  0.43875675  0.94216092  0.19147148  1
  Zn  Zn111  1  0.43645497  0.94125768  0.68525137  1
  Zn  Zn112  1  0.94584031  0.43244061  0.16895823  1
  Zn  Zn113  1  0.93682671  0.42135197  0.68325885  1
  Zn  Zn114  1  0.93414144  0.93717945  0.17754410  1
  Zn  Zn115  1  0.94385824  0.94355629  0.68471655  1
  Zn  Zn116  1  0.06542347  0.05374583  0.30997246  1
  Zn  Zn117  1  0.06154441  0.05214460  0.80296052  1
  Zn  Zn118  1  0.05035741  0.56049534  0.30083587  1
  Zn  Zn119  1  0.00289680  0.64813880  0.87822737  1
  Zn  Zn120  1  0.55459406  0.06669478  0.30955917  1
  Zn  Zn121  1  0.56751620  0.06560632  0.82021795  1
  Zn  Zn122  1  0.54845767  0.58920418  0.40439240  1
  Zn  Zn123  1  0.55921829  0.54728632  0.82152415  1
  Zn  Zn124  1  0.47994235  0.22864814  0.46386175  1
  Zn  Zn125  1  0.43758863  0.17651453  0.93868437  1
  Zn  Zn126  1  0.30893876  0.68854823  0.43258383  1
  Zn  Zn127  1  0.43544671  0.69067983  0.92996578  1
  Zn  Zn128  1  0.94050811  0.17150248  0.43250861  1
  Zn  Zn129  1  0.93494084  0.19655583  0.94035358  1
  Zn  Zn130  1  0.92942618  0.69212510  0.43547752  1
  Zn  Zn131  1  0.92411386  0.82587791  0.93766484  1
  Zn  Zn132  1  0.04756930  0.32255158  0.05371871  1
  Zn  Zn133  1  0.06536267  0.31008465  0.56432986  1
  Zn  Zn134  1  0.06883497  0.81991050  0.05847208  1
  Zn  Zn135  1  0.07384957  0.81714536  0.54935550  1
  Zn  Zn136  1  0.56054012  0.31105520  0.07842969  1
  Zn  Zn137  1  0.54568922  0.34100865  0.58877355  1
  Zn  Zn138  1  0.56182735  0.81312443  0.06739413  1
  Zn  Zn139  1  0.56279937  0.80919700  0.56610455  1
  O  O140  1  0.11063894  0.11795387  0.12464108  1
  O  O141  1  0.12796172  0.11355505  0.62244492  1
  O  O142  1  0.11520122  0.63025916  0.12142014  1
  O  O143  1  0.13044749  0.59959545  0.62478152  1
  O  O144  1  0.61883386  0.12582170  0.11822161  1
  O  O145  1  0.62754853  0.11582226  0.62615706  1
  O  O146  1  0.59432195  0.61624699  0.12809386  1
  O  O147  1  0.66622180  0.60378150  0.64131814  1
  O  O148  1  0.37816574  0.39584853  0.35251698  1
  O  O149  1  0.36231010  0.38188315  0.89779047  1
  O  O150  1  0.39602622  0.88092541  0.37880756  1
  O  O151  1  0.39055299  0.88359960  0.86316670  1
  O  O152  1  0.88146339  0.38638155  0.35933845  1
  O  O153  1  0.88820251  0.38804798  0.86929267  1
  O  O154  1  0.86163001  0.90002566  0.36397771  1
  O  O155  1  0.84798489  0.86332758  0.86419946  1
  O  O156  1  0.25201537  0.00638684  0.35933462  1
  O  O157  1  0.26107557  -0.00009169  0.86686016  1
  O  O158  1  0.25368810  0.49309559  0.37524144  1
  O  O159  1  0.25456280  0.48959571  0.86429207  1
  O  O160  1  0.75603029  0.01177235  0.36626338  1
  O  O161  1  0.74510335  0.00371751  0.85931355  1
  O  O162  1  0.76554332  0.51368573  0.38242690  1
  O  O163  1  0.77628688  0.49866450  0.89604390  1
  O  O164  1  0.23884212  0.48764359  0.11760156  1
  O  O165  1  0.24293377  0.47891214  0.63638518  1
  O  O166  1  0.23930714  0.99268464  0.11708105  1
  O  O167  1  0.24581409  0.99963807  0.62452697  1
  O  O168  1  0.73200554  0.55483101  0.15450657  1
  O  O169  1  0.75379961  0.46542801  0.58941880  1
  O  O170  1  0.75577818  0.98707646  0.12369389  1
  O  O171  1  0.73528841  0.99910878  0.62622846  1
  O  O172  1  0.01073636  0.36092655  0.25077953  1
  O  O173  1  0.01302348  0.37102527  0.76214869  1
  O  O174  1  -0.00202045  0.86516334  0.24387497  1
  O  O175  1  0.01770811  0.88679621  0.74614271  1
  O  O176  1  0.49578415  0.36681476  0.23979614  1
  O  O177  1  0.49786583  0.37090853  0.77659135  1
  O  O178  1  0.50846910  0.86989331  0.25503349  1
  O  O179  1  0.50965701  0.87262925  0.74822897  1
  O  O180  1  0.48493662  0.13104774  0.24413117  1
  O  O181  1  0.48935385  0.12217921  0.75592665  1
  O  O182  1  0.49567520  0.63546006  0.24518507  1
  O  O183  1  0.48563494  0.61733182  0.77050422  1
  O  O184  1  1.00750630  0.13669181  0.24133799  1
  O  O185  1  1.00289599  0.10832002  0.72527516  1
  O  O186  1  0.98753970  0.64530040  0.25643087  1
  O  O187  1  0.98274089  0.63008510  0.75979985  1
  O  O188  1  0.36863917  0.25891190  -0.00130805  1
  O  O189  1  0.36757754  0.24900653  0.49149031  1
  O  O190  1  0.36075727  0.74838535  -0.00468971  1
  O  O191  1  0.38597828  0.77187179  0.48787515  1
  O  O192  1  0.85553999  0.24767416  0.01240667  1
  O  O193  1  0.86044733  0.26378827  0.47636517  1
  O  O194  1  0.85878521  0.75545831  0.01296560  1
  O  O195  1  0.87629692  0.74279738  0.52407594  1
  O  O196  1  0.12735176  0.25285513  0.48232444  1
  O  O197  1  0.13334993  0.25049482  1.00612024  1
  O  O198  1  0.12553163  0.75871276  0.46225533  1
  O  O199  1  0.13817791  0.74862443  1.00519124  1
  O  O200  1  0.57725979  0.26177132  0.51226424  1
  O  O201  1  0.63375364  0.24832988  1.01279677  1
  O  O202  1  0.63996917  0.74775900  0.49771980  1
  O  O203  1  0.62610777  0.74687714  0.99307049  1
  O  O204  1  0.49739939  0.23844117  0.13860786  1
  O  O205  1  0.49552794  0.26057023  0.66297853  1
  O  O206  1  0.49555422  0.74021668  0.13032822  1
  O  O207  1  0.49995360  0.73955880  0.62594250  1
  O  O208  1  0.99812699  0.24119524  0.12958706  1
  O  O209  1  1.00431750  0.23330159  0.61912196  1
  O  O210  1  0.98297452  0.76464417  0.12161039  1
  O  O211  1  1.02226879  0.72734165  0.59779862  1
  O  O212  1  0.00383105  0.25186503  0.36302124  1
  O  O213  1  -0.05033271  0.22309601  0.81299591  1
  O  O214  1  -0.01926974  0.77064425  0.37032876  1
  O  O215  1  -0.00305324  0.76611392  0.86575470  1
  O  O216  1  0.48537681  0.27598221  0.35772208  1
  O  O217  1  0.49026667  0.24093302  0.86750085  1
  O  O218  1  0.50841395  0.76276823  0.36167224  1
  O  O219  1  0.50870369  0.76135971  0.86976131  1
  O  O220  1  0.25786270  0.13766195  0.50081183  1
  O  O221  1  0.25250475  0.13091906  0.98964364  1
  O  O222  1  0.30676942  0.65271003  0.53662271  1
  O  O223  1  0.24110936  0.64851502  1.01390742  1
  O  O224  1  0.74276390  0.13388242  0.48462815  1
  O  O225  1  0.73793392  0.12350602  0.99876906  1
  O  O226  1  0.75719111  0.63681401  0.49289929  1
  O  O227  1  0.74990548  0.63811467  0.99994633  1
  O  O228  1  0.24878222  0.36106217  0.01093795  1
  O  O229  1  0.24970227  0.36336946  0.51496221  1
  O  O230  1  0.24640224  0.86549797  0.01314974  1
  O  O231  1  0.26897736  0.88347783  0.50473279  1
  O  O232  1  0.73515463  0.36246639  -0.01326961  1
  O  O233  1  0.74776882  0.40881703  0.52840147  1
  O  O234  1  0.73845597  0.86541259  0.01883833  1
  O  O235  1  0.74282216  0.86809035  0.50607829  1
  O  O236  1  0.11614129  0.48220903  0.25144847  1
  O  O237  1  0.13773273  0.49071712  0.74547448  1
  O  O238  1  0.14356532  1.01299168  0.23534280  1
  O  O239  1  0.14493245  1.00187044  0.73470206  1
  O  O240  1  0.66666088  0.36476177  0.21837236  1
  O  O241  1  0.61966330  0.55509915  0.67280687  1
  O  O242  1  0.62109481  0.98930468  0.24806852  1
  O  O243  1  0.62453152  0.99727978  0.73613656  1
  O  O244  1  0.36402308  0.01714349  0.24239480  1
  O  O245  1  0.36780034  0.00860912  0.75310302  1
  O  O246  1  0.36705212  0.51959489  0.25442713  1
  O  O247  1  0.36646506  0.49745755  0.77098412  1
  O  O248  1  0.88186095  0.00989752  0.25074350  1
  O  O249  1  0.85614986  0.00251938  0.74006064  1
  O  O250  1  0.89454562  0.51821118  0.23112824  1
  O  O251  1  0.87070514  0.50189450  0.73893931  1
  O  O252  1  0.11246470  0.36592282  0.36267793  1
  O  O253  1  0.11887752  0.37124556  0.86296890  1
  O  O254  1  0.13765882  0.88469095  0.36446559  1
  O  O255  1  0.12568326  0.87865413  0.86743156  1
  O  O256  1  0.61169555  0.38959258  0.36813181  1
  O  O257  1  0.62936583  0.46233629  0.82620885  1
  O  O258  1  0.61841354  0.87646834  0.36027644  1
  O  O259  1  0.61289860  0.87591234  0.86381416  1
  O  O260  1  0.38955483  0.12657018  0.11567271  1
  O  O261  1  0.37413531  0.12139597  0.64128791  1
  O  O262  1  0.38433902  0.62165270  0.13954908  1
  O  O263  1  0.38917896  0.59149081  0.64982162  1
  O  O264  1  0.89201860  0.13760877  0.12510130  1
  O  O265  1  0.88124421  0.12696087  0.62292479  1
  O  O266  1  0.87327986  0.64552528  0.13709312  1
  O  O267  1  0.88256276  0.62218718  0.63751226  1
  O  O268  1  0.24840560  0.24476103  0.11235782  1
  O  O269  1  0.24403329  0.25300830  0.60985854  1
  O  O270  1  0.24552336  0.77583210  0.13786604  1
  O  O271  1  0.24130202  0.76519792  0.62661126  1
  O  O272  1  0.75577116  0.23948843  0.11975089  1
  O  O273  1  0.73732536  0.24588468  0.61677808  1
  O  O274  1  0.74633326  0.74894528  0.11590825  1
  O  O275  1  0.74809443  0.76858604  0.61518140  1
  O  O276  1  0.24025145  0.25765997  0.38520926  1
  O  O277  1  0.25043111  0.23465005  0.88658668  1
  O  O278  1  0.25312351  0.76365435  0.36430977  1
  O  O279  1  0.24951140  0.75804099  0.88420570  1
  O  O280  1  0.79659075  0.27783962  0.43691577  1
  O  O281  1  0.74830014  0.23560942  0.89241078  1
  O  O282  1  0.76881289  0.74260908  0.39494190  1
  O  O283  1  0.72971082  0.76246334  0.89383904  1
  O  O284  1  -0.00056492  0.12117364  0.00756853  1
  O  O285  1  -0.00320928  0.11024667  0.51133301  1
  O  O286  1  0.01838881  0.64651065  -0.00742361  1
  O  O287  1  0.03690853  0.62106768  0.46214937  1
  O  O288  1  0.51209602  0.12535520  0.01171999  1
  O  O289  1  0.49585033  0.11214345  0.48611854  1
  O  O290  1  0.48523994  0.61432948  0.00854681  1
  O  O291  1  0.48417542  0.61532133  0.49435775  1
  O  O292  1  0.49063080  0.38508119  0.47197901  1
  O  O293  1  0.48006363  0.38216972  1.01746761  1
  O  O294  1  0.50135499  0.87696731  0.48798291  1
  O  O295  1  0.50494434  0.87240423  0.98503804  1
  O  O296  1  0.99981016  0.36318534  0.47758207  1
  O  O297  1  0.99837259  0.29941229  0.94552198  1
  O  O298  1  1.00712220  0.89760824  0.50034723  1
  O  O299  1  0.99753905  0.88890180  1.00007332  1
  O  O300  1  0.48821816  0.49666419  0.35806915  1
  O  O301  1  0.47652725  0.49877292  0.89908033  1
  O  O302  1  0.51066865  0.98866567  0.38548122  1
  O  O303  1  0.49011428  0.98998436  0.87204377  1
  O  O304  1  0.98965927  0.48337892  0.36780158  1
  O  O305  1  1.00071975  0.46798642  0.91256599  1
  O  O306  1  0.98598029  1.01152904  0.38059721  1
  O  O307  1  1.00134969  1.01048292  0.88886126  1
  O  O308  1  0.00696833  0.01107833  0.12135670  1
  O  O309  1  0.01469360  0.00550553  0.61125559  1
  O  O310  1  0.01742367  0.42846821  0.08310048  1
  O  O311  1  0.01329380  0.48441766  0.62794260  1
  O  O312  1  0.50188680  0.01779035  0.13465010  1
  O  O313  1  0.51049012  -0.00095233  0.61241156  1
  O  O314  1  0.48897278  0.50751407  0.11339947  1
  O  O315  1  0.50480280  0.44655855  0.62051888  1
  O  O316  1  0.23824024  0.36912775  0.23761191  1
  O  O317  1  0.23904568  0.37299528  0.74780107  1
  O  O318  1  0.26331714  0.89917490  0.23588524  1
  O  O319  1  0.26623881  0.88406086  0.72914715  1
  O  O320  1  0.74058980  0.37895841  0.23276117  1
  O  O321  1  0.74947785  0.35290729  0.74442375  1
  O  O322  1  0.73152653  0.86666946  0.24005683  1
  O  O323  1  0.73763078  0.89184004  0.73436660  1
  O  O324  1  0.26206687  0.11946319  0.24117235  1
  O  O325  1  0.26201899  0.11896621  0.76175960  1
  O  O326  1  0.25841209  0.64008560  0.24089259  1
  O  O327  1  0.25728369  0.60365466  0.74351783  1
  O  O328  1  0.74960150  0.19117048  0.29628553  1
  O  O329  1  0.73990614  0.11608764  0.76805831  1
  O  O330  1  0.77599235  0.64463990  0.27229138  1
  O  O331  1  0.80250309  0.67023729  0.76938301  1
  O  O332  1  0.37563045  0.12623527  0.36415222  1
  O  O333  1  0.36833428  0.10698240  0.87042159  1
  O  O334  1  0.36434129  0.61572581  0.36094829  1
  O  O335  1  0.36529126  0.60882947  0.87468713  1
  O  O336  1  0.85909366  0.11181637  0.37816478  1
  O  O337  1  0.85299904  0.12142373  0.89229662  1
  O  O338  1  0.88098137  0.60718081  0.36839017  1
  O  O339  1  0.89758233  0.58802931  0.87241259  1
  O  O340  1  0.13463297  0.36476309  0.13634333  1
  O  O341  1  0.13012457  0.37444877  0.64106527  1
  O  O342  1  0.12441212  0.89260967  0.13209510  1
  O  O343  1  0.14601921  0.88925102  0.61028111  1
  O  O344  1  0.63991415  0.38733078  0.13632453  1
  O  O345  1  0.64711183  0.37487571  0.63901569  1
  O  O346  1  0.62946138  0.87537150  0.13626774  1
  O  O347  1  0.62999425  0.88503975  0.62908781  1
  O  O348  1  0.11810263  0.25553783  0.25938198  1
  O  O349  1  0.13044183  0.25369713  0.74971468  1
  O  O350  1  0.10608968  0.74291712  0.27629870  1
  O  O351  1  0.12486533  0.75381088  0.75578970  1
  O  O352  1  0.59877960  0.23984913  0.25685695  1
  O  O353  1  0.61412620  0.25824421  0.77006133  1
  O  O354  1  0.61157802  0.74700145  0.23990607  1
  O  O355  1  0.63014951  0.76060838  0.76241315  1
  O  O356  1  0.37763741  0.23707338  0.24808090  1
  O  O357  1  0.37568228  0.23378788  0.76035476  1
  O  O358  1  0.39012233  0.73870286  0.25478989  1
  O  O359  1  0.37231408  0.72325349  0.75436345  1
  O  O360  1  0.89276099  0.25136478  0.24186531  1
  O  O361  1  0.88769237  0.23581617  0.77155180  1
  O  O362  1  0.88456746  0.74975943  0.24278988  1
  O  O363  1  0.90167664  0.77807992  0.69573417  1
  O  O364  1  0.37212307  0.50015682  0.48004675  1
  O  O365  1  0.36502882  0.49460832  0.99677777  1
  O  O366  1  0.39581530  0.98909581  0.50192059  1
  O  O367  1  0.36995859  0.99566782  0.98340376  1
  O  O368  1  0.88558363  0.49935147  0.48983980  1
  O  O369  1  0.87854663  0.49809582  1.01662443  1
  O  O370  1  0.88183789  0.99777632  0.49671115  1
  O  O371  1  0.89095198  1.00281929  1.00613213  1
  O  O372  1  0.11337537  -0.00159466  0.01295862  1
  O  O373  1  0.12577397  0.00861789  0.50448309  1
  O  O374  1  0.13584726  0.53278592  -0.02512979  1
  O  O375  1  0.12762256  0.48270570  0.51552293  1
  O  O376  1  0.62550986  0.00344778  0.00990901  1
  O  O377  1  0.61662559  -0.00200902  0.51064848  1
  O  O378  1  0.60201857  0.48588873  0.00391491  1
  O  O379  1  0.60343760  0.52315038  0.48851702  1
  O  O380  1  0.35471207  0.37919805  0.11588482  1
  O  O381  1  0.35484105  0.36651896  0.64037980  1
  O  O382  1  0.36983039  0.88033949  0.12109468  1
  O  O383  1  0.37079957  0.87614072  0.61060684  1
  O  O384  1  0.87014920  0.35270055  0.13104002  1
  O  O385  1  0.85965764  0.35581963  0.63415664  1
  O  O386  1  0.85299888  0.86201596  0.13643138  1
  O  O387  1  0.85383613  0.89861643  0.61938361  1
  O  O388  1  0.12342010  0.13836357  0.36908614  1
  O  O389  1  0.14428257  0.11252792  0.86727884  1
  O  O390  1  0.08918381  0.61163485  0.40835459  1
  O  O391  1  0.13419554  0.58683667  0.91270784  1
  O  O392  1  0.63822319  0.11364395  0.37043590  1
  O  O393  1  0.63438942  0.11632796  0.89756972  1
  O  O394  1  0.64930864  0.62713015  0.36189806  1
  O  O395  1  0.62081197  0.64066960  0.86874702  1
