# generated using pymatgen
data_V35Zn35O128
_symmetry_space_group_name_H-M   'P 1'
_cell_length_a   16.90056857
_cell_length_b   16.90110389
_cell_length_c   16.86363513
_cell_angle_alpha   90.06606568
_cell_angle_beta   90.01413065
_cell_angle_gamma   90.08443777
_symmetry_Int_Tables_number   1
_chemical_formula_structural   V35Zn35O128
_chemical_formula_sum   'V70 Zn70 O256'
_cell_volume   4816.89090285
_cell_formula_units_Z   2
loop_
 _symmetry_equiv_pos_site_id
 _symmetry_equiv_pos_as_xyz
  1  'x, y, z'
loop_
 _atom_site_type_symbol
 _atom_site_label
 _atom_site_symmetry_multiplicity
 _atom_site_fract_x
 _atom_site_fract_y
 _atom_site_fract_z
 _atom_site_occupancy
  V  V0  1  0.13094173  0.64246647  0.49977499  1
  V  V1  1  0.50194280  0.63710264  0.64522202  1
  V  V2  1  -0.00560273  0.89587403  0.88797695  1
  V  V3  1  0.13423995  0.49310713  0.63203427  1
  V  V4  1  0.00543776  0.49711878  0.50325356  1
  V  V5  1  0.49939201  0.76473516  0.77814632  1
  V  V6  1  0.73988300  0.49182205  0.23559649  1
  V  V7  1  0.90604505  0.39264011  0.00126819  1
  V  V8  1  0.37584513  0.86843624  -0.00396246  1
  V  V9  1  0.24278411  0.12842150  0.87933237  1
  V  V10  1  0.73477923  0.62487752  0.37311219  1
  V  V11  1  0.64076525  0.00791148  0.12880182  1
  V  V12  1  0.00083950  0.14812974  0.63305730  1
  V  V13  1  0.62045762  0.25523550  0.85619984  1
  V  V14  1  0.39332167  0.00177166  0.37120836  1
  V  V15  1  0.13384099  0.24794747  0.37977598  1
  V  V16  1  0.25068631  0.01732759  0.25247870  1
  V  V17  1  0.00828825  0.73898207  0.24948787  1
  V  V18  1  0.64268944  0.87424221  0.75600313  1
  V  V19  1  0.26107919  0.50779623  0.25113730  1
  V  V20  1  0.25199380  0.37582375  0.12165446  1
  V  V21  1  0.63177329  0.49047201  0.63005504  1
  V  V22  1  0.48875675  0.12801314  0.13669226  1
  V  V23  1  0.50353454  0.37860725  0.85562539  1
  V  V24  1  0.75171528  0.14013834  0.37925889  1
  V  V25  1  0.37017435  -0.00292830  0.86504082  1
  V  V26  1  0.11064375  -0.00799550  0.62404086  1
  V  V27  1  0.25830488  0.35715246  0.63134829  1
  V  V28  1  0.85972816  0.11730325  0.74017508  1
  V  V29  1  0.11740274  -0.00056246  0.11487559  1
  V  V30  1  0.74816082  0.48636918  0.76766980  1
  V  V31  1  0.50699669  0.51459339  0.49888639  1
  V  V32  1  0.51299185  0.50765462  0.01243317  1
  V  V33  1  0.50897924  0.36013567  0.37544813  1
  V  V34  1  0.49624697  0.64759219  0.15330617  1
  V  V35  1  0.12140100  0.87590237  0.25021660  1
  V  V36  1  0.37503699  0.51164594  0.38157287  1
  V  V37  1  0.62933623  0.13945604  0.49654905  1
  V  V38  1  0.88159847  0.61494676  0.23877491  1
  V  V39  1  0.00210253  0.88565669  0.37797688  1
  V  V40  1  -0.00983532  0.62545046  0.63461841  1
  V  V41  1  0.64149056  -0.01512469  0.61828664  1
  V  V42  1  0.49034809  0.12900087  0.62625640  1
  V  V43  1  0.25758358  0.51861926  0.74771994  1
  V  V44  1  0.10784867  0.73114033  0.87450441  1
  V  V45  1  0.37567208  0.51757951  0.87326555  1
  V  V46  1  0.37219767  0.36141312  0.49926742  1
  V  V47  1  0.87454266  0.12832817  0.24527396  1
  V  V48  1  0.25173147  0.86722358  0.12387222  1
  V  V49  1  0.86605523  -0.00332348  0.37825031  1
  V  V50  1  0.73723541  0.64200342  0.88719855  1
  V  V51  1  0.12708557  0.12687456  0.50394733  1
  V  V52  1  0.24734643  0.73795737  -0.01444385  1
  V  V53  1  0.50664087  -0.01940621  0.49678141  1
  V  V54  1  0.11761633  0.26363517  0.86414767  1
  V  V55  1  0.61118826  0.13228126  -0.01535562  1
  V  V56  1  0.48727589  0.00390182  -0.00249154  1
  V  V57  1  0.62387759  0.35692532  0.24166708  1
  V  V58  1  0.87508129  0.50005098  0.37493638  1
  V  V59  1  0.86772278  0.76836189  0.12741193  1
  V  V60  1  0.74310581  0.74469123  0.50822960  1
  V  V61  1  0.12866900  0.38026318  0.24568044  1
  V  V62  1  0.00276010  0.37205527  0.37430781  1
  V  V63  1  0.37210829  0.24702642  0.14373359  1
  V  V64  1  0.86530056  0.36506598  0.50700531  1
  V  V65  1  0.23813181  -0.00739581  0.74565132  1
  V  V66  1  0.86942240  0.62890739  0.76343032  1
  V  V67  1  -0.00170563  0.13219920  0.11345716  1
  V  V68  1  0.37787361  0.36408877  -0.00834686  1
  V  V69  1  0.74368533  0.25096497  0.01109184  1
  Zn  Zn70  1  0.26614980  0.13423561  0.38810030  1
  Zn  Zn71  1  0.31682492  0.82576152  0.57258870  1
  Zn  Zn72  1  0.12144609  0.13529334  -0.00406777  1
  Zn  Zn73  1  -0.00124521  0.25391848  0.24225253  1
  Zn  Zn74  1  0.11329208  0.86480088  0.75278770  1
  Zn  Zn75  1  0.85964075  0.87190977  0.52874272  1
  Zn  Zn76  1  0.18119988  0.19538946  0.18235792  1
  Zn  Zn77  1  0.19391000  0.17817967  0.69417312  1
  Zn  Zn78  1  0.19263126  0.68982154  0.18883680  1
  Zn  Zn79  1  0.17092879  0.69276665  0.67571588  1
  Zn  Zn80  1  0.67808443  0.17169131  0.19327707  1
  Zn  Zn81  1  0.67094464  0.17502446  0.68407791  1
  Zn  Zn82  1  0.68630481  0.68206231  0.18023222  1
  Zn  Zn83  1  0.68166085  0.68343447  0.69311994  1
  Zn  Zn84  1  0.31449039  0.32070105  0.31644041  1
  Zn  Zn85  1  0.32048819  0.30144422  0.80493819  1
  Zn  Zn86  1  0.28417277  0.83994792  0.34145713  1
  Zn  Zn87  1  0.28505559  0.77714314  0.76649328  1
  Zn  Zn88  1  0.81183983  0.31213100  0.31128538  1
  Zn  Zn89  1  0.81213151  0.29753845  0.82818484  1
  Zn  Zn90  1  0.84855980  0.78225821  0.35289271  1
  Zn  Zn91  1  0.82287538  0.81809477  0.79444351  1
  Zn  Zn92  1  0.19293695  0.44171269  0.44132693  1
  Zn  Zn93  1  0.20101567  0.42865796  0.92541756  1
  Zn  Zn94  1  0.17883994  0.94819186  0.43980401  1
  Zn  Zn95  1  0.18516399  0.92626475  0.93211084  1
  Zn  Zn96  1  0.68617647  0.43747745  0.43637498  1
  Zn  Zn97  1  0.69185951  0.43176279  0.94095583  1
  Zn  Zn98  1  0.69221477  0.92957700  0.42989046  1
  Zn  Zn99  1  0.67946391  0.93842430  0.95311932  1
  Zn  Zn100  1  0.30674601  0.06272593  0.06209374  1
  Zn  Zn101  1  0.32907190  0.02449131  0.57834424  1
  Zn  Zn102  1  0.32647479  0.56185378  0.06474287  1
  Zn  Zn103  1  0.31968190  0.66516123  0.57939776  1
  Zn  Zn104  1  0.81061152  0.09620066  0.05013202  1
  Zn  Zn105  1  0.82118420  0.06544778  0.55853300  1
  Zn  Zn106  1  0.81526673  0.55869925  0.05344429  1
  Zn  Zn107  1  0.80851975  0.55965240  0.55779537  1
  Zn  Zn108  1  0.44061659  0.43494828  0.19063575  1
  Zn  Zn109  1  0.43000416  0.44948894  0.67750027  1
  Zn  Zn110  1  0.42944538  0.93920076  0.18618470  1
  Zn  Zn111  1  0.44388324  0.92351723  0.68620127  1
  Zn  Zn112  1  0.91785014  0.41361272  0.18983735  1
  Zn  Zn113  1  0.92584145  0.44862722  0.68504989  1
  Zn  Zn114  1  0.93295203  0.94324654  0.19086464  1
  Zn  Zn115  1  0.93392002  0.94140462  0.70283718  1
  Zn  Zn116  1  0.05901745  0.06413495  0.30736384  1
  Zn  Zn117  1  0.05188491  0.06710007  0.81364907  1
  Zn  Zn118  1  0.07367672  0.56262464  0.32115788  1
  Zn  Zn119  1  0.06364474  0.55400526  0.81086850  1
  Zn  Zn120  1  0.56951311  0.06730538  0.31198460  1
  Zn  Zn121  1  0.55880707  0.04878554  0.80422859  1
  Zn  Zn122  1  0.55712559  0.55713934  0.30433800  1
  Zn  Zn123  1  0.56915154  0.56571485  0.81601364  1
  Zn  Zn124  1  0.44024105  0.17895201  0.43934134  1
  Zn  Zn125  1  0.43083350  0.18862443  0.90876212  1
  Zn  Zn126  1  0.43198255  0.70127509  0.43202010  1
  Zn  Zn127  1  0.44680841  0.69061871  0.94873960  1
  Zn  Zn128  1  0.94207262  0.18564456  0.44174270  1
  Zn  Zn129  1  0.92262982  0.21597924  0.92095435  1
  Zn  Zn130  1  0.94648814  0.68676450  0.44336268  1
  Zn  Zn131  1  0.89213533  0.74121553  0.92108786  1
  Zn  Zn132  1  0.07125755  0.31226754  0.04861724  1
  Zn  Zn133  1  0.06791863  0.31555581  0.56349497  1
  Zn  Zn134  1  0.05713852  0.80258011  0.05660721  1
  Zn  Zn135  1  0.02397349  0.82121841  0.58227402  1
  Zn  Zn136  1  0.55284176  0.31375800  0.06077168  1
  Zn  Zn137  1  0.55668612  0.31459435  0.56610343  1
  Zn  Zn138  1  0.55615158  0.82535931  0.08795030  1
  Zn  Zn139  1  0.57089621  0.80279494  0.55473152  1
  O  O140  1  0.11675968  0.11540156  0.12251978  1
  O  O141  1  0.11601938  0.12572387  0.62181843  1
  O  O142  1  0.11838890  0.62297429  0.10858769  1
  O  O143  1  0.11110343  0.60826297  0.62360770  1
  O  O144  1  0.60007130  0.12357161  0.10786855  1
  O  O145  1  0.62311223  0.10804564  0.60555221  1
  O  O146  1  0.60027003  0.62725545  0.13818403  1
  O  O147  1  0.60942621  0.60824535  0.63337119  1
  O  O148  1  0.38643030  0.38018905  0.38375727  1
  O  O149  1  0.38393299  0.38046993  0.88207895  1
  O  O150  1  0.37077603  0.90209906  0.37315588  1
  O  O151  1  0.36758967  0.88868409  0.89352741  1
  O  O152  1  0.88580653  0.38246208  0.37738086  1
  O  O153  1  0.88150767  0.33401616  0.91636081  1
  O  O154  1  0.88555699  0.89130076  0.35597978  1
  O  O155  1  0.89273478  0.85360084  0.87772619  1
  O  O156  1  0.24571155  0.00679105  0.36091057  1
  O  O157  1  0.25221062  -0.00053379  0.86801452  1
  O  O158  1  0.26549505  0.49360696  0.36641572  1
  O  O159  1  0.26608917  0.49935558  0.86236454  1
  O  O160  1  0.76283819  0.00472706  0.37024241  1
  O  O161  1  0.79235266  -0.02209214  0.92427218  1
  O  O162  1  0.76057608  0.50643498  0.37058625  1
  O  O163  1  0.74020257  0.51074620  0.86873148  1
  O  O164  1  0.26712076  0.48733362  0.13955533  1
  O  O165  1  0.24818095  0.49401438  0.64043362  1
  O  O166  1  0.23992522  0.99481990  0.13658356  1
  O  O167  1  0.23071439  1.00905857  0.63938798  1
  O  O168  1  0.75319232  0.49866117  0.13762352  1
  O  O169  1  0.73492363  0.50316630  0.62594732  1
  O  O170  1  0.73795368  1.01862664  0.10430991  1
  O  O171  1  0.74014453  0.99605636  0.60658689  1
  O  O172  1  0.00882044  0.37924238  0.25573604  1
  O  O173  1  -0.01432104  0.40428303  0.78253620  1
  O  O174  1  0.01013139  0.87172820  0.25236183  1
  O  O175  1  0.00158521  0.88317743  0.77515799  1
  O  O176  1  0.51210121  0.37863245  0.26434315  1
  O  O177  1  0.49045901  0.38331636  0.75784610  1
  O  O178  1  0.49135894  0.86226342  0.25451418  1
  O  O179  1  0.51731849  0.87020422  0.75102845  1
  O  O180  1  0.49839810  0.12449983  0.23512239  1
  O  O181  1  0.50406383  0.10769758  0.72433699  1
  O  O182  1  0.49246056  0.63406853  0.25540194  1
  O  O183  1  0.50886864  0.64727395  0.75224943  1
  O  O184  1  0.99158836  0.13075295  0.24199176  1
  O  O185  1  0.99456549  0.13080455  0.73593056  1
  O  O186  1  1.00242211  0.63339956  0.25780457  1
  O  O187  1  0.98217061  0.60051668  0.74184248  1
  O  O188  1  0.37868178  0.26388725  -0.00730541  1
  O  O189  1  0.37735125  0.26216456  0.49240054  1
  O  O190  1  0.36661383  0.76313937  -0.00614381  1
  O  O191  1  0.37008458  0.74447679  0.51164952  1
  O  O192  1  0.83833737  0.20266916  -0.00271915  1
  O  O193  1  0.88063307  0.26586170  0.49453064  1
  O  O194  1  0.88932175  0.73759992  0.03315971  1
  O  O195  1  0.86161426  0.75655013  0.47321795  1
  O  O196  1  0.12616819  0.24865642  0.48527095  1
  O  O197  1  0.13349718  0.24875602  0.98056125  1
  O  O198  1  0.10554814  0.73661000  0.52350992  1
  O  O199  1  0.13730451  0.74689770  0.98835382  1
  O  O200  1  0.62906658  0.23716333  0.50724379  1
  O  O201  1  0.61830635  0.24114014  0.99637451  1
  O  O202  1  0.64303869  0.74513601  0.48833882  1
  O  O203  1  0.64900392  0.78254704  1.01206782  1
  O  O204  1  0.48211185  0.23875476  0.11939194  1
  O  O205  1  0.50620595  0.22933263  0.61949407  1
  O  O206  1  0.49198757  0.74825427  0.13066155  1
  O  O207  1  0.50731565  0.73606008  0.62222267  1
  O  O208  1  1.01314858  0.23530064  0.12339924  1
  O  O209  1  1.00507967  0.24857682  0.63022672  1
  O  O210  1  0.99498597  0.75604337  0.14517165  1
  O  O211  1  1.00433945  0.72239928  0.64096369  1
  O  O212  1  0.00985783  0.26275665  0.37340200  1
  O  O213  1  0.01924060  0.24092041  0.87314849  1
  O  O214  1  -0.01304088  0.76649323  0.35588331  1
  O  O215  1  0.00898109  0.73727948  0.88441198  1
  O  O216  1  0.49897749  0.26140437  0.37835911  1
  O  O217  1  0.50978700  0.27065139  0.87790782  1
  O  O218  1  0.49064943  0.77166585  0.35129806  1
  O  O219  1  0.50768200  0.75824244  0.87796822  1
  O  O220  1  0.22989654  0.11673336  0.49813111  1
  O  O221  1  0.24250195  0.11577007  0.98567210  1
  O  O222  1  0.22958034  0.62835318  0.51839893  1
  O  O223  1  0.26200984  0.64134847  1.00829886  1
  O  O224  1  0.74383654  0.12195242  0.48887497  1
  O  O225  1  0.71186019  0.12329246  0.98560470  1
  O  O226  1  0.75850966  0.62957624  0.47941860  1
  O  O227  1  0.75321953  0.62279520  0.98586812  1
  O  O228  1  0.26928966  0.38637368  0.00933335  1
  O  O229  1  0.26649085  0.37889173  0.50555001  1
  O  O230  1  0.25653976  0.86591907  0.00568381  1
  O  O231  1  0.23494040  0.85600163  0.48570164  1
  O  O232  1  0.74422846  0.35271774  0.00544478  1
  O  O233  1  0.76670837  0.38036418  0.49104562  1
  O  O234  1  0.70774898  0.83042685  0.00427571  1
  O  O235  1  0.75232659  0.85436391  0.49108659  1
  O  O236  1  0.14296950  0.48785866  0.26287543  1
  O  O237  1  0.14277745  0.49902327  0.74380989  1
  O  O238  1  0.13359934  0.99517592  0.24176146  1
  O  O239  1  0.12876879  1.00201279  0.74374122  1
  O  O240  1  0.63767658  0.48956434  0.25183985  1
  O  O241  1  0.63695889  0.49871541  0.74270331  1
  O  O242  1  0.63764714  1.03504629  0.22761453  1
  O  O243  1  0.62577738  0.99034459  0.72655332  1
  O  O244  1  0.35843765  0.00261834  0.25503067  1
  O  O245  1  0.36387929  -0.01115694  0.76247430  1
  O  O246  1  0.36883780  0.49167002  0.26431106  1
  O  O247  1  0.36962190  0.50325711  0.76094208  1
  O  O248  1  0.88093865  0.01983645  0.26163336  1
  O  O249  1  0.87710117  0.02110063  0.76445173  1
  O  O250  1  0.86854347  0.49369020  0.25664153  1
  O  O251  1  0.85086465  0.51188778  0.74302189  1
  O  O252  1  0.12272448  0.36748489  0.37071791  1
  O  O253  1  0.13069669  0.36562046  0.86964381  1
  O  O254  1  0.11274562  0.88812479  0.36140049  1
  O  O255  1  0.10836797  0.86350625  0.87745803  1
  O  O256  1  0.61310478  0.37501860  0.37311834  1
  O  O257  1  0.61181247  0.36964871  0.86979962  1
  O  O258  1  0.63045095  0.87441764  0.34079847  1
  O  O259  1  0.64050204  0.89959640  0.85457581  1
  O  O260  1  0.37538367  0.13802100  0.12216654  1
  O  O261  1  0.39191930  0.11580622  0.60635511  1
  O  O262  1  0.39964014  0.61898546  0.12610791  1
  O  O263  1  0.40399773  0.61059491  0.63237298  1
  O  O264  1  0.88722164  0.11803829  0.13648161  1
  O  O265  1  0.88960891  0.12598494  0.62900783  1
  O  O266  1  0.88379873  0.60439617  0.13895380  1
  O  O267  1  0.88808591  0.61152458  0.62334651  1
  O  O268  1  0.26296246  0.25967510  0.12773304  1
  O  O269  1  0.25073886  0.25842580  0.62772316  1
  O  O270  1  0.23932809  0.76182627  0.11427155  1
  O  O271  1  0.26660832  0.74932755  0.65066359  1
  O  O272  1  0.73321986  0.22841394  0.10919082  1
  O  O273  1  0.74935599  0.26637028  0.63049700  1
  O  O274  1  0.77020469  0.74298072  0.14025253  1
  O  O275  1  0.74816343  0.73090814  0.60724117  1
  O  O276  1  0.23785442  0.24777260  0.36716452  1
  O  O277  1  0.24705565  0.23136822  0.86990099  1
  O  O278  1  0.23203166  0.79337468  0.42997974  1
  O  O279  1  0.24875292  0.74776684  0.88326641  1
  O  O280  1  0.75580705  0.23850473  0.38080968  1
  O  O281  1  0.72030521  0.25197308  0.88775390  1
  O  O282  1  0.74974796  0.72566570  0.35790159  1
  O  O283  1  0.76716064  0.74073566  0.87634064  1
  O  O284  1  -0.00542075  0.12534873  0.01351551  1
  O  O285  1  0.01221693  0.13285478  0.51600273  1
  O  O286  1  0.07053545  0.53465512  -0.02522984  1
  O  O287  1  0.00331011  0.61224154  0.51281288  1
  O  O288  1  0.49294933  0.11915634  -0.00191317  1
  O  O289  1  0.52049883  0.11702142  0.49652660  1
  O  O290  1  0.50527125  0.60962631  0.00063371  1
  O  O291  1  0.50092060  0.61449136  0.49329849  1
  O  O292  1  0.49284389  0.37994366  0.49106617  1
  O  O293  1  0.48719528  0.38509285  0.99511104  1
  O  O294  1  0.50776120  0.88162953  0.49395876  1
  O  O295  1  0.48205522  0.88710211  1.01202782  1
  O  O296  1  0.99932409  0.38238481  0.49112506  1
  O  O297  1  1.00827855  0.39435444  1.00526450  1
  O  O298  1  1.00303945  0.86783439  0.47518281  1
  O  O299  1  1.00224860  0.87304641  0.98959683  1
  O  O300  1  0.49447589  0.49312695  0.38291726  1
  O  O301  1  0.49333511  0.49282192  0.87608640  1
  O  O302  1  0.50002973  1.00094867  0.37426248  1
  O  O303  1  0.48088904  1.00390227  0.88207694  1
  O  O304  1  0.99872488  0.49032647  0.38184506  1
  O  O305  1  0.99503624  0.45470925  0.83927309  1
  O  O306  1  0.99259373  0.99214977  0.37082991  1
  O  O307  1  0.99845428  0.99747543  0.88737148  1
  O  O308  1  0.01310849  0.00864960  0.13080625  1
  O  O309  1  0.01247141  0.01494590  0.63518772  1
  O  O310  1  0.07154827  0.57005100  0.13138469  1
  O  O311  1  0.01296140  0.49425144  0.61864481  1
  O  O312  1  0.48693925  0.01613359  0.11664866  1
  O  O313  1  0.51209241  0.00222769  0.60288211  1
  O  O314  1  0.49808972  0.49476520  0.11333954  1
  O  O315  1  0.50862469  0.50546222  0.61288380  1
  O  O316  1  0.24666643  0.38191684  0.24242129  1
  O  O317  1  0.26918654  0.37447477  0.73386806  1
  O  O318  1  0.23891103  0.87656072  0.24372546  1
  O  O319  1  0.23774232  0.88913441  0.75579169  1
  O  O320  1  0.73889127  0.38197355  0.25602047  1
  O  O321  1  0.76205478  0.38698893  0.77242266  1
  O  O322  1  0.67136283  0.83501229  0.28461833  1
  O  O323  1  0.74185297  0.86824623  0.73572359  1
  O  O324  1  0.24161708  0.11725868  0.24744925  1
  O  O325  1  0.24954337  0.10475513  0.76568924  1
  O  O326  1  0.24579902  0.60683505  0.24335699  1
  O  O327  1  0.25214845  0.61592259  0.74580129  1
  O  O328  1  0.76591247  0.13164618  0.26338863  1
  O  O329  1  0.76026766  0.12020893  0.72429238  1
  O  O330  1  0.76055951  0.60579107  0.25615328  1
  O  O331  1  0.75454034  0.61954498  0.76348897  1
  O  O332  1  0.37572955  0.11138006  0.37242776  1
  O  O333  1  0.35710047  0.10211743  0.88379538  1
  O  O334  1  0.37835239  0.61044527  0.37896389  1
  O  O335  1  0.38305232  0.61522235  0.87945108  1
  O  O336  1  0.86950075  0.11748544  0.37467792  1
  O  O337  1  0.86774505  0.19190637  0.81526373  1
  O  O338  1  0.88282434  0.60870528  0.36258394  1
  O  O339  1  0.87309524  0.62859014  0.86515998  1
  O  O340  1  0.13953652  0.36768840  0.13406381  1
  O  O341  1  0.14769256  0.38280382  0.61480298  1
  O  O342  1  0.12890883  0.88552861  0.13093943  1
  O  O343  1  0.11011944  0.88906547  0.62982718  1
  O  O344  1  0.61372824  0.36565187  0.14247697  1
  O  O345  1  0.61753877  0.39038431  0.62522180  1
  O  O346  1  0.61914251  0.90882757  0.12781181  1
  O  O347  1  0.62553076  0.88261548  0.62232683  1
  O  O348  1  0.12264125  0.26256620  0.26001355  1
  O  O349  1  0.13418547  0.24455739  0.76410999  1
  O  O350  1  0.11649837  0.75676671  0.24780118  1
  O  O351  1  0.13359194  0.75039480  0.76902091  1
  O  O352  1  0.63114324  0.25769395  0.25492351  1
  O  O353  1  0.62604978  0.24782158  0.75713572  1
  O  O354  1  0.62960017  0.77952766  0.24962599  1
  O  O355  1  0.61937583  0.76697999  0.74868288  1
  O  O356  1  0.37512524  0.25325830  0.24221898  1
  O  O357  1  0.39975034  0.22415355  0.79955940  1
  O  O358  1  0.44902990  0.80502439  0.29318111  1
  O  O359  1  0.40013305  0.76684593  0.76164065  1
  O  O360  1  0.88125340  0.23704235  0.25650483  1
  O  O361  1  0.80974023  0.26929149  0.67382780  1
  O  O362  1  0.88791270  0.73295778  0.24282037  1
  O  O363  1  0.86980839  0.72576013  0.73907415  1
  O  O364  1  0.39038927  0.49162679  0.48745532  1
  O  O365  1  0.38416622  0.49440609  0.98482578  1
  O  O366  1  0.39855477  1.00608772  0.48174193  1
  O  O367  1  0.37356191  0.99206025  0.99671348  1
  O  O368  1  0.88667030  0.49330408  0.49001645  1
  O  O369  1  0.87443427  0.48766012  0.98800649  1
  O  O370  1  0.87324813  0.99238856  0.48265480  1
  O  O371  1  0.84584033  1.00797087  0.96878256  1
  O  O372  1  0.13125592  -0.00281750  0.01540315  1
  O  O373  1  0.12116118  0.00766184  0.51708492  1
  O  O374  1  0.13687809  0.51010211  -0.00345261  1
  O  O375  1  0.11866109  0.50307994  0.50727499  1
  O  O376  1  0.60511144  0.01267976  0.00230767  1
  O  O377  1  0.61994097  -0.00448846  0.49631161  1
  O  O378  1  0.60999847  0.48763727  -0.00355654  1
  O  O379  1  0.61315136  0.49668109  0.50704502  1
  O  O380  1  0.37437156  0.36096346  0.11734935  1
  O  O381  1  0.37020986  0.37668150  0.60966730  1
  O  O382  1  0.35916009  0.88226598  0.11361917  1
  O  O383  1  0.36288609  0.91823771  0.61231741  1
  O  O384  1  0.88236517  0.36332076  0.09978166  1
  O  O385  1  0.88080314  0.38304016  0.60600535  1
  O  O386  1  0.87038825  0.86927903  0.13372276  1
  O  O387  1  0.92257086  0.86929777  0.61850520  1
  O  O388  1  0.11636267  0.14037440  0.37923811  1
  O  O389  1  0.13388174  0.12128172  0.87621647  1
  O  O390  1  0.11839546  0.63111208  0.39797878  1
  O  O391  1  0.12199029  0.63023891  0.86984932  1
  O  O392  1  0.64142789  0.12393784  0.38341602  1
  O  O393  1  0.59703214  0.13919268  0.87708244  1
  O  O394  1  0.63709769  0.61439005  0.36832973  1
  O  O395  1  0.63710765  0.63698237  0.87393022  1
