# generated using pymatgen
data_V35Zn35O128
_symmetry_space_group_name_H-M   'P 1'
_cell_length_a   16.92338823
_cell_length_b   16.99617618
_cell_length_c   17.01587239
_cell_angle_alpha   90.26550096
_cell_angle_beta   89.41673320
_cell_angle_gamma   90.19336568
_symmetry_Int_Tables_number   1
_chemical_formula_structural   V35Zn35O128
_chemical_formula_sum   'V70 Zn70 O256'
_cell_volume   4893.99126868
_cell_formula_units_Z   2
loop_
 _symmetry_equiv_pos_site_id
 _symmetry_equiv_pos_as_xyz
  1  'x, y, z'
loop_
 _atom_site_type_symbol
 _atom_site_label
 _atom_site_symmetry_multiplicity
 _atom_site_fract_x
 _atom_site_fract_y
 _atom_site_fract_z
 _atom_site_occupancy
  V  V0  1  0.63029314  0.61675098  0.49840812  1
  V  V1  1  0.37295011  0.37192716  0.00505888  1
  V  V2  1  0.50168454  0.24732838  0.24562892  1
  V  V3  1  0.36768331  0.24166637  0.13468306  1
  V  V4  1  0.86664507  0.62226112  0.23966392  1
  V  V5  1  0.62434951  0.25436712  0.36591007  1
  V  V6  1  0.36463756  0.36739510  0.50529897  1
  V  V7  1  0.62008499  -0.01639589  0.12357443  1
  V  V8  1  0.73751591  0.12303554  0.36722230  1
  V  V9  1  0.00361316  0.87770457  0.37450535  1
  V  V10  1  0.67012135  0.07764192  0.55529345  1
  V  V11  1  0.74982451  0.24457781  0.00659986  1
  V  V12  1  0.49417062  -0.00152029  0.50765231  1
  V  V13  1  0.86813704  -0.00081944  0.37066317  1
  V  V14  1  -0.00960931  0.75311025  0.25200408  1
  V  V15  1  0.00753136  0.49297684  -0.01893374  1
  V  V16  1  0.68991208  0.80860612  0.54915888  1
  V  V17  1  0.23960026  0.25085837  0.00406079  1
  V  V18  1  0.50856096  0.60733798  0.63603914  1
  V  V19  1  0.00413336  0.11093750  0.13080154  1
  V  V20  1  0.88032184  0.25555318  0.12068731  1
  V  V21  1  0.24829179  0.53204755  0.73082146  1
  V  V22  1  0.63674384  0.62550704  -0.00595825  1
  V  V23  1  0.12008578  0.10113036  -0.00409362  1
  V  V24  1  0.13275273  -0.00739073  0.61402786  1
  V  V25  1  -0.00651567  0.74797851  0.76629086  1
  V  V26  1  0.74850281  0.62320004  0.37285658  1
  V  V27  1  0.01684782  0.63606575  0.12056043  1
  V  V28  1  0.49575287  0.14982583  0.61977083  1
  V  V29  1  0.25702138  0.75946690  -0.01954965  1
  V  V30  1  0.10706497  0.88014852  0.75825316  1
  V  V31  1  0.50146340  0.49636386  0.49783105  1
  V  V32  1  0.49251010  0.62415385  0.12877133  1
  V  V33  1  0.87985797  0.48351686  0.36509818  1
  V  V34  1  0.73802806  -0.01189203  0.24627368  1
  V  V35  1  0.34808025  0.50383198  0.88251883  1
  V  V36  1  0.37371326  0.50739285  0.35873203  1
  V  V37  1  0.62753366  0.75876424  0.36406057  1
  V  V38  1  0.36108184  0.02042777  0.37406087  1
  V  V39  1  0.74412961  0.25121257  0.50063088  1
  V  V40  1  0.59054532  0.36623869  0.76023378  1
  V  V41  1  0.88126058  0.75471862  0.63100416  1
  V  V42  1  0.50086788  0.11884533  0.13087555  1
  V  V43  1  0.49535186  0.50040110  -0.00753782  1
  V  V44  1  0.25240812  0.12439379  0.87341885  1
  V  V45  1  0.29305650  0.75297289  0.52624906  1
  V  V46  1  0.51864493  0.85337029  0.87717722  1
  V  V47  1  0.39352041  0.74514203  0.66091531  1
  V  V48  1  0.20820347  -0.03636783  0.19884931  1
  V  V49  1  0.48927647  -0.00417978  -0.01023169  1
  V  V50  1  0.75119395  0.76719800  -0.00736045  1
  V  V51  1  0.74679179  0.12237837  0.85645063  1
  V  V52  1  0.12353019  0.24861033  0.34478888  1
  V  V53  1  0.74336325  0.48256326  0.24112682  1
  V  V54  1  0.26387391  -0.00943878  0.74284516  1
  V  V55  1  0.37559299  0.15228044  0.74486541  1
  V  V56  1  0.36846121  0.76384782  0.12434825  1
  V  V57  1  -0.00712288  -0.00072388  0.50693886  1
  V  V58  1  0.86162197  0.37417319  0.50736590  1
  V  V59  1  0.12538307  0.73867617  0.37771844  1
  V  V60  1  0.54697728  0.72621962  0.76277504  1
  V  V61  1  0.49615521  0.75079660  0.24830346  1
  V  V62  1  0.12952128  0.64225260  -0.02694277  1
  V  V63  1  0.85843014  0.77272402  0.12833031  1
  V  V64  1  0.62297256  0.48653005  0.12922587  1
  V  V65  1  0.87818281  -0.00180664  0.85749655  1
  V  V66  1  0.48701448  0.87461464  0.37658425  1
  V  V67  1  0.87497183  0.12399053  0.24401249  1
  V  V68  1  0.86564125  0.86826550  0.50184972  1
  V  V69  1  0.49867315  0.37661652  0.36618730  1
  Zn  Zn70  1  0.73014174  0.41664884  0.67181823  1
  Zn  Zn71  1  0.24462864  0.61740343  0.38429140  1
  Zn  Zn72  1  0.94711843  0.94660464  0.02152748  1
  Zn  Zn73  1  0.60621468  0.15279805  -0.02772501  1
  Zn  Zn74  1  0.02896499  0.61403324  0.60605085  1
  Zn  Zn75  1  0.10811999  0.15411991  0.50726691  1
  Zn  Zn76  1  0.19352797  0.15965750  0.18411914  1
  Zn  Zn77  1  0.18713966  0.17224264  0.67306243  1
  Zn  Zn78  1  0.16219869  0.76971852  0.16993419  1
  Zn  Zn79  1  0.18044572  0.69476275  0.70413669  1
  Zn  Zn80  1  0.68527302  0.18789317  0.17884561  1
  Zn  Zn81  1  0.70708575  0.23878474  0.71077712  1
  Zn  Zn82  1  0.68302285  0.68074764  0.18211469  1
  Zn  Zn83  1  0.70827693  0.66517797  0.67353014  1
  Zn  Zn84  1  0.27860104  0.20203272  0.42602855  1
  Zn  Zn85  1  0.31380973  0.31327611  0.82956137  1
  Zn  Zn86  1  0.30998037  0.81032142  0.30669386  1
  Zn  Zn87  1  0.33384441  0.82656542  0.81334421  1
  Zn  Zn88  1  0.81259457  0.30464669  0.30406400  1
  Zn  Zn89  1  0.74181503  0.33316751  0.85130638  1
  Zn  Zn90  1  0.80893452  0.81358174  0.31454094  1
  Zn  Zn91  1  0.80381936  0.82331913  0.81353226  1
  Zn  Zn92  1  0.22157337  0.39114607  0.38722270  1
  Zn  Zn93  1  0.16948779  0.43586091  0.96169517  1
  Zn  Zn94  1  0.19168277  0.91738575  0.44136427  1
  Zn  Zn95  1  0.20680978  0.94004821  0.92372289  1
  Zn  Zn96  1  0.68627323  0.43702584  0.42617759  1
  Zn  Zn97  1  0.66063342  0.41312579  0.96471589  1
  Zn  Zn98  1  0.64557503  0.91196666  0.73681200  1
  Zn  Zn99  1  0.68762069  0.94994083  0.93578268  1
  Zn  Zn100  1  0.31507573  0.05948851  0.06120277  1
  Zn  Zn101  1  0.32221968  0.05883037  0.56606788  1
  Zn  Zn102  1  0.31116873  0.57894377  0.05260701  1
  Zn  Zn103  1  0.32380196  0.57208946  0.55707961  1
  Zn  Zn104  1  0.80069369  0.05932465  0.06116575  1
  Zn  Zn105  1  0.81794495  0.07880019  0.67916691  1
  Zn  Zn106  1  0.81656410  0.55132609  0.05502772  1
  Zn  Zn107  1  0.85096440  0.57162334  0.54800873  1
  Zn  Zn108  1  0.43615595  0.42936743  0.18098007  1
  Zn  Zn109  1  0.41807997  0.43352976  0.69280584  1
  Zn  Zn110  1  0.43390891  0.93554514  0.19839956  1
  Zn  Zn111  1  0.45985760  0.94002107  0.71873931  1
  Zn  Zn112  1  0.93713621  0.45440988  0.16465980  1
  Zn  Zn113  1  0.99014024  0.43171718  0.60871435  1
  Zn  Zn114  1  1.03510285  0.93695604  0.19521952  1
  Zn  Zn115  1  0.92974903  0.93431990  0.68608060  1
  Zn  Zn116  1  0.17079068  0.06229346  0.32974768  1
  Zn  Zn117  1  0.07101283  0.05997966  0.81120539  1
  Zn  Zn118  1  0.05323213  0.57086081  0.31341912  1
  Zn  Zn119  1  0.04416903  0.53817489  0.77468148  1
  Zn  Zn120  1  0.55521012  0.05930345  0.31298399  1
  Zn  Zn121  1  0.55973126  0.07394668  0.79998922  1
  Zn  Zn122  1  0.56226505  0.56588998  0.30921209  1
  Zn  Zn123  1  0.58328937  0.53893793  0.81516877  1
  Zn  Zn124  1  0.44655175  0.18916216  0.43873942  1
  Zn  Zn125  1  0.43237763  0.18360780  0.93793958  1
  Zn  Zn126  1  0.44428797  0.68063084  0.43757371  1
  Zn  Zn127  1  0.43674346  0.68060235  0.94082794  1
  Zn  Zn128  1  0.93373482  0.18444022  0.43727605  1
  Zn  Zn129  1  0.91124806  0.13897703  0.96002622  1
  Zn  Zn130  1  0.94016263  0.68206750  0.44035196  1
  Zn  Zn131  1  0.97053571  0.76035539  0.97582754  1
  Zn  Zn132  1  0.05100440  0.30329085  0.05984579  1
  Zn  Zn133  1  0.05880575  0.32518448  0.46820780  1
  Zn  Zn134  1  0.11776012  0.86542926  0.03665314  1
  Zn  Zn135  1  0.09240878  0.78574297  0.58513301  1
  Zn  Zn136  1  0.54528205  0.29808678  0.03743028  1
  Zn  Zn137  1  0.57261505  0.32433287  0.56070938  1
  Zn  Zn138  1  0.56334897  0.80799060  0.05969958  1
  Zn  Zn139  1  0.51443288  0.82985033  0.58301698  1
  O  O140  1  0.11164269  0.11675237  0.11073259  1
  O  O141  1  0.12089688  0.09602120  0.61396703  1
  O  O142  1  0.11231702  0.65869070  0.13469838  1
  O  O143  1  0.12217313  0.67771410  0.61207171  1
  O  O144  1  0.60848773  0.11431591  0.12932384  1
  O  O145  1  0.60461594  0.12823092  0.62096947  1
  O  O146  1  0.61270586  0.61617333  0.11527296  1
  O  O147  1  0.61891557  0.62112153  0.60864662  1
  O  O148  1  0.39049902  0.39305364  0.38579386  1
  O  O149  1  0.36601892  0.38710844  0.89609355  1
  O  O150  1  0.38541907  0.86789394  0.37636608  1
  O  O151  1  0.43040077  0.88653851  0.83292558  1
  O  O152  1  0.87446297  0.38180653  0.36285329  1
  O  O153  1  0.85972487  0.42131574  0.84778002  1
  O  O154  1  0.87066563  0.88097524  0.38410685  1
  O  O155  1  0.86867642  0.89906189  0.87389092  1
  O  O156  1  0.25829963  -0.00271348  0.39026072  1
  O  O157  1  0.25601950  0.01359485  0.85381153  1
  O  O158  1  0.26854837  0.49785754  0.37428102  1
  O  O159  1  0.25037073  0.50135653  0.90228849  1
  O  O160  1  0.75175816  0.01113448  0.36171203  1
  O  O161  1  0.75765375  0.01439767  0.87358572  1
  O  O162  1  0.75191856  0.50524072  0.35690914  1
  O  O163  1  0.80461592  0.56570203  0.86132253  1
  O  O164  1  0.22897069  0.49927122  0.10984402  1
  O  O165  1  0.26004495  0.51707954  0.63175942  1
  O  O166  1  0.24786854  0.98229529  0.10744194  1
  O  O167  1  0.24220513  0.99776353  0.62904726  1
  O  O168  1  0.73307051  0.50005168  0.12692792  1
  O  O169  1  0.77375550  0.52125427  0.63901982  1
  O  O170  1  0.73292836  1.00202721  0.13638892  1
  O  O171  1  0.73144245  1.02644936  0.61228637  1
  O  O172  1  0.04073747  0.39575363  0.21515612  1
  O  O173  1  0.00044136  0.31573547  0.67192876  1
  O  O174  1  -0.01964493  0.86440886  0.26637660  1
  O  O175  1  0.00398659  0.87666066  0.75208040  1
  O  O176  1  0.49138728  0.35913730  0.25570454  1
  O  O177  1  0.49130075  0.38534219  0.76154995  1
  O  O178  1  0.49923740  0.85980849  0.26165560  1
  O  O179  1  0.54706045  0.82677032  0.75524789  1
  O  O180  1  0.49766273  0.13685735  0.24520596  1
  O  O181  1  0.48356027  0.13815228  0.73673838  1
  O  O182  1  0.50498575  0.63747285  0.23977523  1
  O  O183  1  0.51861456  0.61036449  0.74141422  1
  O  O184  1  0.99015307  0.11498041  0.23199028  1
  O  O185  1  1.04100793  0.16456915  0.75100078  1
  O  O186  1  0.98577910  0.63444315  0.24244569  1
  O  O187  1  1.00595430  0.65054062  0.75161434  1
  O  O188  1  0.36301748  0.25471096  0.00753704  1
  O  O189  1  0.37116441  0.26599312  0.47969150  1
  O  O190  1  0.36546722  0.74559390  0.01067484  1
  O  O191  1  0.39593669  0.75546462  0.51570569  1
  O  O192  1  0.86793946  0.23586317  0.01333919  1
  O  O193  1  0.85592764  0.26180955  0.48400108  1
  O  O194  1  0.86033479  0.75038504  0.02097372  1
  O  O195  1  0.87784764  0.76532081  0.50533705  1
  O  O196  1  0.10267534  0.25893590  0.54518428  1
  O  O197  1  0.13785603  0.23921983  1.01229878  1
  O  O198  1  0.11147403  0.76051950  0.47378242  1
  O  O199  1  0.14468094  0.74963628  0.99808580  1
  O  O200  1  0.63263722  0.25771768  0.47856541  1
  O  O201  1  0.64987320  0.24845913  1.03781124  1
  O  O202  1  0.63252715  0.74067261  0.48910651  1
  O  O203  1  0.63959426  0.73534774  1.00665950  1
  O  O204  1  0.49095393  0.23920810  0.12899190  1
  O  O205  1  0.49680267  0.24613925  0.60794957  1
  O  O206  1  0.49410367  0.74386178  0.12938285  1
  O  O207  1  0.51194669  0.72625570  0.65135486  1
  O  O208  1  0.98740375  0.22572352  0.11425278  1
  O  O209  1  0.94567082  0.26707823  0.67395268  1
  O  O210  1  0.97394467  0.74274145  0.13906311  1
  O  O211  1  0.98396318  0.75954724  0.63145408  1
  O  O212  1  0.02410916  0.23595631  0.38663074  1
  O  O213  1  -0.00010997  0.31158091  0.83710789  1
  O  O214  1  -0.00818863  0.75685040  0.36935164  1
  O  O215  1  -0.02198163  0.75479446  0.86296278  1
  O  O216  1  0.50599185  0.25538113  0.36477890  1
  O  O217  1  0.52898108  0.23606977  0.94110018  1
  O  O218  1  0.50823445  0.75113499  0.36935360  1
  O  O219  1  0.51144326  0.74325597  0.87160209  1
  O  O220  1  0.25215109  0.14986763  0.53018475  1
  O  O221  1  0.24238814  0.12408633  0.99310940  1
  O  O222  1  0.26783032  0.65566555  0.49523379  1
  O  O223  1  0.23794574  0.64344436  0.99740110  1
  O  O224  1  0.73433794  0.13466602  0.48467284  1
  O  O225  1  0.73923069  0.13308325  0.99837730  1
  O  O226  1  0.74495556  0.61362496  0.48088476  1
  O  O227  1  0.73865523  0.61875535  1.00558149  1
  O  O228  1  0.24698472  0.35655330  0.00528386  1
  O  O229  1  0.26761236  0.38575449  0.49502312  1
  O  O230  1  0.23854611  0.86208362  -0.00210006  1
  O  O231  1  0.25175248  0.83750832  0.49373235  1
  O  O232  1  0.75414838  0.34902805  -0.02623729  1
  O  O233  1  0.74821987  0.35995151  0.48431024  1
  O  O234  1  0.73807268  0.86510976  -0.00154136  1
  O  O235  1  0.75619777  0.87062471  0.49658728  1
  O  O236  1  0.15100990  0.53321016  0.24921006  1
  O  O237  1  0.15438989  0.50462446  0.75719437  1
  O  O238  1  0.11743156  0.98985486  0.25620965  1
  O  O239  1  0.13273862  0.99462435  0.73507986  1
  O  O240  1  0.62703316  0.50112924  0.23581647  1
  O  O241  1  0.64136425  0.46757014  0.75374192  1
  O  O242  1  0.63189261  1.00095372  0.24480142  1
  O  O243  1  0.56386188  0.98433886  0.73371337  1
  O  O244  1  0.38195798  0.00037620  0.27739289  1
  O  O245  1  0.36301707  0.00617927  0.73386738  1
  O  O246  1  0.38533672  0.49627727  0.26027674  1
  O  O247  1  0.34100521  0.48253373  0.77162173  1
  O  O248  1  0.85925862  0.00929459  0.25874786  1
  O  O249  1  0.86560951  0.00249326  0.74953693  1
  O  O250  1  0.86451126  0.50217611  0.24824855  1
  O  O251  1  0.89155020  0.43547374  0.78375943  1
  O  O252  1  0.11156297  0.35823726  0.37008219  1
  O  O253  1  0.14931470  0.36601345  0.85201739  1
  O  O254  1  0.10561160  0.87090931  0.37270031  1
  O  O255  1  0.12505529  0.89545926  0.85516004  1
  O  O256  1  0.61060621  0.36784690  0.36954193  1
  O  O257  1  0.62830511  0.37130342  0.86543762  1
  O  O258  1  0.61652767  0.85595143  0.37557532  1
  O  O259  1  0.61390865  0.89090618  0.86852782  1
  O  O260  1  0.38553831  0.13326710  0.11795894  1
  O  O261  1  0.38395064  0.13016697  0.63610539  1
  O  O262  1  0.38736014  0.63179019  0.11954679  1
  O  O263  1  0.40278979  0.63507792  0.62527654  1
  O  O264  1  0.88177679  0.12220892  0.12965537  1
  O  O265  1  0.88224413  0.13087623  0.60676126  1
  O  O266  1  0.87088802  0.62127464  0.13602166  1
  O  O267  1  0.85879772  0.65777620  0.62635104  1
  O  O268  1  0.26051845  0.23028296  0.11640052  1
  O  O269  1  0.25460938  0.21027575  0.58812519  1
  O  O270  1  0.26648091  0.75231465  0.12837302  1
  O  O271  1  0.28649592  0.75053547  0.63246236  1
  O  O272  1  0.77016918  0.24478436  0.12087414  1
  O  O273  1  0.73703257  0.24059828  0.59767569  1
  O  O274  1  0.75451129  0.75130160  0.12481575  1
  O  O275  1  0.74822968  0.75598267  0.61317946  1
  O  O276  1  0.23075668  0.27664086  0.35908063  1
  O  O277  1  0.25333720  0.23613203  0.89564190  1
  O  O278  1  0.22948484  0.74238561  0.35608247  1
  O  O279  1  0.27185518  0.76026556  0.88248138  1
  O  O280  1  0.74154120  0.23964212  0.37004123  1
  O  O281  1  0.74851330  0.22525919  0.89315213  1
  O  O282  1  0.73624466  0.73791117  0.36409056  1
  O  O283  1  0.76508751  0.75085226  0.89550886  1
  O  O284  1  0.01759813  0.12075715  -0.00063876  1
  O  O285  1  0.00211055  0.09888864  0.48552692  1
  O  O286  1  0.01640434  0.65355629  0.01199921  1
  O  O287  1  -0.04020845  0.60449765  0.51537669  1
  O  O288  1  0.49931128  0.10362628  0.01572803  1
  O  O289  1  0.48994494  0.11767878  0.51468590  1
  O  O290  1  0.50791572  0.61785077  0.00999094  1
  O  O291  1  0.51210987  0.61465495  0.50654582  1
  O  O292  1  0.50052164  0.38379932  0.48877043  1
  O  O293  1  0.48306955  0.38948999  1.01004394  1
  O  O294  1  0.50477494  0.89152431  0.48820101  1
  O  O295  1  0.50556900  0.87488156  0.98163874  1
  O  O296  1  0.96917510  0.38029233  0.51133497  1
  O  O297  1  1.04830205  0.39672650  0.99540716  1
  O  O298  1  0.98453831  0.88041102  0.48444052  1
  O  O299  1  1.01015462  0.85973059  1.00918662  1
  O  O300  1  0.49778171  0.49622916  0.37737634  1
  O  O301  1  0.49694816  0.50172376  0.89217392  1
  O  O302  1  0.48889694  0.99529590  0.38292043  1
  O  O303  1  0.50159951  1.01231037  0.89388154  1
  O  O304  1  0.97855756  0.50039029  0.36064885  1
  O  O305  1  1.00784827  0.50612211  0.88220510  1
  O  O306  1  0.98611395  0.98283714  0.37452614  1
  O  O307  1  0.97964628  1.01694650  0.85937856  1
  O  O308  1  -0.00869560  0.00750599  0.11628394  1
  O  O309  1  0.00249813  -0.01025692  0.60890403  1
  O  O310  1  0.00994667  0.53212688  0.12040412  1
  O  O311  1  0.00312283  0.51941536  0.66823160  1
  O  O312  1  0.50650043  0.00109553  0.13237409  1
  O  O313  1  0.48155483  -0.00422256  0.60534784  1
  O  O314  1  0.50481194  0.50658620  0.12196100  1
  O  O315  1  0.49290865  0.50609764  0.61734333  1
  O  O316  1  0.24847994  0.44768595  0.15869570  1
  O  O317  1  0.19970550  0.35365070  0.79673012  1
  O  O318  1  0.25978622  0.89381382  0.24921396  1
  O  O319  1  0.25430118  0.88932263  0.75513965  1
  O  O320  1  0.74956775  0.38382603  0.24835168  1
  O  O321  1  0.76346691  0.33440538  0.74274900  1
  O  O322  1  0.74918148  0.89093530  0.25495844  1
  O  O323  1  0.74373901  0.87048900  0.73600988  1
  O  O324  1  0.23877344  0.06837096  0.23262688  1
  O  O325  1  0.25944936  0.12205123  0.75175475  1
  O  O326  1  0.20892175  0.58139211  0.25085801  1
  O  O327  1  0.25668026  0.63039567  0.75020433  1
  O  O328  1  0.75432551  0.11932034  0.25216839  1
  O  O329  1  0.74534890  0.13710165  0.75319433  1
  O  O330  1  0.75041545  0.61383352  0.25394110  1
  O  O331  1  0.76176776  0.56872243  0.70318402  1
  O  O332  1  0.36266073  0.12367738  0.38265240  1
  O  O333  1  0.36910480  0.13372274  0.85564922  1
  O  O334  1  0.37607167  0.61156433  0.37557173  1
  O  O335  1  0.37505390  0.60062529  0.88563813  1
  O  O336  1  0.86431978  0.11778872  0.36676735  1
  O  O337  1  0.85715009  0.11909457  0.86273761  1
  O  O338  1  0.86390567  0.61651714  0.35928053  1
  O  O339  1  0.86047998  0.59831779  0.82822074  1
  O  O340  1  0.08995953  0.37049787  0.16342169  1
  O  O341  1  0.12349314  0.45054577  0.54692021  1
  O  O342  1  0.13157263  0.88083785  0.14936517  1
  O  O343  1  0.12418355  0.88371406  0.64002858  1
  O  O344  1  0.61219814  0.39027764  0.11473632  1
  O  O345  1  0.62389877  0.37291613  0.64635401  1
  O  O346  1  0.61436834  0.88501868  0.12931460  1
  O  O347  1  0.62406006  0.86085180  0.60536863  1
  O  O348  1  0.12300551  0.22755772  0.24730978  1
  O  O349  1  0.09717055  0.21591525  0.74142015  1
  O  O350  1  0.09877444  0.74995630  0.26501151  1
  O  O351  1  0.10825691  0.77211039  0.75399960  1
  O  O352  1  0.61538797  0.24881637  0.25392362  1
  O  O353  1  0.60338793  0.26434264  0.75245365  1
  O  O354  1  0.61663035  0.74400495  0.25970584  1
  O  O355  1  0.64393750  0.70538464  0.76183019  1
  O  O356  1  0.38008895  0.24657333  0.23318146  1
  O  O357  1  0.35985421  0.25077696  0.74590051  1
  O  O358  1  0.38386656  0.74970624  0.23639062  1
  O  O359  1  0.39008147  0.73570155  0.75899721  1
  O  O360  1  0.87251184  0.23346604  0.23626298  1
  O  O361  1  0.94515556  0.26385793  0.83519072  1
  O  O362  1  0.86873399  0.74214772  0.24393713  1
  O  O363  1  0.88242222  0.76852838  0.73865556  1
  O  O364  1  0.39062150  0.49845487  0.49212291  1
  O  O365  1  0.37535769  0.49338397  1.00108852  1
  O  O366  1  0.38378477  1.00319921  0.48573996  1
  O  O367  1  0.39007346  0.99124285  1.00472996  1
  O  O368  1  0.85230139  0.48124417  0.47263081  1
  O  O369  1  0.90798255  0.49824578  1.01029840  1
  O  O370  1  0.88365196  0.98874762  0.48814704  1
  O  O371  1  0.87659507  1.02155323  0.98307875  1
  O  O372  1  0.12899658  0.00187505  -0.00575299  1
  O  O373  1  0.11438274  -0.02063305  0.50829358  1
  O  O374  1  0.11218850  0.53560866  -0.00236742  1
  O  O375  1  0.12910609  0.51654989  0.51590112  1
  O  O376  1  0.61374196  -0.00491288  0.01868663  1
  O  O377  1  0.60777631  0.01607261  0.50297052  1
  O  O378  1  0.61561140  0.50599649  0.01205564  1
  O  O379  1  0.61568290  0.50592524  0.48880565  1
  O  O380  1  0.37349598  0.35462328  0.11742136  1
  O  O381  1  0.38034032  0.37688650  0.60418243  1
  O  O382  1  0.38620150  0.86146433  0.12401640  1
  O  O383  1  0.41894339  0.84711095  0.65080437  1
  O  O384  1  0.89654134  0.35454302  0.12759514  1
  O  O385  1  0.84564297  0.38921887  0.60293866  1
  O  O386  1  0.86898002  0.86834848  0.13015035  1
  O  O387  1  0.87103147  0.87302635  0.60708285  1
  O  O388  1  0.15617443  0.15112057  0.39710293  1
  O  O389  1  0.13761905  0.11870157  0.88741094  1
  O  O390  1  0.12032368  0.63370262  0.38045243  1
  O  O391  1  0.12299736  0.64356219  0.87820676  1
  O  O392  1  0.62936279  0.13571414  0.36401726  1
  O  O393  1  0.63880703  0.10989433  0.87060375  1
  O  O394  1  0.62864425  0.63136600  0.38150841  1
  O  O395  1  0.62415611  0.61076213  0.89645715  1
