# generated using pymatgen
data_V35Zn35O128
_symmetry_space_group_name_H-M   'P 1'
_cell_length_a   16.88700725
_cell_length_b   16.87946938
_cell_length_c   16.87314709
_cell_angle_alpha   90.02543585
_cell_angle_beta   89.88430808
_cell_angle_gamma   90.02379640
_symmetry_Int_Tables_number   1
_chemical_formula_structural   V35Zn35O128
_chemical_formula_sum   'V70 Zn70 O256'
_cell_volume   4809.57395178
_cell_formula_units_Z   2
loop_
 _symmetry_equiv_pos_site_id
 _symmetry_equiv_pos_as_xyz
  1  'x, y, z'
loop_
 _atom_site_type_symbol
 _atom_site_label
 _atom_site_symmetry_multiplicity
 _atom_site_fract_x
 _atom_site_fract_y
 _atom_site_fract_z
 _atom_site_occupancy
  V  V0  1  0.87409849  0.88180809  0.00068441  1
  V  V1  1  0.10503400  0.63008374  0.50636432  1
  V  V2  1  0.01243485  0.25314861  0.24897042  1
  V  V3  1  0.63057308  0.23789532  0.89678527  1
  V  V4  1  0.50854549  0.24613563  0.25887686  1
  V  V5  1  0.01055496  0.61279847  0.11108411  1
  V  V6  1  0.37292285  0.25692261  0.63542653  1
  V  V7  1  -0.00622024  0.12301310  0.11754823  1
  V  V8  1  0.06602357  0.81512745  0.69692912  1
  V  V9  1  0.62162287  0.76418634  0.87344437  1
  V  V10  1  0.62643489  0.13153551  0.48397009  1
  V  V11  1  0.51400511  0.25451114  0.75282425  1
  V  V12  1  0.37058821  0.01988367  0.87070787  1
  V  V13  1  0.73937163  0.49691898  0.73605171  1
  V  V14  1  0.75892943  0.11641142  0.88051045  1
  V  V15  1  0.23046639  0.50104398  0.25020891  1
  V  V16  1  0.88300729  0.63048780  0.25252382  1
  V  V17  1  0.88957143  0.63136252  0.74753346  1
  V  V18  1  0.50636517  0.51437310  0.00423130  1
  V  V19  1  0.24510862  0.73658830  0.00500756  1
  V  V20  1  0.63049513  0.76009044  0.37620960  1
  V  V21  1  0.01337492  0.37608851  0.37210451  1
  V  V22  1  0.63061109  0.62881979  0.49583258  1
  V  V23  1  0.37452546  0.85186585  0.50147165  1
  V  V24  1  0.88269004  0.48641956  0.88260711  1
  V  V25  1  0.74228858  0.61861066  0.87566854  1
  V  V26  1  0.12241765  0.75232339  0.36462467  1
  V  V27  1  -0.02094807  0.23148753  0.76146052  1
  V  V28  1  0.51245741  0.37462363  0.87623687  1
  V  V29  1  0.50172856  0.76249756  0.25571719  1
  V  V30  1  0.27073006  0.00449330  0.26507213  1
  V  V31  1  0.23139956  0.00061467  0.75146267  1
  V  V32  1  0.62497826  0.37461834  0.26222883  1
  V  V33  1  0.12617824  0.25878177  0.86814388  1
  V  V34  1  0.87736549  0.50766790  0.38671913  1
  V  V35  1  0.72997023  -0.00292691  0.25715843  1
  V  V36  1  0.48406152  0.00220863  0.48746845  1
  V  V37  1  0.74003557  0.35598020  0.61932832  1
  V  V38  1  0.26502722  0.86053150  0.63693831  1
  V  V39  1  0.52648077  0.12515848  0.11846895  1
  V  V40  1  0.87422712  0.25425082  0.11754233  1
  V  V41  1  0.89591464  -0.00095680  0.36614119  1
  V  V42  1  0.49865029  0.12486435  0.63498891  1
  V  V43  1  0.38024422  0.37360496  0.00488666  1
  V  V44  1  0.10681318  0.50062886  0.62066178  1
  V  V45  1  0.75484353  0.37374538  0.11657370  1
  V  V46  1  0.75082987  0.50903238  0.25583071  1
  V  V47  1  0.38478275  0.61297235  0.24161156  1
  V  V48  1  0.62627495  0.51362062  0.12122505  1
  V  V49  1  0.01153287  0.87035352  0.87345835  1
  V  V50  1  0.36601630  0.88177763  -0.00747339  1
  V  V51  1  0.51079680  -0.00144143  0.00201543  1
  V  V52  1  0.38044503  0.75669626  0.12468275  1
  V  V53  1  0.73384199  0.87847444  0.12773865  1
  V  V54  1  0.24448416  0.37940406  0.12753988  1
  V  V55  1  0.50117413  0.61003642  0.63340574  1
  V  V56  1  0.89458159  0.87227092  0.49763103  1
  V  V57  1  0.12670381  0.73323749  0.87641998  1
  V  V58  1  0.26068028  0.62467902  0.38271155  1
  V  V59  1  0.87875070  0.74768537  0.12582669  1
  V  V60  1  0.87037848  0.35162177  0.50002414  1
  V  V61  1  0.74451138  0.74284451  0.00029317  1
  V  V62  1  0.24564968  0.50043867  0.74130638  1
  V  V63  1  0.62579220  -0.00470935  0.63725987  1
  V  V64  1  0.37969532  0.24334881  0.12576815  1
  V  V65  1  0.49994744  0.76614891  0.74737982  1
  V  V66  1  0.50365475  0.49496778  0.47815737  1
  V  V67  1  0.36978919  0.50768981  0.87383763  1
  V  V68  1  0.87364126  -0.00402472  0.85365168  1
  V  V69  1  0.37485327  0.37671854  0.49050588  1
  Zn  Zn70  1  0.15244907  -0.01021992  0.12267986  1
  Zn  Zn71  1  0.24614289  0.37052156  0.62596878  1
  Zn  Zn72  1  0.74968361  0.88372422  0.61522050  1
  Zn  Zn73  1  0.37027902  0.63766297  0.74631181  1
  Zn  Zn74  1  0.15312568  0.12392405  -0.01673565  1
  Zn  Zn75  1  0.00820590  0.00333398  -0.00108048  1
  Zn  Zn76  1  0.19540010  0.17859040  0.15862812  1
  Zn  Zn77  1  0.20565904  0.20173834  0.73488630  1
  Zn  Zn78  1  0.18967309  0.68691013  0.18735611  1
  Zn  Zn79  1  0.18961684  0.67606914  0.69015432  1
  Zn  Zn80  1  0.71884552  0.19922112  0.25316903  1
  Zn  Zn81  1  0.69016098  0.17381430  0.69189452  1
  Zn  Zn82  1  0.68924270  0.69368725  0.19331540  1
  Zn  Zn83  1  0.67915461  0.68319254  0.69054017  1
  Zn  Zn84  1  0.32166061  0.31877837  0.30121025  1
  Zn  Zn85  1  0.31844259  0.31801944  0.81493190  1
  Zn  Zn86  1  0.31204171  0.80773509  0.30755921  1
  Zn  Zn87  1  0.31180202  0.81217207  0.81821187  1
  Zn  Zn88  1  0.82606782  0.32425521  0.30477510  1
  Zn  Zn89  1  0.79994340  0.31022304  0.80941116  1
  Zn  Zn90  1  0.81067315  0.81985770  0.31572469  1
  Zn  Zn91  1  0.81387495  0.80875922  0.81103827  1
  Zn  Zn92  1  0.19402622  0.44750668  0.44469241  1
  Zn  Zn93  1  0.19627457  0.41908600  0.93177961  1
  Zn  Zn94  1  0.23542457  0.91505563  0.40707534  1
  Zn  Zn95  1  0.19150087  0.94039313  0.94059596  1
  Zn  Zn96  1  0.69264591  0.44241237  0.44336614  1
  Zn  Zn97  1  0.69095868  0.43593167  0.93658090  1
  Zn  Zn98  1  0.66975587  0.93986212  0.43808030  1
  Zn  Zn99  1  0.69495196  0.93700998  0.94000492  1
  Zn  Zn100  1  0.31391296  0.05878944  0.07771127  1
  Zn  Zn101  1  0.31694068  0.05581186  0.58967867  1
  Zn  Zn102  1  0.31390293  0.56073373  0.06550502  1
  Zn  Zn103  1  0.32626361  0.56171524  0.56361314  1
  Zn  Zn104  1  0.74834646  0.09749054  0.09527325  1
  Zn  Zn105  1  0.78650018  0.02004961  0.52479271  1
  Zn  Zn106  1  0.81873307  0.55823157  0.06279652  1
  Zn  Zn107  1  0.81295590  0.57494315  0.56693491  1
  Zn  Zn108  1  0.44676989  0.43391358  0.18852125  1
  Zn  Zn109  1  0.44259621  0.43524177  0.69197209  1
  Zn  Zn110  1  0.43424981  0.94420114  0.18643191  1
  Zn  Zn111  1  0.43693099  0.93861261  0.69095559  1
  Zn  Zn112  1  0.94072199  0.43833985  0.19141673  1
  Zn  Zn113  1  0.91868878  0.43721441  0.68945834  1
  Zn  Zn114  1  0.92599537  0.93949867  0.18810129  1
  Zn  Zn115  1  0.88256809  0.75478791  0.61919283  1
  Zn  Zn116  1  0.06161783  0.06567165  0.28750440  1
  Zn  Zn117  1  0.05709912  0.06810267  0.81144826  1
  Zn  Zn118  1  0.05899235  0.56860722  0.31812221  1
  Zn  Zn119  1  0.06156881  0.55022754  0.81372726  1
  Zn  Zn120  1  0.55550860  0.05569041  0.30643511  1
  Zn  Zn121  1  0.55916331  0.06070497  0.81958046  1
  Zn  Zn122  1  0.56511024  0.57083234  0.30931386  1
  Zn  Zn123  1  0.56367737  0.56266168  0.81531054  1
  Zn  Zn124  1  0.44041302  0.19522201  0.44912565  1
  Zn  Zn125  1  0.44000981  0.18702448  0.94139310  1
  Zn  Zn126  1  0.44355537  0.67840125  0.43442432  1
  Zn  Zn127  1  0.43757584  0.69305663  0.93603567  1
  Zn  Zn128  1  0.80448282  0.17652037  0.42275337  1
  Zn  Zn129  1  0.93134524  0.19511415  0.93955878  1
  Zn  Zn130  1  0.93652190  0.69942909  0.43446593  1
  Zn  Zn131  1  0.93299411  0.68102605  0.93510955  1
  Zn  Zn132  1  0.06910597  0.30123264  0.05747826  1
  Zn  Zn133  1  0.05097592  0.33093047  0.56796500  1
  Zn  Zn134  1  0.05514676  0.80156936  0.05600354  1
  Zn  Zn135  1  0.10354315  0.84108392  0.51808518  1
  Zn  Zn136  1  0.56804912  0.32070547  0.06999400  1
  Zn  Zn137  1  0.56221257  0.31298585  0.55796308  1
  Zn  Zn138  1  0.55517452  0.81042867  0.05633714  1
  Zn  Zn139  1  0.55543579  0.81357893  0.56168220  1
  O  O140  1  0.09531821  0.13093611  0.11800303  1
  O  O141  1  0.11517946  0.17927269  0.60473687  1
  O  O142  1  0.10864769  0.63305525  0.12836594  1
  O  O143  1  0.12507526  0.61535087  0.61613158  1
  O  O144  1  0.62360706  0.12590319  0.11186520  1
  O  O145  1  0.61067937  0.11941314  0.61946969  1
  O  O146  1  0.63060451  0.61232995  0.12933446  1
  O  O147  1  0.60948183  0.63655718  0.60941066  1
  O  O148  1  0.37477858  0.36394997  0.39123720  1
  O  O149  1  0.38715799  0.38283211  0.88718451  1
  O  O150  1  0.35528862  0.86677909  0.40175643  1
  O  O151  1  0.37834678  0.87812608  0.89148181  1
  O  O152  1  0.87780204  0.39005283  0.38768233  1
  O  O153  1  0.85545057  0.38985817  0.86956860  1
  O  O154  1  0.87465909  0.88077502  0.38440166  1
  O  O155  1  0.87777460  0.88001245  0.87864864  1
  O  O156  1  0.25027446  0.01885769  0.36712443  1
  O  O157  1  0.26208779  -0.00676757  0.86410163  1
  O  O158  1  0.24675523  0.50982718  0.35919499  1
  O  O159  1  0.26523736  0.49452655  0.87413385  1
  O  O160  1  0.73601818  0.00073317  0.35837069  1
  O  O161  1  0.76307903  0.00234790  0.87566938  1
  O  O162  1  0.76473729  0.49913927  0.36669002  1
  O  O163  1  0.75105951  0.50990788  0.87112614  1
  O  O164  1  0.25319542  0.49134088  0.13630385  1
  O  O165  1  0.25708402  0.50156898  0.63663997  1
  O  O166  1  0.26575038  0.98116137  0.14352143  1
  O  O167  1  0.25246615  0.97983541  0.64368388  1
  O  O168  1  0.74027517  0.49670007  0.12947706  1
  O  O169  1  0.74722175  0.50659854  0.63503585  1
  O  O170  1  0.74593158  0.97924118  0.11844751  1
  O  O171  1  0.72789005  1.00975635  0.63007834  1
  O  O172  1  0.00839587  0.37932012  0.26348342  1
  O  O173  1  -0.00968952  0.34734776  0.72111694  1
  O  O174  1  0.03496297  0.87924913  0.20698018  1
  O  O175  1  0.00562295  0.86988536  0.76509435  1
  O  O176  1  0.51725157  0.36606824  0.24763940  1
  O  O177  1  0.50236748  0.36983724  0.76689219  1
  O  O178  1  0.49464823  0.86098827  0.24137968  1
  O  O179  1  0.50062800  0.86516785  0.75182651  1
  O  O180  1  0.51591933  0.13850283  0.23315149  1
  O  O181  1  0.50199692  0.13431884  0.73981724  1
  O  O182  1  0.48704226  0.63433638  0.24905486  1
  O  O183  1  0.50299487  0.62545203  0.74104249  1
  O  O184  1  0.99291546  0.14616687  0.23804576  1
  O  O185  1  0.99160627  0.13156857  0.74279175  1
  O  O186  1  0.98560114  0.62413930  0.24169386  1
  O  O187  1  0.98777369  0.61491800  0.75136107  1
  O  O188  1  0.38603144  0.26197880  0.01407303  1
  O  O189  1  0.38718575  0.26821208  0.51931397  1
  O  O190  1  0.36909046  0.75682562  0.00612648  1
  O  O191  1  0.39023459  0.75376862  0.50604344  1
  O  O192  1  0.88304182  0.26801496  0.01648042  1
  O  O193  1  0.86544969  0.25346073  0.49443818  1
  O  O194  1  0.86418929  0.75491519  0.00451364  1
  O  O195  1  0.87050173  0.76340997  0.49715452  1
  O  O196  1  0.12088442  0.22867714  0.54892589  1
  O  O197  1  0.12435285  0.24702055  0.97756053  1
  O  O198  1  0.13423608  0.72806844  0.50057315  1
  O  O199  1  0.13687705  0.75073988  0.99310953  1
  O  O200  1  0.61313076  0.23109742  0.49722619  1
  O  O201  1  0.61938276  0.24893286  0.99530192  1
  O  O202  1  0.60844028  0.74092500  0.48737442  1
  O  O203  1  0.63490741  0.75248696  0.98986086  1
  O  O204  1  0.50101907  0.24061670  0.12663240  1
  O  O205  1  0.50106530  0.24440569  0.63477460  1
  O  O206  1  0.48633706  0.74690641  0.12821629  1
  O  O207  1  0.50381047  0.74750422  0.64503838  1
  O  O208  1  0.99264704  0.25172963  0.12574660  1
  O  O209  1  0.98693800  0.28893327  0.65851230  1
  O  O210  1  0.98286034  0.73795244  0.12017076  1
  O  O211  1  1.00533893  0.76223574  0.64077560  1
  O  O212  1  0.00189077  0.26883830  0.35698343  1
  O  O213  1  0.00197771  0.24847629  0.86612256  1
  O  O214  1  0.02209228  0.74367990  0.37243373  1
  O  O215  1  0.01376759  0.75964919  0.88563896  1
  O  O216  1  0.49463525  0.23752959  0.35658948  1
  O  O217  1  0.50878998  0.25481332  0.87357806  1
  O  O218  1  0.49505966  0.75078699  0.35846214  1
  O  O219  1  0.51750902  0.75247519  0.88064381  1
  O  O220  1  0.22017581  0.09632363  0.51395732  1
  O  O221  1  0.23878229  0.13769449  1.05266238  1
  O  O222  1  0.26320707  0.61290402  0.48303996  1
  O  O223  1  0.25726224  0.63737241  0.99859025  1
  O  O224  1  0.73276751  0.11886881  0.49671606  1
  O  O225  1  0.74765035  0.11930354  0.98396606  1
  O  O226  1  0.72931726  0.62724328  0.50553640  1
  O  O227  1  0.75822616  0.63218100  0.98771039  1
  O  O228  1  0.26745729  0.38576908  0.01593814  1
  O  O229  1  0.27031206  0.38700049  0.50755885  1
  O  O230  1  0.26181509  0.86407975  -0.00096330  1
  O  O231  1  0.26444368  0.87449731  0.52412219  1
  O  O232  1  0.74150100  0.37495078  0.01773516  1
  O  O233  1  0.75880128  0.37436520  0.50581157  1
  O  O234  1  0.75631851  0.86285614  0.00781037  1
  O  O235  1  0.75554158  0.90462894  0.50263428  1
  O  O236  1  0.13224323  0.50688716  0.24858219  1
  O  O237  1  0.13731855  0.50706994  0.73572975  1
  O  O238  1  0.14675142  1.01643614  0.23553585  1
  O  O239  1  0.13227573  0.99434015  0.76004535  1
  O  O240  1  0.62797696  0.49756529  0.24125685  1
  O  O241  1  0.64078971  0.49958867  0.75667780  1
  O  O242  1  0.62887669  0.99084717  0.24705153  1
  O  O243  1  0.60916648  1.00100769  0.73707112  1
  O  O244  1  0.37324768  0.01005604  0.25460999  1
  O  O245  1  0.38358678  0.00229555  0.77067054  1
  O  O246  1  0.38190855  0.51159952  0.24198958  1
  O  O247  1  0.37606058  0.50035670  0.76667125  1
  O  O248  1  0.85585577  -0.01733119  0.26479145  1
  O  O249  1  0.87521430  -0.00881305  0.75869852  1
  O  O250  1  0.86789100  0.51193810  0.25679518  1
  O  O251  1  0.85957721  0.51077493  0.75648332  1
  O  O252  1  0.11047444  0.38481633  0.39372972  1
  O  O253  1  0.12332026  0.36253411  0.87012494  1
  O  O254  1  0.14099036  0.84989240  0.40504475  1
  O  O255  1  0.11283388  0.87198952  0.88177164  1
  O  O256  1  0.63234311  0.38593114  0.36047299  1
  O  O257  1  0.61828969  0.36193931  0.88429033  1
  O  O258  1  0.61267374  0.85906523  0.38159777  1
  O  O259  1  0.63809711  0.86244090  0.87129179  1
  O  O260  1  0.38447088  0.14307260  0.12624434  1
  O  O261  1  0.38911119  0.14347337  0.61955440  1
  O  O262  1  0.37016943  0.63575710  0.13583345  1
  O  O263  1  0.39564765  0.62508566  0.62849500  1
  O  O264  1  0.87297220  0.15085735  0.12359773  1
  O  O265  1  0.95637643  0.10285363  0.58399401  1
  O  O266  1  0.87812564  0.62884603  0.13440471  1
  O  O267  1  0.86903408  0.63823779  0.64115168  1
  O  O268  1  0.27422913  0.27022296  0.14274329  1
  O  O269  1  0.26933390  0.25259555  0.64429321  1
  O  O270  1  0.25863024  0.74737811  0.11200661  1
  O  O271  1  0.25385635  0.76028072  0.64518886  1
  O  O272  1  0.76242875  0.26724226  0.14000278  1
  O  O273  1  0.74473161  0.25704009  0.63172956  1
  O  O274  1  0.75620254  0.75345860  0.11830535  1
  O  O275  1  0.75790145  0.76452835  0.66098479  1
  O  O276  1  0.28255706  0.21474400  0.36315556  1
  O  O277  1  0.23320648  0.24851425  0.84416312  1
  O  O278  1  0.24602501  0.72783548  0.36885816  1
  O  O279  1  0.23426554  0.75215432  0.88454950  1
  O  O280  1  0.75892809  0.24492640  0.34686676  1
  O  O281  1  0.73570074  0.24108917  0.87943164  1
  O  O282  1  0.72972721  0.75324817  0.36593877  1
  O  O283  1  0.74268378  0.73955139  0.88034051  1
  O  O284  1  -0.01581543  0.12165213  0.01120368  1
  O  O285  1  0.05992578  0.13113586  0.44661145  1
  O  O286  1  -0.00302522  0.62479788  0.01055542  1
  O  O287  1  0.00619022  0.62886430  0.50002424  1
  O  O288  1  0.49797596  0.11489037  0.01195873  1
  O  O289  1  0.50229786  0.11861761  0.50871644  1
  O  O290  1  0.49875964  0.61262811  -0.00102610  1
  O  O291  1  0.50060200  0.60823718  0.50851781  1
  O  O292  1  0.49865951  0.38911476  0.49965458  1
  O  O293  1  0.49688690  0.38480358  0.99565441  1
  O  O294  1  0.48052472  0.89114615  0.50935438  1
  O  O295  1  0.48391157  0.89208037  1.01204740  1
  O  O296  1  0.98104736  0.36725318  0.48698951  1
  O  O297  1  1.03570906  0.41721222  1.00681015  1
  O  O298  1  0.99491875  0.87090806  0.50039834  1
  O  O299  1  0.99134647  0.87539329  0.98914811  1
  O  O300  1  0.49876643  0.50241633  0.37939855  1
  O  O301  1  0.49957374  0.49374092  0.88749318  1
  O  O302  1  0.49136334  1.00545142  0.38795973  1
  O  O303  1  0.48439878  1.01029150  0.89472040  1
  O  O304  1  0.98499852  0.49278884  0.37018439  1
  O  O305  1  0.98310125  0.48873731  0.86450777  1
  O  O306  1  0.99523904  0.99551022  0.34789815  1
  O  O307  1  0.98847340  0.98714144  0.87593184  1
  O  O308  1  -0.01738903  0.01993155  0.12911776  1
  O  O309  1  0.00234857  0.04701525  0.58416432  1
  O  O310  1  -0.00316900  0.51368993  0.12828419  1
  O  O311  1  0.00884794  0.49368275  0.63081912  1
  O  O312  1  0.49756465  0.01623590  0.11655474  1
  O  O313  1  0.49688969  0.01624817  0.62468131  1
  O  O314  1  0.51395579  0.49744137  0.11426551  1
  O  O315  1  0.50760175  0.50835235  0.62986400  1
  O  O316  1  0.25567029  0.39172984  0.24319340  1
  O  O317  1  0.25959819  0.39597874  0.74854350  1
  O  O318  1  0.25240002  0.89666245  0.27399302  1
  O  O319  1  0.25788445  0.88226402  0.74594446  1
  O  O320  1  0.74121129  0.39165717  0.24275637  1
  O  O321  1  0.75722967  0.38676797  0.72892721  1
  O  O322  1  0.74677414  0.87925441  0.23444928  1
  O  O323  1  0.74427888  0.83035296  0.72037795  1
  O  O324  1  0.23857035  0.10919615  0.23870340  1
  O  O325  1  0.25088685  0.09905987  0.73487778  1
  O  O326  1  0.25947501  0.61093374  0.25061248  1
  O  O327  1  0.25873852  0.60851699  0.75347888  1
  O  O328  1  0.74380898  0.09668402  0.21686871  1
  O  O329  1  0.74057127  0.12261785  0.77811703  1
  O  O330  1  0.75948552  0.61532056  0.24477906  1
  O  O331  1  0.75157923  0.61718650  0.76124081  1
  O  O332  1  0.33339872  0.16359478  0.38591248  1
  O  O333  1  0.36779281  0.11936391  0.88280947  1
  O  O334  1  0.36659397  0.62855009  0.35738118  1
  O  O335  1  0.38239770  0.60871870  0.87885720  1
  O  O336  1  0.87391018  0.09754362  0.37754294  1
  O  O337  1  0.86829462  0.10814225  0.87916039  1
  O  O338  1  0.88237369  0.61942398  0.36238789  1
  O  O339  1  0.86485587  0.61521631  0.86560707  1
  O  O340  1  0.14762818  0.36566956  0.11814450  1
  O  O341  1  0.13329089  0.39672139  0.61185120  1
  O  O342  1  0.08368016  0.88052417  0.14479899  1
  O  O343  1  0.13169818  0.86399652  0.63016139  1
  O  O344  1  0.63596501  0.38754660  0.13642272  1
  O  O345  1  0.64167610  0.37566638  0.61241801  1
  O  O346  1  0.63592048  0.86280466  0.11826967  1
  O  O347  1  0.61990601  0.89330253  0.61576099  1
  O  O348  1  0.11136629  0.25112135  0.23265175  1
  O  O349  1  0.10214406  0.24384844  0.76053073  1
  O  O350  1  0.13720589  0.75289274  0.26475114  1
  O  O351  1  0.12313750  0.74916550  0.76128110  1
  O  O352  1  0.62063165  0.26519410  0.24820849  1
  O  O353  1  0.61627421  0.24640227  0.76134706  1
  O  O354  1  0.60922050  0.74220301  0.25992565  1
  O  O355  1  0.61078695  0.74217018  0.76644420  1
  O  O356  1  0.40027816  0.26389431  0.23458248  1
  O  O357  1  0.39383168  0.25882211  0.74177741  1
  O  O358  1  0.38059207  0.74527386  0.23780192  1
  O  O359  1  0.39690429  0.74523938  0.77687844  1
  O  O360  1  0.89762188  0.27736841  0.22813444  1
  O  O361  1  0.87768219  0.23978756  0.76671036  1
  O  O362  1  0.86439324  0.73692274  0.24294408  1
  O  O363  1  0.88475732  0.73293951  0.76385655  1
  O  O364  1  0.39346306  0.48809339  0.50319599  1
  O  O365  1  0.38867625  0.49584698  0.99588935  1
  O  O366  1  0.38290872  1.01069431  0.50617476  1
  O  O367  1  0.36877507  0.99206195  0.99346595  1
  O  O368  1  0.86983090  0.51518444  0.48636485  1
  O  O369  1  0.87290468  0.50130745  0.98299313  1
  O  O370  1  0.88749282  0.98760397  0.48064155  1
  O  O371  1  0.87519047  0.98190925  0.99813879  1
  O  O372  1  0.12579959  0.00213047  0.01082336  1
  O  O373  1  0.15841569  0.05839580  0.52861410  1
  O  O374  1  0.09140622  0.46610885  -0.00362696  1
  O  O375  1  0.12707785  0.51616532  0.51184958  1
  O  O376  1  0.60901559  -0.00911711  -0.00618451  1
  O  O377  1  0.60313841  0.01100531  0.50960217  1
  O  O378  1  0.61780699  0.49979734  0.00977386  1
  O  O379  1  0.61403823  0.51412818  0.49145004  1
  O  O380  1  0.38001139  0.37278193  0.11729425  1
  O  O381  1  0.38032843  0.36674765  0.62319060  1
  O  O382  1  0.37549631  0.86078437  0.11759702  1
  O  O383  1  0.37084595  0.87079977  0.62413998  1
  O  O384  1  0.85821873  0.38746725  0.12556640  1
  O  O385  1  0.86328714  0.37956849  0.60342715  1
  O  O386  1  0.86845287  0.86315109  0.11839851  1
  O  O387  1  0.87040879  0.87455945  0.60289876  1
  O  O388  1  0.10631774  0.13545641  0.38958230  1
  O  O389  1  0.12010933  0.13477095  0.87674746  1
  O  O390  1  0.13370537  0.62849014  0.38706517  1
  O  O391  1  0.11774246  0.63494895  0.87395426  1
  O  O392  1  0.61565823  0.11937482  0.38472212  1
  O  O393  1  0.62342603  0.13417298  0.88217827  1
  O  O394  1  0.61578003  0.63737140  0.38721216  1
  O  O395  1  0.63928501  0.62925870  0.87720555  1
