# generated using pymatgen
data_V35Zn35O128
_symmetry_space_group_name_H-M   'P 1'
_cell_length_a   16.84371266
_cell_length_b   16.85307972
_cell_length_c   16.85752603
_cell_angle_alpha   90.05340157
_cell_angle_beta   89.97467516
_cell_angle_gamma   89.84407791
_symmetry_Int_Tables_number   1
_chemical_formula_structural   V35Zn35O128
_chemical_formula_sum   'V70 Zn70 O256'
_cell_volume   4785.29921342
_cell_formula_units_Z   2
loop_
 _symmetry_equiv_pos_site_id
 _symmetry_equiv_pos_as_xyz
  1  'x, y, z'
loop_
 _atom_site_type_symbol
 _atom_site_label
 _atom_site_symmetry_multiplicity
 _atom_site_fract_x
 _atom_site_fract_y
 _atom_site_fract_z
 _atom_site_occupancy
  V  V0  1  0.13467462  0.00213724  0.13151809  1
  V  V1  1  0.24741061  0.85487216  0.13201239  1
  V  V2  1  0.87742332  0.37280389  -0.00693166  1
  V  V3  1  0.63153264  0.49296437  0.62605220  1
  V  V4  1  0.13631451  0.37997301  0.75934507  1
  V  V5  1  0.87552726  0.26361736  0.62819351  1
  V  V6  1  0.00320150  0.50069546  0.01766295  1
  V  V7  1  0.35529335  0.50007389  0.86072148  1
  V  V8  1  0.61849214  0.49734945  0.14856052  1
  V  V9  1  0.74470482  0.24364475  0.48832008  1
  V  V10  1  0.76196466  0.74740100  0.50221020  1
  V  V11  1  0.74110782  0.12533378  0.87913994  1
  V  V12  1  0.12910114  0.13691628  0.51720065  1
  V  V13  1  0.70140041  0.05260107  0.70666208  1
  V  V14  1  0.74385445  0.38028796  0.13327688  1
  V  V15  1  -0.00027513  0.12732947  0.12679224  1
  V  V16  1  0.24435669  0.62115908  0.35683771  1
  V  V17  1  0.26488874  0.37165423  0.60329347  1
  V  V18  1  0.00118595  0.36641086  0.36584100  1
  V  V19  1  0.25656511  0.25451786  -0.00555446  1
  V  V20  1  0.26117539  0.75658412  0.49790139  1
  V  V21  1  0.13343122  0.49782043  0.61898472  1
  V  V22  1  0.37152230  0.10531676  0.24276499  1
  V  V23  1  0.13122447  0.13459920  -0.01342951  1
  V  V24  1  0.00105157  0.63217712  0.63432293  1
  V  V25  1  0.24130465  0.10895937  0.36365357  1
  V  V26  1  0.89405786  0.12415437  0.74612452  1
  V  V27  1  0.87595049  0.88812252  0.49444851  1
  V  V28  1  0.12338067  0.24742182  0.35636190  1
  V  V29  1  0.24450627  0.75074441  -0.01926715  1
  V  V30  1  0.01061250  0.01029008  0.50781940  1
  V  V31  1  0.87738616  0.24841507  0.12498953  1
  V  V32  1  0.24286731  -0.00481846  0.71434648  1
  V  V33  1  0.48324950  0.74958580  0.25757725  1
  V  V34  1  0.87996979  0.00060299  0.87669641  1
  V  V35  1  0.64906417  0.75344521  0.87861612  1
  V  V36  1  0.62852832  0.61097269  -0.00933555  1
  V  V37  1  0.00618161  0.86755268  0.37353711  1
  V  V38  1  0.36266195  0.00377718  0.88355405  1
  V  V39  1  0.38567445  0.25475996  0.13585000  1
  V  V40  1  0.63302562  0.00215629  0.11997047  1
  V  V41  1  0.73354705  0.24823653  -0.00344309  1
  V  V42  1  0.88844412  0.49788704  0.87108294  1
  V  V43  1  0.38455290  0.86408562  0.00667723  1
  V  V44  1  0.23595632  0.37835687  0.13592853  1
  V  V45  1  0.46590278  0.37752476  0.38914370  1
  V  V46  1  0.62677945  0.86089735  0.25728554  1
  V  V47  1  0.74815828  0.48218168  0.75479224  1
  V  V48  1  0.87921182  0.63567128  0.24184917  1
  V  V49  1  0.75419821  -0.00562330  0.26290396  1
  V  V50  1  0.01667324  0.25777462  0.75658055  1
  V  V51  1  0.50566468  0.01986979  0.00409735  1
  V  V52  1  0.50663980  0.36256913  0.88371428  1
  V  V53  1  0.61363521  0.25711943  0.34711802  1
  V  V54  1  0.00237881  -0.00552466  -0.00678565  1
  V  V55  1  0.62844183  0.87437501  0.75068395  1
  V  V56  1  0.76081764  0.86787919  0.63966553  1
  V  V57  1  0.36571249  0.60219186  0.23727058  1
  V  V58  1  0.87365708  0.63206053  0.74794021  1
  V  V59  1  0.11746344  0.63963291  0.00313874  1
  V  V60  1  0.76334353  0.75920923  0.01909325  1
  V  V61  1  0.49175504  0.75715181  0.75994736  1
  V  V62  1  0.12059412  0.63645485  0.49003032  1
  V  V63  1  0.50540981  -0.00322496  0.49367235  1
  V  V64  1  0.86936221  0.49476435  0.37032873  1
  V  V65  1  0.62387880  0.63325627  0.50987140  1
  V  V66  1  0.87023228  0.12042413  0.25757617  1
  V  V67  1  0.12367215  0.85436021  0.75949909  1
  V  V68  1  0.74319021  0.62304232  0.37065743  1
  V  V69  1  0.48977393  0.63056643  0.63121698  1
  Zn  Zn70  1  0.37441012  0.78700084  0.61952318  1
  Zn  Zn71  1  0.38502776  0.13844150  0.75913611  1
  Zn  Zn72  1  0.49016491  0.62117911  0.11972326  1
  Zn  Zn73  1  0.87084707  0.38053132  0.50740309  1
  Zn  Zn74  1  -0.00354334  0.49728007  0.50076264  1
  Zn  Zn75  1  0.12927446  0.88365564  0.26420325  1
  Zn  Zn76  1  0.19052295  0.19012584  0.18307008  1
  Zn  Zn77  1  0.22607658  0.20167940  0.69594469  1
  Zn  Zn78  1  0.17662227  0.54346654  0.17904510  1
  Zn  Zn79  1  0.20098675  0.69173894  0.68160547  1
  Zn  Zn80  1  0.68625021  0.18341093  0.18392148  1
  Zn  Zn81  1  0.66219370  0.23090417  0.64359163  1
  Zn  Zn82  1  0.68221076  0.68202174  0.18276528  1
  Zn  Zn83  1  0.69765478  0.68678292  0.69260271  1
  Zn  Zn84  1  0.30325946  0.30458274  0.30712261  1
  Zn  Zn85  1  0.32259071  0.31865377  0.80719921  1
  Zn  Zn86  1  0.30802450  0.80902386  0.32103030  1
  Zn  Zn87  1  0.31182030  0.83820510  0.81175301  1
  Zn  Zn88  1  0.80785515  0.30625034  0.31296876  1
  Zn  Zn89  1  0.81293729  0.30627920  0.81126004  1
  Zn  Zn90  1  0.81050633  0.81119520  0.31355350  1
  Zn  Zn91  1  0.86153077  0.79176110  0.85071770  1
  Zn  Zn92  1  0.18355708  0.43829788  0.42901343  1
  Zn  Zn93  1  0.19029851  0.43626035  0.94827890  1
  Zn  Zn94  1  0.18179355  0.93759014  0.44741856  1
  Zn  Zn95  1  0.18149431  0.93349113  0.94200773  1
  Zn  Zn96  1  0.69277273  0.43381378  0.44196459  1
  Zn  Zn97  1  0.68797915  0.42766394  0.92555552  1
  Zn  Zn98  1  0.69422679  0.93223112  0.43458243  1
  Zn  Zn99  1  0.69585953  0.93413493  0.94292473  1
  Zn  Zn100  1  0.31614162  0.06551732  0.06149328  1
  Zn  Zn101  1  0.30746303  0.05603735  0.54015717  1
  Zn  Zn102  1  0.30831930  0.56427344  0.04881516  1
  Zn  Zn103  1  0.31076111  0.55609294  0.54425205  1
  Zn  Zn104  1  0.81181552  0.06043155  0.06057529  1
  Zn  Zn105  1  0.81741711  0.06671960  0.56393269  1
  Zn  Zn106  1  0.80702784  0.56647580  0.05686919  1
  Zn  Zn107  1  0.81282963  0.55696192  0.56773245  1
  Zn  Zn108  1  0.43995542  0.42651701  0.19527304  1
  Zn  Zn109  1  0.42752035  0.46054621  0.68798349  1
  Zn  Zn110  1  0.44280778  0.92830128  0.18352251  1
  Zn  Zn111  1  0.44505084  0.96595012  0.70259893  1
  Zn  Zn112  1  0.92672982  0.43866611  0.19171171  1
  Zn  Zn113  1  0.95139120  0.44189019  0.68981915  1
  Zn  Zn114  1  0.93849640  0.92911107  0.18104172  1
  Zn  Zn115  1  0.94283603  0.93583418  0.68732071  1
  Zn  Zn116  1  0.04998333  0.05606179  0.31874616  1
  Zn  Zn117  1  0.07215661  0.05858761  0.80657466  1
  Zn  Zn118  1  0.05300459  0.56049520  0.31132217  1
  Zn  Zn119  1  0.10640367  0.59049106  0.79504932  1
  Zn  Zn120  1  0.57005820  0.06425764  0.30383218  1
  Zn  Zn121  1  0.54980631  0.05824591  0.82295617  1
  Zn  Zn122  1  0.55116753  0.56336624  0.32166174  1
  Zn  Zn123  1  0.56772111  0.57014538  0.80787619  1
  Zn  Zn124  1  0.45067885  0.17052557  0.39019232  1
  Zn  Zn125  1  0.43543246  0.19329787  0.94076955  1
  Zn  Zn126  1  0.42783456  0.66608855  0.43446304  1
  Zn  Zn127  1  0.45026322  0.69881825  0.94459584  1
  Zn  Zn128  1  0.93806600  0.18892985  0.44261929  1
  Zn  Zn129  1  0.94038547  0.18810133  0.93466076  1
  Zn  Zn130  1  0.93501382  0.68529854  0.43556120  1
  Zn  Zn131  1  0.94285989  0.67753909  0.93974302  1
  Zn  Zn132  1  0.06283519  0.31360910  0.06201388  1
  Zn  Zn133  1  0.05535534  0.31156550  0.55998271  1
  Zn  Zn134  1  0.05226257  0.81707443  0.06702244  1
  Zn  Zn135  1  0.05989081  0.81370539  0.56989317  1
  Zn  Zn136  1  0.55464309  0.32205577  0.06286320  1
  Zn  Zn137  1  0.57833951  0.33877158  0.51838182  1
  Zn  Zn138  1  0.57329372  0.80527777  0.08027536  1
  Zn  Zn139  1  0.56922710  0.81074957  0.57115119  1
  O  O140  1  0.11658614  0.11755540  0.12283854  1
  O  O141  1  0.14155856  0.14305989  0.61399655  1
  O  O142  1  0.13059951  0.61041815  0.10043879  1
  O  O143  1  0.11544995  0.61733461  0.61658795  1
  O  O144  1  0.62231231  0.10317262  0.13344347  1
  O  O145  1  0.64232666  0.11819182  0.66119721  1
  O  O146  1  0.63171760  0.60090018  0.11576723  1
  O  O147  1  0.62918910  0.62448866  0.62041445  1
  O  O148  1  0.36769150  0.36478114  0.37689244  1
  O  O149  1  0.37595121  0.39497042  0.87061468  1
  O  O150  1  0.36744203  0.88722656  0.37253521  1
  O  O151  1  0.37219302  0.88531406  0.90246326  1
  O  O152  1  0.87360064  0.38382516  0.37199691  1
  O  O153  1  0.86753567  0.38149304  0.88469779  1
  O  O154  1  0.87625441  0.87373692  0.39112593  1
  O  O155  1  0.86819122  0.90364914  0.86500032  1
  O  O156  1  0.23030523  0.00913870  0.36985562  1
  O  O157  1  0.26494676  0.00625484  0.90644551  1
  O  O158  1  0.24138379  0.52251726  0.37652784  1
  O  O159  1  0.25747979  0.50403114  0.88793892  1
  O  O160  1  0.75178174  0.00290185  0.36223041  1
  O  O161  1  0.76662085  0.01765644  0.89350018  1
  O  O162  1  0.75697931  0.51128839  0.38413756  1
  O  O163  1  0.75741039  0.49670833  0.86038465  1
  O  O164  1  0.25173250  0.48358180  0.10906973  1
  O  O165  1  0.23747324  0.50581329  0.61834627  1
  O  O166  1  0.23542091  1.00121880  0.11999513  1
  O  O167  1  0.25703937  0.98740278  0.61393997  1
  O  O168  1  0.74169998  0.48403577  0.11729624  1
  O  O169  1  0.74224027  0.49541444  0.63621847  1
  O  O170  1  0.73843062  0.99586042  0.11871780  1
  O  O171  1  0.75129621  0.99525773  0.63440201  1
  O  O172  1  -0.01165353  0.37647313  0.26607539  1
  O  O173  1  0.01744803  0.36532116  0.74730278  1
  O  O174  1  0.00063887  0.88849666  0.27227971  1
  O  O175  1  0.01574900  0.87099895  0.74119345  1
  O  O176  1  0.50584340  0.39493636  0.28270323  1
  O  O177  1  0.49962083  0.42478344  0.78054779  1
  O  O178  1  0.50998525  0.85887197  0.25078630  1
  O  O179  1  0.52245451  0.87028319  0.74556270  1
  O  O180  1  0.47045696  0.11622735  0.27927211  1
  O  O181  1  0.47545995  0.07094197  0.73807063  1
  O  O182  1  0.47634108  0.62189434  0.24950259  1
  O  O183  1  0.50638459  0.64753905  0.74263182  1
  O  O184  1  0.98277448  0.11165389  0.23558612  1
  O  O185  1  0.99856698  0.13525003  0.75126031  1
  O  O186  1  0.97888995  0.62436005  0.25671040  1
  O  O187  1  0.99907616  0.61811231  0.74044721  1
  O  O188  1  0.36194365  0.23595194  0.02039798  1
  O  O189  1  0.40137309  0.20909700  0.52867651  1
  O  O190  1  0.35998888  0.75716491  -0.00390119  1
  O  O191  1  0.36613257  0.74816187  0.49496782  1
  O  O192  1  0.87113226  0.25632382  0.00633175  1
  O  O193  1  0.87071058  0.24839901  0.51674938  1
  O  O194  1  0.85845234  0.72574925  0.00456208  1
  O  O195  1  0.86570779  0.75873238  0.50349143  1
  O  O196  1  0.11191937  0.23654304  0.48802773  1
  O  O197  1  0.13281710  0.24098144  1.00172338  1
  O  O198  1  0.12900578  0.73896989  0.50963707  1
  O  O199  1  0.12494413  0.74805827  1.00446782  1
  O  O200  1  0.64417774  0.24529671  0.52897835  1
  O  O201  1  0.63568329  0.25191298  1.00663729  1
  O  O202  1  0.64186698  0.74166955  0.50903839  1
  O  O203  1  0.63778897  0.75893473  0.98576453  1
  O  O204  1  0.48644106  0.25508319  0.12508459  1
  O  O205  1  0.49852571  0.25244347  0.67328264  1
  O  O206  1  0.52288511  0.73101103  0.15398877  1
  O  O207  1  0.49645175  0.74823502  0.63666619  1
  O  O208  1  0.98810740  0.24223689  0.12083729  1
  O  O209  1  0.98843348  0.25132037  0.63872742  1
  O  O210  1  1.05301649  0.73795171  0.18189518  1
  O  O211  1  0.99769911  0.73092773  0.62278985  1
  O  O212  1  -0.00002218  0.25956931  0.37339289  1
  O  O213  1  0.00129859  0.24991038  0.85674620  1
  O  O214  1  -0.00781881  0.76751677  0.38162603  1
  O  O215  1  -0.03174120  0.76577543  0.87841848  1
  O  O216  1  0.50383372  0.26809060  0.37036547  1
  O  O217  1  0.47811159  0.26456846  0.86392196  1
  O  O218  1  0.49721026  0.72606955  0.35696755  1
  O  O219  1  0.51157536  0.75466566  0.86248988  1
  O  O220  1  0.23212934  0.12091149  0.48220862  1
  O  O221  1  0.23646950  0.13590317  1.01007209  1
  O  O222  1  0.23424274  0.63296254  0.49088686  1
  O  O223  1  0.23851255  0.64534067  0.99655482  1
  O  O224  1  0.76215240  0.14369331  0.50353706  1
  O  O225  1  0.75274570  0.13842986  0.99171245  1
  O  O226  1  0.74992079  0.63661125  0.50371101  1
  O  O227  1  0.73099161  0.63765768  1.00346739  1
  O  O228  1  0.24628705  0.35896366  0.01266933  1
  O  O229  1  0.25890688  0.39673861  0.50443029  1
  O  O230  1  0.24840798  0.86321615  0.00993610  1
  O  O231  1  0.24373517  0.85611918  0.49359959  1
  O  O232  1  0.75544317  0.36175386  0.00230019  1
  O  O233  1  0.75829331  0.35396930  0.49982966  1
  O  O234  1  0.76369920  0.85921750  -0.00400663  1
  O  O235  1  0.75822562  0.86760397  0.50639214  1
  O  O236  1  0.12535649  0.49390757  0.26292298  1
  O  O237  1  0.11761207  0.48646354  0.73139772  1
  O  O238  1  0.11568656  1.00108363  0.23378408  1
  O  O239  1  0.14266733  1.00722432  0.73739503  1
  O  O240  1  0.62691937  0.50943124  0.24632368  1
  O  O241  1  0.64240487  0.50900050  0.74200185  1
  O  O242  1  0.63932768  0.99558881  0.24390978  1
  O  O243  1  0.63645268  0.98690709  0.76092189  1
  O  O244  1  0.36991285  0.00542576  0.23275454  1
  O  O245  1  0.35042661  -0.02796452  0.77901826  1
  O  O246  1  0.36511923  0.50429166  0.24307555  1
  O  O247  1  0.36038670  0.52153117  0.76199440  1
  O  O248  1  0.86338148  0.00466365  0.23595207  1
  O  O249  1  0.89211495  0.01570208  0.76189444  1
  O  O250  1  0.86722099  0.50855206  0.26640406  1
  O  O251  1  0.87090655  0.49220362  0.75978825  1
  O  O252  1  0.11066193  0.36205563  0.37746894  1
  O  O253  1  0.13876308  0.38258308  0.85773900  1
  O  O254  1  0.11217311  0.87254298  0.38044307  1
  O  O255  1  0.12452714  0.88736201  0.85778054  1
  O  O256  1  0.61872347  0.35593449  0.40237346  1
  O  O257  1  0.60970883  0.36215577  0.87635146  1
  O  O258  1  0.63138261  0.87820427  0.35793837  1
  O  O259  1  0.64130115  0.86501673  0.86213676  1
  O  O260  1  0.37128934  0.13168023  0.13816661  1
  O  O261  1  0.37568862  0.15918702  0.57795862  1
  O  O262  1  0.37017627  0.62008744  0.13158485  1
  O  O263  1  0.39196924  0.62238128  0.62374593  1
  O  O264  1  0.88175469  0.13191520  0.12263913  1
  O  O265  1  0.87501924  0.12939134  0.64457303  1
  O  O266  1  0.85957025  0.61381391  0.14490960  1
  O  O267  1  0.89026846  0.61100547  0.63747839  1
  O  O268  1  0.25516697  0.26094952  0.12153978  1
  O  O269  1  0.24805343  0.27257178  0.60354299  1
  O  O270  1  0.24442297  0.75831677  0.11597259  1
  O  O271  1  0.26504882  0.74436483  0.60822388  1
  O  O272  1  0.75454599  0.25502047  0.11161108  1
  O  O273  1  0.77280333  0.25155581  0.63901355  1
  O  O274  1  0.74193559  0.75359139  0.11768970  1
  O  O275  1  0.75451004  0.76088460  0.61821847  1
  O  O276  1  0.22648345  0.24228353  0.36968909  1
  O  O277  1  0.26400666  0.25588272  0.89568508  1
  O  O278  1  0.24488243  0.73542526  0.38536839  1
  O  O279  1  0.24917294  0.76259355  0.88302383  1
  O  O280  1  0.73407976  0.24863461  0.38205550  1
  O  O281  1  0.75181907  0.23915208  0.88562957  1
  O  O282  1  0.75333803  0.73623002  0.39228137  1
  O  O283  1  0.74965380  0.74771140  0.87569305  1
  O  O284  1  0.01334339  0.12760804  0.00780249  1
  O  O285  1  0.01019423  0.11712975  0.49729849  1
  O  O286  1  0.00294598  0.61107822  0.00898930  1
  O  O287  1  0.00791894  0.62495236  0.50515077  1
  O  O288  1  0.50459481  0.11920724  0.00121301  1
  O  O289  1  0.50418877  0.10190696  0.48067695  1
  O  O290  1  0.52661445  0.64260936  0.00997502  1
  O  O291  1  0.51963115  0.64289608  0.51847446  1
  O  O292  1  0.47669061  0.37375901  0.49225591  1
  O  O293  1  0.49408224  0.37720439  0.98423753  1
  O  O294  1  0.50781728  0.89179658  0.50571792  1
  O  O295  1  0.48366421  0.85311780  1.01739159  1
  O  O296  1  0.98973463  0.37585630  0.48484811  1
  O  O297  1  0.98378434  0.38133722  1.00668252  1
  O  O298  1  0.98812199  0.88085767  0.49974144  1
  O  O299  1  1.01281675  0.89700720  0.98786964  1
  O  O300  1  0.48830544  0.48465572  0.37339567  1
  O  O301  1  0.49311107  0.48410933  0.84390104  1
  O  O302  1  0.51054389  0.98841904  0.38857784  1
  O  O303  1  0.49493912  0.99133377  0.90071270  1
  O  O304  1  0.98277838  0.49062314  0.37851350  1
  O  O305  1  0.98616363  0.49040893  0.88458639  1
  O  O306  1  0.99994892  0.98723925  0.39723675  1
  O  O307  1  0.99312750  1.01631175  0.88448779  1
  O  O308  1  0.00551017  0.00881775  0.10954558  1
  O  O309  1  -0.01227393  0.00198652  0.60556685  1
  O  O310  1  -0.01022495  0.49496336  0.11674665  1
  O  O311  1  0.01214743  0.50789679  0.61805348  1
  O  O312  1  0.50927851  -0.00770122  0.11070851  1
  O  O313  1  0.51019484  0.01246173  0.59785226  1
  O  O314  1  0.51565354  0.49489553  0.13093599  1
  O  O315  1  0.51778127  0.52438157  0.64030764  1
  O  O316  1  0.24741888  0.37579065  0.23636731  1
  O  O317  1  0.23598164  0.37336450  0.73029984  1
  O  O318  1  0.24092857  0.86140432  0.23777364  1
  O  O319  1  0.23372460  0.88309421  0.74131967  1
  O  O320  1  0.75511283  0.37125598  0.23163225  1
  O  O321  1  0.74812739  0.38155661  0.75193927  1
  O  O322  1  0.74691793  0.88665416  0.25157619  1
  O  O323  1  0.75261543  0.87010206  0.74021775  1
  O  O324  1  0.25232465  0.12134608  0.25564016  1
  O  O325  1  0.27389581  0.09505534  0.72830301  1
  O  O326  1  0.24792852  0.62163394  0.24861838  1
  O  O327  1  0.21198178  0.61384960  0.75875428  1
  O  O328  1  0.76167513  0.11052141  0.24106887  1
  O  O329  1  0.76515357  0.11638815  0.76435516  1
  O  O330  1  0.74601610  0.62843323  0.26984951  1
  O  O331  1  0.77001541  0.61021819  0.74185895  1
  O  O332  1  0.34670786  0.12434312  0.36893362  1
  O  O333  1  0.38434455  0.10651257  0.87712633  1
  O  O334  1  0.35263040  0.63151359  0.34760972  1
  O  O335  1  0.39146660  0.60154512  0.90660813  1
  O  O336  1  0.88146425  0.13002757  0.35579550  1
  O  O337  1  0.86942746  0.12444587  0.86427095  1
  O  O338  1  0.86200153  0.61611388  0.37267468  1
  O  O339  1  0.88271729  0.60727716  0.85944079  1
  O  O340  1  0.13458850  0.37091082  0.12770261  1
  O  O341  1  0.13163331  0.38977544  0.61267848  1
  O  O342  1  0.13438122  0.88868216  0.12251753  1
  O  O343  1  0.10646233  0.87879037  0.64858512  1
  O  O344  1  0.63371646  0.38523538  0.12177116  1
  O  O345  1  0.61209828  0.39508313  0.61830120  1
  O  O346  1  0.62350934  0.88776689  0.14514269  1
  O  O347  1  0.64299420  0.87214957  0.64084170  1
  O  O348  1  0.11475013  0.24399265  0.25695058  1
  O  O349  1  0.12290380  0.25991297  0.74293216  1
  O  O350  1  0.09762534  0.75214313  0.23882684  1
  O  O351  1  0.13327761  0.75421973  0.75593663  1
  O  O352  1  0.63085116  0.26266919  0.24797063  1
  O  O353  1  0.56300000  0.25961823  0.71047577  1
  O  O354  1  0.63594700  0.75959990  0.25647616  1
  O  O355  1  0.62930718  0.75823656  0.76019056  1
  O  O356  1  0.36942837  0.23616992  0.23992333  1
  O  O357  1  0.33426764  0.23477183  0.73635806  1
  O  O358  1  0.38252622  0.75494694  0.24540573  1
  O  O359  1  0.39114275  0.77191626  0.75426308  1
  O  O360  1  0.86158295  0.23304821  0.23540840  1
  O  O361  1  0.88801541  0.24342107  0.74699856  1
  O  O362  1  0.86581558  0.73606458  0.25241856  1
  O  O363  1  0.86916510  0.73072982  0.75001543  1
  O  O364  1  0.39728712  0.55996151  0.47539922  1
  O  O365  1  0.39529646  0.54041361  0.96840766  1
  O  O366  1  0.40079611  0.99830555  0.49518846  1
  O  O367  1  0.38986377  0.99332775  1.00429846  1
  O  O368  1  0.87290311  0.49967103  0.48837582  1
  O  O369  1  0.87624112  0.49580722  0.98901707  1
  O  O370  1  0.87442024  0.99129519  0.49818191  1
  O  O371  1  0.89195971  1.01016226  0.99071341  1
  O  O372  1  0.11784061  0.01457712  0.00773136  1
  O  O373  1  0.11641347  0.01306551  0.50886861  1
  O  O374  1  0.10223047  0.48727231  0.00217877  1
  O  O375  1  0.12210363  0.51385196  0.50527180  1
  O  O376  1  0.61673002  -0.00893502  0.00820289  1
  O  O377  1  0.61217882  -0.00432141  0.49456070  1
  O  O378  1  0.62784302  0.51099235  -0.01637150  1
  O  O379  1  0.63805330  0.51676779  0.51801268  1
  O  O380  1  0.36835714  0.35984697  0.13318427  1
  O  O381  1  0.36271436  0.39004749  0.63009342  1
  O  O382  1  0.35558577  0.88042259  0.11481553  1
  O  O383  1  0.40210781  0.89701391  0.62552299  1
  O  O384  1  0.86192251  0.36799698  0.11639629  1
  O  O385  1  0.88173534  0.36738006  0.62968268  1
  O  O386  1  0.95455824  0.83419431  0.12207737  1
  O  O387  1  0.86446507  0.88155477  0.61593982  1
  O  O388  1  0.12353036  0.13316388  0.37095551  1
  O  O389  1  0.12720601  0.12308823  0.88833035  1
  O  O390  1  0.12198390  0.62917734  0.38465754  1
  O  O391  1  0.11435425  0.61408764  0.90423208  1
  O  O392  1  0.61109418  0.15567067  0.36369261  1
  O  O393  1  0.64232886  0.11724632  0.86364097  1
  O  O394  1  0.63578273  0.61538647  0.39574365  1
  O  O395  1  0.62387748  0.64123118  0.88222010  1
