# generated using pymatgen
data_V35Zn35O128
_symmetry_space_group_name_H-M   'P 1'
_cell_length_a   16.87625207
_cell_length_b   16.87602489
_cell_length_c   16.93045886
_cell_angle_alpha   90.03934374
_cell_angle_beta   90.25116997
_cell_angle_gamma   89.95573657
_symmetry_Int_Tables_number   1
_chemical_formula_structural   V35Zn35O128
_chemical_formula_sum   'V70 Zn70 O256'
_cell_volume   4821.81435752
_cell_formula_units_Z   2
loop_
 _symmetry_equiv_pos_site_id
 _symmetry_equiv_pos_as_xyz
  1  'x, y, z'
loop_
 _atom_site_type_symbol
 _atom_site_label
 _atom_site_symmetry_multiplicity
 _atom_site_fract_x
 _atom_site_fract_y
 _atom_site_fract_z
 _atom_site_occupancy
  V  V0  1  0.12469332  0.12286206  -0.00018997  1
  V  V1  1  0.75289417  0.38863691  0.10953159  1
  V  V2  1  -0.00089025  0.25348150  0.75025338  1
  V  V3  1  0.37836292  0.50096928  0.87707434  1
  V  V4  1  0.12658359  0.25117462  0.87084035  1
  V  V5  1  0.37400246  0.37798234  0.00604992  1
  V  V6  1  0.25424160  0.25408937  0.00906331  1
  V  V7  1  -0.00074937  0.38437698  0.39535321  1
  V  V8  1  0.73452657  0.38007737  0.62373841  1
  V  V9  1  0.63198859  0.11433154  -0.01993415  1
  V  V10  1  0.23901627  0.87940958  0.12358719  1
  V  V11  1  0.28507863  0.37106198  0.58720558  1
  V  V12  1  0.50159104  0.13848707  0.62730761  1
  V  V13  1  -0.00119414  0.12866803  0.12840076  1
  V  V14  1  0.12152833  0.75240834  0.86490709  1
  V  V15  1  0.12850049  0.38758848  0.24677508  1
  V  V16  1  0.87405840  0.25629514  0.61835015  1
  V  V17  1  0.50857963  0.36782990  0.86562452  1
  V  V18  1  0.24811677  0.74391187  -0.00217652  1
  V  V19  1  0.51248465  0.61791386  0.61524134  1
  V  V20  1  0.61745319  0.00597702  0.61894975  1
  V  V21  1  0.49740113  0.24207303  0.23775084  1
  V  V22  1  0.88237368  0.61935553  0.75021764  1
  V  V23  1  0.87275074  0.12055125  0.75897632  1
  V  V24  1  0.36813936  0.87944776  0.00996168  1
  V  V25  1  0.75817064  0.74496377  0.00076722  1
  V  V26  1  0.48777652  0.36976446  0.37934674  1
  V  V27  1  0.24686059  0.00380303  0.25510038  1
  V  V28  1  0.12723802  0.88281550  0.73074243  1
  V  V29  1  0.37704931  0.13858517  0.74603432  1
  V  V30  1  0.12134408  0.61025159  0.48918147  1
  V  V31  1  0.46980325  0.88094837  0.86556505  1
  V  V32  1  0.26461524  0.50055534  0.25438695  1
  V  V33  1  0.87928224  0.87855336  0.50181778  1
  V  V34  1  0.87739917  0.61610635  0.24519466  1
  V  V35  1  0.37273172  0.12773927  0.22667658  1
  V  V36  1  -0.01514208  0.38240719  0.89137036  1
  V  V37  1  0.24574211  0.75416939  0.48989881  1
  V  V38  1  0.74713709  0.87945681  0.62503149  1
  V  V39  1  0.73717676  0.49671943  0.75295372  1
  V  V40  1  0.86181147  0.12886413  0.25545436  1
  V  V41  1  0.51034544  0.86529389  0.36306903  1
  V  V42  1  0.28677848  0.61594792  0.38364196  1
  V  V43  1  0.49967427  0.47998407  0.50512944  1
  V  V44  1  0.60824726  0.63433238  0.00705450  1
  V  V45  1  0.00667443  0.61091462  0.62031476  1
  V  V46  1  0.74099555  0.63363576  0.86898782  1
  V  V47  1  0.37298988  0.74989722  0.62124355  1
  V  V48  1  0.48511899  0.01087084  0.00189087  1
  V  V49  1  0.24968966  0.00305207  0.72053653  1
  V  V50  1  0.25146633  0.11654275  0.86900575  1
  V  V51  1  0.62756829  0.23829934  0.36983605  1
  V  V52  1  0.88349540  0.74983588  0.62706396  1
  V  V53  1  0.24669165  0.62072551  0.86266077  1
  V  V54  1  0.00399691  0.86852367  0.36187100  1
  V  V55  1  0.86673799  0.87901289  0.00206974  1
  V  V56  1  0.38692315  0.87269875  0.49675313  1
  V  V57  1  0.01124165  0.25056917  0.26429949  1
  V  V58  1  -0.00536358  0.00359833  -0.00268290  1
  V  V59  1  0.37171490  0.61718864  0.74401352  1
  V  V60  1  0.62403092  0.87482818  0.76830200  1
  V  V61  1  0.38484505  0.01058282  0.37951180  1
  V  V62  1  0.86358623  0.00862208  0.37802627  1
  V  V63  1  0.12808095  0.39490731  0.74601096  1
  V  V64  1  0.01023811  0.12231072  0.61907246  1
  V  V65  1  0.73700111  0.74072615  0.49775075  1
  V  V66  1  0.75152638  0.00436772  0.76764843  1
  V  V67  1  0.85951451  0.49669968  0.39131351  1
  V  V68  1  0.74211591  0.23871470  0.49576573  1
  V  V69  1  -0.00360775  0.88402724  0.86362275  1
  Zn  Zn70  1  0.62845754  0.37796360  0.24068432  1
  Zn  Zn71  1  0.11799530  -0.00360780  0.13648276  1
  Zn  Zn72  1  0.00920149  0.00355803  0.50172616  1
  Zn  Zn73  1  0.88285420  0.27421254  0.10134084  1
  Zn  Zn74  1  0.50606211  0.74249472  0.75236476  1
  Zn  Zn75  1  0.67974183  0.89482662  0.26529073  1
  Zn  Zn76  1  0.18501251  0.18989607  0.19039418  1
  Zn  Zn77  1  0.19436483  0.20075334  0.67907311  1
  Zn  Zn78  1  0.24943243  0.69545077  0.20074943  1
  Zn  Zn79  1  0.18626517  0.69094850  0.68022707  1
  Zn  Zn80  1  0.66473148  0.23124096  0.14439396  1
  Zn  Zn81  1  0.69023729  0.18706844  0.68936984  1
  Zn  Zn82  1  0.66828397  0.71004075  0.31337961  1
  Zn  Zn83  1  0.69140012  0.69280755  0.68750732  1
  Zn  Zn84  1  0.30313024  0.30127107  0.32453528  1
  Zn  Zn85  1  0.31119221  0.31804854  0.81089812  1
  Zn  Zn86  1  0.37184907  0.85463151  0.26153970  1
  Zn  Zn87  1  0.30166800  0.80946007  0.79718003  1
  Zn  Zn88  1  0.81530246  0.31143461  0.31246182  1
  Zn  Zn89  1  0.81365551  0.31680269  0.80823621  1
  Zn  Zn90  1  0.82443027  0.79638621  0.31920690  1
  Zn  Zn91  1  0.81645764  0.81289666  0.80664779  1
  Zn  Zn92  1  0.18956190  0.43288550  0.43277092  1
  Zn  Zn93  1  0.17600036  0.43463038  0.92940342  1
  Zn  Zn94  1  0.19163063  0.93255015  0.42611708  1
  Zn  Zn95  1  0.18409246  0.93759164  0.92993472  1
  Zn  Zn96  1  0.67530557  0.42125304  0.44534828  1
  Zn  Zn97  1  0.68792209  0.45251664  0.94257133  1
  Zn  Zn98  1  0.68528537  0.94216411  0.44420418  1
  Zn  Zn99  1  0.64436563  0.89771506  0.98944546  1
  Zn  Zn100  1  0.30683728  0.05971414  0.05869377  1
  Zn  Zn101  1  0.32319163  0.07043562  0.55539506  1
  Zn  Zn102  1  0.24977793  0.53080990  0.04387326  1
  Zn  Zn103  1  0.31514065  0.55142024  0.56165280  1
  Zn  Zn104  1  0.83142219  0.09724831  0.03815372  1
  Zn  Zn105  1  0.81552272  0.06370433  0.57076818  1
  Zn  Zn106  1  0.72959854  0.59677691  0.15464865  1
  Zn  Zn107  1  0.81011748  0.55967330  0.56515437  1
  Zn  Zn108  1  0.41888574  0.40877054  0.20183812  1
  Zn  Zn109  1  0.43616075  0.43320343  0.68605916  1
  Zn  Zn110  1  0.54503608  0.91996266  0.16465482  1
  Zn  Zn111  1  0.43321957  0.94355118  0.68370652  1
  Zn  Zn112  1  0.91269745  0.42956722  0.21278417  1
  Zn  Zn113  1  0.93733943  0.43688434  0.68931249  1
  Zn  Zn114  1  0.88686429  0.91371723  0.20912596  1
  Zn  Zn115  1  0.93837862  0.94263103  0.68338438  1
  Zn  Zn116  1  0.05398069  0.05137526  0.31866099  1
  Zn  Zn117  1  0.06558322  0.06333756  0.80559332  1
  Zn  Zn118  1  0.05317914  0.55991889  0.31253209  1
  Zn  Zn119  1  0.05105800  0.56351405  0.82797553  1
  Zn  Zn120  1  0.56633838  0.05562612  0.29635615  1
  Zn  Zn121  1  0.55713359  0.05773666  0.81441409  1
  Zn  Zn122  1  0.68011302  0.55303849  0.32921439  1
  Zn  Zn123  1  0.55804577  0.55894521  0.81247523  1
  Zn  Zn124  1  0.49205260  0.15093378  0.41942192  1
  Zn  Zn125  1  0.43407870  0.19426133  0.92544030  1
  Zn  Zn126  1  0.50100251  0.65030536  0.39884562  1
  Zn  Zn127  1  0.43235526  0.69766248  0.93015338  1
  Zn  Zn128  1  0.93883417  0.19311616  0.44039838  1
  Zn  Zn129  1  0.93547611  0.20076360  0.93614319  1
  Zn  Zn130  1  0.93255187  0.68416876  0.43485695  1
  Zn  Zn131  1  0.93525427  0.69312780  0.92879355  1
  Zn  Zn132  1  0.06882229  0.31511572  0.06916635  1
  Zn  Zn133  1  0.08392344  0.31146397  0.56458755  1
  Zn  Zn134  1  0.06066962  0.81456928  0.05012207  1
  Zn  Zn135  1  0.06083198  0.80229975  0.55183660  1
  Zn  Zn136  1  0.56023359  0.30939808  0.04697802  1
  Zn  Zn137  1  0.56195854  0.30490623  0.56558053  1
  Zn  Zn138  1  0.64107342  0.76373726  0.13442560  1
  Zn  Zn139  1  0.55830533  0.81406180  0.56955206  1
  O  O140  1  0.11779198  0.12717755  0.11400644  1
  O  O141  1  0.10866862  0.13745058  0.63190595  1
  O  O142  1  0.09261960  0.69292756  0.14710773  1
  O  O143  1  0.11106961  0.62726225  0.62193026  1
  O  O144  1  0.69275870  0.04555434  0.14363618  1
  O  O145  1  0.61557516  0.11395261  0.64468503  1
  O  O146  1  0.63041337  0.64753097  0.11006173  1
  O  O147  1  0.60921684  0.63102981  0.63698413  1
  O  O148  1  0.38898116  0.35752544  0.37434408  1
  O  O149  1  0.37990752  0.38435833  0.87682803  1
  O  O150  1  0.38858208  0.88267529  0.38207753  1
  O  O151  1  0.36878780  0.88212021  0.86079840  1
  O  O152  1  0.88869392  0.37973542  0.37185079  1
  O  O153  1  0.88601572  0.35693657  0.88272108  1
  O  O154  1  0.87993734  0.88648576  0.38998176  1
  O  O155  1  0.89312650  0.87648164  0.86712532  1
  O  O156  1  0.26490771  -0.00722638  0.35931347  1
  O  O157  1  0.24052054  0.01478963  0.86572923  1
  O  O158  1  0.25560589  0.51236813  0.37526055  1
  O  O159  1  0.25478640  0.51706072  0.87257557  1
  O  O160  1  0.76353739  -0.00008605  0.38245643  1
  O  O161  1  0.75440077  -0.00272461  0.86231380  1
  O  O162  1  0.75119612  0.48265017  0.38430876  1
  O  O163  1  0.75191000  0.51302158  0.85919097  1
  O  O164  1  0.25449927  0.51851233  0.15573124  1
  O  O165  1  0.25945770  0.46749847  0.61594277  1
  O  O166  1  0.24393995  0.99627692  0.13226241  1
  O  O167  1  0.24449150  1.01203008  0.62198444  1
  O  O168  1  0.73414756  0.48452909  0.12929364  1
  O  O169  1  0.74833212  0.48671511  0.63149830  1
  O  O170  1  0.75236926  1.00657213  0.12467014  1
  O  O171  1  0.74155779  0.99346673  0.63317371  1
  O  O172  1  0.00648066  0.36264987  0.25174370  1
  O  O173  1  -0.00170829  0.36587756  0.76337534  1
  O  O174  1  -0.01555047  0.87781045  0.26283166  1
  O  O175  1  0.01204413  0.88875664  0.75690954  1
  O  O176  1  0.49966354  0.35717830  0.26097090  1
  O  O177  1  0.50182334  0.38890481  0.76691703  1
  O  O178  1  0.48535086  0.87806142  0.25933659  1
  O  O179  1  0.50998749  0.88667700  0.75777073  1
  O  O180  1  0.48395175  0.13133789  0.24894023  1
  O  O181  1  0.48109537  0.11819681  0.74908027  1
  O  O182  1  0.51779865  0.59546561  0.22874840  1
  O  O183  1  0.48824989  0.62519234  0.74339078  1
  O  O184  1  1.01298383  0.13578302  0.24664398  1
  O  O185  1  0.99132163  0.13122935  0.74191913  1
  O  O186  1  0.97965488  0.59420495  0.23656361  1
  O  O187  1  0.98855083  0.62128196  0.73924029  1
  O  O188  1  0.36010460  0.25845292  -0.00839759  1
  O  O189  1  0.28440167  0.20419270  0.45615568  1
  O  O190  1  0.35534194  0.76900052  -0.01607706  1
  O  O191  1  0.36788033  0.76358324  0.50378079  1
  O  O192  1  0.86138521  0.20571644  0.01510272  1
  O  O193  1  0.86436084  0.24876554  0.51371377  1
  O  O194  1  0.87255213  0.76973293  -0.01528777  1
  O  O195  1  0.86338823  0.76086411  0.51021840  1
  O  O196  1  0.12079266  0.23702466  0.49306740  1
  O  O197  1  0.13341936  0.24211644  0.99123399  1
  O  O198  1  0.14231291  0.73803145  0.50417755  1
  O  O199  1  0.13842387  0.76222669  0.97717283  1
  O  O200  1  0.63517607  0.24837761  0.49061231  1
  O  O201  1  0.61111691  0.19841085  1.04340417  1
  O  O202  1  0.63890341  0.76122545  0.51100368  1
  O  O203  1  0.65270451  0.73869780  0.98445493  1
  O  O204  1  0.49180458  0.25754188  0.14127310  1
  O  O205  1  0.51731943  0.23630311  0.64372245  1
  O  O206  1  0.41347817  0.71177029  0.17278177  1
  O  O207  1  0.48967353  0.73912002  0.62728811  1
  O  O208  1  0.99847541  0.24194915  0.13487394  1
  O  O209  1  0.98772766  0.24578426  0.63357058  1
  O  O210  1  1.02704083  0.73711276  0.13204822  1
  O  O211  1  0.98808020  0.74216051  0.62069365  1
  O  O212  1  0.00089451  0.25800593  0.36767107  1
  O  O213  1  0.00948969  0.24977201  0.86625692  1
  O  O214  1  -0.00918745  0.77129702  0.39111021  1
  O  O215  1  0.01463977  0.76642791  0.87360596  1
  O  O216  1  0.50848283  0.25269426  0.36821182  1
  O  O217  1  0.50097420  0.26630243  0.87203393  1
  O  O218  1  0.50421144  0.76680876  0.37386606  1
  O  O219  1  0.48922305  0.77467380  0.86418180  1
  O  O220  1  0.24995643  0.14751524  0.49925489  1
  O  O221  1  0.24459344  0.13351645  0.98925012  1
  O  O222  1  0.24521863  0.62254638  0.49221284  1
  O  O223  1  0.25448503  0.64159414  0.98651359  1
  O  O224  1  0.75006119  0.14033897  0.51277197  1
  O  O225  1  0.72952342  0.09889762  0.98946077  1
  O  O226  1  0.74789708  0.64239308  0.51523409  1
  O  O227  1  0.76846234  0.63675187  0.97353170  1
  O  O228  1  0.25284291  0.35856352  -0.01242823  1
  O  O229  1  0.26657738  0.36891258  0.48530675  1
  O  O230  1  0.25289219  0.87566218  0.00201299  1
  O  O231  1  0.25561612  0.85909455  0.48645651  1
  O  O232  1  0.74739063  0.38125143  0.00851501  1
  O  O233  1  0.74553080  0.35990076  0.51925951  1
  O  O234  1  0.76145025  0.86663567  -0.01531351  1
  O  O235  1  0.75781627  0.87583368  0.51260207  1
  O  O236  1  0.13090665  0.49100018  0.25537546  1
  O  O237  1  0.11514889  0.49304837  0.76344907  1
  O  O238  1  0.14226373  1.00936714  0.25373747  1
  O  O239  1  0.13517741  0.99362339  0.74379422  1
  O  O240  1  0.61491575  0.49693819  0.24085996  1
  O  O241  1  0.63798728  0.50425413  0.74939258  1
  O  O242  1  0.61841955  0.98459180  0.22941372  1
  O  O243  1  0.63732073  0.99361340  0.74974865  1
  O  O244  1  0.36827104  0.02089406  0.26296487  1
  O  O245  1  0.35401314  0.00762602  0.73912289  1
  O  O246  1  0.36415953  0.48568860  0.26065921  1
  O  O247  1  0.37489376  0.51112935  0.75757366  1
  O  O248  1  0.87926621  0.01611495  0.26915447  1
  O  O249  1  0.86500373  0.01079270  0.74415225  1
  O  O250  1  0.85828713  0.50376391  0.27455178  1
  O  O251  1  0.86488252  0.51559645  0.73917344  1
  O  O252  1  0.10587387  0.38217023  0.36615058  1
  O  O253  1  0.10995926  0.36523520  0.86606329  1
  O  O254  1  0.10432522  0.88296125  0.37572919  1
  O  O255  1  0.11880331  0.87106260  0.86108502  1
  O  O256  1  0.61791400  0.35333696  0.36546803  1
  O  O257  1  0.60411288  0.39029996  0.89307486  1
  O  O258  1  0.61151081  0.89221877  0.37326918  1
  O  O259  1  0.62518547  0.87922285  0.86813372  1
  O  O260  1  0.37295427  0.12515962  0.12845979  1
  O  O261  1  0.38690456  0.12540842  0.63499136  1
  O  O262  1  0.38504626  0.65317826  0.13563383  1
  O  O263  1  0.38143419  0.62831266  0.62940643  1
  O  O264  1  0.88993411  0.11375461  0.14661786  1
  O  O265  1  0.88155822  0.13710634  0.63594995  1
  O  O266  1  0.84824784  0.61151538  0.14841270  1
  O  O267  1  0.88434662  0.63149990  0.62740641  1
  O  O268  1  0.24503982  0.24723782  0.10761244  1
  O  O269  1  0.23612707  0.28500360  0.62089599  1
  O  O270  1  0.24331928  0.75747494  0.10272797  1
  O  O271  1  0.26373520  0.74008961  0.60657359  1
  O  O272  1  0.77062780  0.26904072  0.14057244  1
  O  O273  1  0.75757552  0.25620543  0.62463975  1
  O  O274  1  0.76148586  0.74473490  0.09864764  1
  O  O275  1  0.75639040  0.76475317  0.62129528  1
  O  O276  1  0.24362407  0.22168691  0.39033122  1
  O  O277  1  0.23825895  0.24014553  0.87443254  1
  O  O278  1  0.25823227  0.72587435  0.38958211  1
  O  O279  1  0.24095943  0.74594710  0.87548866  1
  O  O280  1  0.74652003  0.24985745  0.38963330  1
  O  O281  1  0.71047076  0.25856750  0.84008193  1
  O  O282  1  0.74685281  0.75526811  0.39495687  1
  O  O283  1  0.75479529  0.73734932  0.86391078  1
  O  O284  1  0.00794632  0.12285299  0.00435176  1
  O  O285  1  -0.00554217  0.12832856  0.51611569  1
  O  O286  1  0.01264342  0.62765914  -0.01645130  1
  O  O287  1  0.01035083  0.62916639  0.51125090  1
  O  O288  1  0.47965089  0.11110260  -0.01104898  1
  O  O289  1  0.49780344  0.13081059  0.52807727  1
  O  O290  1  0.50899351  0.64630426  -0.00488069  1
  O  O291  1  0.50464844  0.62140016  0.51419388  1
  O  O292  1  0.50077637  0.36961475  0.49384307  1
  O  O293  1  0.47843569  0.36925436  0.99088215  1
  O  O294  1  0.49133512  0.87324903  0.49002521  1
  O  O295  1  0.47270316  0.88060823  0.98088085  1
  O  O296  1  1.00500888  0.36778916  0.49285943  1
  O  O297  1  1.00478723  0.36102953  0.98895637  1
  O  O298  1  0.98788572  0.88221364  0.50961465  1
  O  O299  1  0.99252335  0.88392959  0.98564127  1
  O  O300  1  0.50032059  0.47175630  0.38509531  1
  O  O301  1  0.48216523  0.50255627  0.88095043  1
  O  O302  1  0.48798279  0.99617937  0.37078960  1
  O  O303  1  0.49477832  0.98506908  0.88088085  1
  O  O304  1  0.98750274  0.48794581  0.38264975  1
  O  O305  1  0.99071579  0.48292739  0.88130195  1
  O  O306  1  0.98558451  0.98875428  0.38561716  1
  O  O307  1  1.01027006  0.99123031  0.88141561  1
  O  O308  1  0.00581449  0.01228898  0.10906503  1
  O  O309  1  0.00039119  0.01684500  0.62278045  1
  O  O310  1  0.01807259  0.54177845  0.08536429  1
  O  O311  1  -0.00683685  0.51254115  0.62250856  1
  O  O312  1  0.48255194  -0.00448225  0.10073005  1
  O  O313  1  0.51342669  0.00739965  0.63236621  1
  O  O314  1  0.53367105  0.52411336  0.21553089  1
  O  O315  1  0.49980149  0.50791009  0.61843411  1
  O  O316  1  0.23737012  0.38310451  0.26945468  1
  O  O317  1  0.22747341  0.37719065  0.76060318  1
  O  O318  1  0.26529588  0.89296470  0.23451341  1
  O  O319  1  0.23939001  0.89166012  0.73979313  1
  O  O320  1  0.74674966  0.35830547  0.23469508  1
  O  O321  1  0.75580452  0.39011376  0.74186014  1
  O  O322  1  0.78831186  0.87704620  0.25091358  1
  O  O323  1  0.74315717  0.88543387  0.74634310  1
  O  O324  1  0.26002886  0.11676289  0.24206933  1
  O  O325  1  0.25246710  0.11880720  0.74671351  1
  O  O326  1  0.25791642  0.61281905  0.27692526  1
  O  O327  1  0.25890057  0.63394919  0.75282780  1
  O  O328  1  0.76638698  0.13620055  0.25086245  1
  O  O329  1  0.76132554  0.11547401  0.74934879  1
  O  O330  1  0.74408185  0.62725797  0.26572843  1
  O  O331  1  0.75631163  0.61775112  0.75061961  1
  O  O332  1  0.38468118  0.11084979  0.39422019  1
  O  O333  1  0.36183032  0.12927332  0.85748211  1
  O  O334  1  0.38540585  0.62293778  0.38479388  1
  O  O335  1  0.36643977  0.62310265  0.86450388  1
  O  O336  1  0.88015761  0.11722784  0.37199001  1
  O  O337  1  0.88417797  0.12742391  0.85686362  1
  O  O338  1  0.87510537  0.60189600  0.38152314  1
  O  O339  1  0.87379517  0.63042997  0.85281046  1
  O  O340  1  0.12642396  0.37393820  0.14650832  1
  O  O341  1  0.10351528  0.38205362  0.64791793  1
  O  O342  1  0.13436224  0.87847226  0.11694172  1
  O  O343  1  0.11438068  0.87060413  0.63357415  1
  O  O344  1  0.63699101  0.35165024  0.12224935  1
  O  O345  1  0.63669459  0.36530348  0.63347141  1
  O  O346  1  0.60435480  0.86050898  0.08838137  1
  O  O347  1  0.62860539  0.88974671  0.63540642  1
  O  O348  1  0.11778235  0.25772524  0.25528805  1
  O  O349  1  0.11368020  0.25242198  0.75686069  1
  O  O350  1  0.12668221  0.70763556  0.21706255  1
  O  O351  1  0.13690914  0.77037759  0.75534422  1
  O  O352  1  0.60726942  0.23584749  0.24963254  1
  O  O353  1  0.65840994  0.25687093  0.78383525  1
  O  O354  1  0.63703506  0.78994580  0.24325487  1
  O  O355  1  0.62447240  0.77301625  0.74418173  1
  O  O356  1  0.37706685  0.23339710  0.25659824  1
  O  O357  1  0.36502197  0.23785106  0.74639205  1
  O  O358  1  0.35726991  0.74154188  0.23441137  1
  O  O359  1  0.37309695  0.74332732  0.73488340  1
  O  O360  1  0.89388347  0.23537009  0.25839583  1
  O  O361  1  0.87909626  0.23981938  0.74398156  1
  O  O362  1  0.88360581  0.71577325  0.27269416  1
  O  O363  1  0.86716615  0.73697635  0.73434100  1
  O  O364  1  0.39946900  0.50373166  0.49897771  1
  O  O365  1  0.35216467  0.48446606  0.98918599  1
  O  O366  1  0.36386584  0.98386227  0.48884409  1
  O  O367  1  0.36857294  0.98763298  0.99196796  1
  O  O368  1  0.86598273  0.49221815  0.49283675  1
  O  O369  1  0.97458370  0.56927529  1.03239545  1
  O  O370  1  0.87432760  0.99578314  0.49632718  1
  O  O371  1  0.88577042  0.99581995  0.99342700  1
  O  O372  1  0.11990477  0.01349141  -0.00406939  1
  O  O373  1  0.12964354  0.02941089  0.47029484  1
  O  O374  1  0.14796794  0.50877381  0.00395709  1
  O  O375  1  0.12985786  0.51198564  0.49999441  1
  O  O376  1  0.59893255  0.00946076  -0.00322238  1
  O  O377  1  0.62794021  0.00580981  0.52033845  1
  O  O378  1  0.63003978  0.53667015  -0.00297235  1
  O  O379  1  0.60298131  0.49342141  0.49776276  1
  O  O380  1  0.37135884  0.38043579  0.10587645  1
  O  O381  1  0.38435705  0.36243765  0.61451354  1
  O  O382  1  0.36278219  0.87304229  0.10993897  1
  O  O383  1  0.38530056  0.86798728  0.60826426  1
  O  O384  1  0.86664073  0.38645174  0.12061895  1
  O  O385  1  0.86954687  0.35865758  0.63421769  1
  O  O386  1  0.87782300  0.88122329  0.09956394  1
  O  O387  1  0.86763504  0.87158498  0.62416473  1
  O  O388  1  0.12563989  0.08442827  0.41305833  1
  O  O389  1  0.12829375  0.13293618  0.87960960  1
  O  O390  1  0.11254520  0.62237332  0.38990721  1
  O  O391  1  0.12881924  0.64533205  0.85735248  1
  O  O392  1  0.60568702  0.13372179  0.37382075  1
  O  O393  1  0.61246211  0.13101144  0.88271646  1
  O  O394  1  0.60481298  0.63051472  0.36334262  1
  O  O395  1  0.63755239  0.62850430  0.87209279  1
