# generated using pymatgen
data_V35Zn35O128
_symmetry_space_group_name_H-M   'P 1'
_cell_length_a   16.95630584
_cell_length_b   17.02617453
_cell_length_c   16.93115236
_cell_angle_alpha   90.34143205
_cell_angle_beta   90.01717773
_cell_angle_gamma   90.17778231
_symmetry_Int_Tables_number   1
_chemical_formula_structural   V35Zn35O128
_chemical_formula_sum   'V70 Zn70 O256'
_cell_volume   4887.93043258
_cell_formula_units_Z   2
loop_
 _symmetry_equiv_pos_site_id
 _symmetry_equiv_pos_as_xyz
  1  'x, y, z'
loop_
 _atom_site_type_symbol
 _atom_site_label
 _atom_site_symmetry_multiplicity
 _atom_site_fract_x
 _atom_site_fract_y
 _atom_site_fract_z
 _atom_site_occupancy
  V  V0  1  0.51010043  0.74565697  0.75535899  1
  V  V1  1  0.88290445  0.86223174  0.00757120  1
  V  V2  1  0.50384067  0.50550870  0.00043822  1
  V  V3  1  0.24416112  0.37920114  0.60084796  1
  V  V4  1  -0.00219629  0.75328947  0.24905409  1
  V  V5  1  0.36940661  0.63332056  0.25330619  1
  V  V6  1  0.74917267  0.62264568  0.37455170  1
  V  V7  1  0.63167094  0.24514619  0.88899869  1
  V  V8  1  0.62424184  0.74931659  0.37042627  1
  V  V9  1  0.49930119  0.61657859  0.62357155  1
  V  V10  1  0.49035704  0.15081719  0.11533583  1
  V  V11  1  0.39565129  -0.00210781  0.38578175  1
  V  V12  1  0.24876918  0.24555823  -0.00446299  1
  V  V13  1  0.49418930  0.23800588  0.74312160  1
  V  V14  1  0.11884725  0.61645238  -0.00239988  1
  V  V15  1  0.62580136  0.74589882  0.88332550  1
  V  V16  1  0.11210529  0.74607808  0.86205777  1
  V  V17  1  -0.00641718  0.87588824  0.39429877  1
  V  V18  1  0.23931202  0.38314158  0.12915567  1
  V  V19  1  0.37298472  0.00238409  0.89243041  1
  V  V20  1  0.37552423  0.62190068  0.74533406  1
  V  V21  1  0.75373788  0.36967195  0.11217670  1
  V  V22  1  0.00350381  0.25031607  0.74025401  1
  V  V23  1  0.62715766  0.62241099  0.49959427  1
  V  V24  1  0.75096672  -0.00175646  0.75569276  1
  V  V25  1  0.49687880  0.63871060  0.12820274  1
  V  V26  1  0.36922570  0.37458676  0.00361393  1
  V  V27  1  0.62830700  0.37177077  0.74609893  1
  V  V28  1  0.74381327  0.49588308  0.24557182  1
  V  V29  1  0.37807420  0.76551129  0.62459920  1
  V  V30  1  0.13499709  0.74539014  0.36720310  1
  V  V31  1  0.62274745  0.50017031  0.12323198  1
  V  V32  1  0.87191274  0.74706016  0.64357445  1
  V  V33  1  0.87401040  0.62757144  0.24252606  1
  V  V34  1  0.62878437  0.88642544  0.25410872  1
  V  V35  1  0.25077518  0.75254148  0.51012864  1
  V  V36  1  0.23990403  0.49106994  0.74016489  1
  V  V37  1  -0.00140304  0.62078457  0.12018743  1
  V  V38  1  0.24790148  0.62879103  0.87206448  1
  V  V39  1  -0.00195301  0.62438788  0.63586769  1
  V  V40  1  0.00211798  0.37426181  0.35797093  1
  V  V41  1  0.12307353  0.23283914  0.87689358  1
  V  V42  1  0.35943639  0.49698425  0.36853247  1
  V  V43  1  0.75718414  0.75854531  0.50718018  1
  V  V44  1  0.49981387  0.48459959  0.48486877  1
  V  V45  1  0.87710915  0.38090457  -0.01193735  1
  V  V46  1  0.13335778  0.26047138  0.35544263  1
  V  V47  1  0.76233795  0.49565798  0.74904392  1
  V  V48  1  0.75562409  0.61565728  0.86887280  1
  V  V49  1  0.24264376  0.10193690  0.37162663  1
  V  V50  1  0.36733070  0.25609786  0.60898937  1
  V  V51  1  0.37547029  0.50001402  0.87081123  1
  V  V52  1  0.62917213  0.49168395  0.62567975  1
  V  V53  1  0.25495565  0.75578104  0.00813942  1
  V  V54  1  0.51167537  0.26371926  0.27921893  1
  V  V55  1  0.88152675  0.12971456  0.72960323  1
  V  V56  1  0.50501193  0.87359750  0.39176285  1
  V  V57  1  0.49841989  0.37497620  0.86986547  1
  V  V58  1  0.87446858  0.49994767  0.37780619  1
  V  V59  1  0.14250935  0.88899423  0.74785324  1
  V  V60  1  0.00916415  0.50372162  0.50385006  1
  V  V61  1  0.88112507  0.01085405  0.89156045  1
  V  V62  1  0.86328760  0.12990865  0.25990164  1
  V  V63  1  0.86699437  0.36435300  0.51363233  1
  V  V64  1  0.00538894  0.38755538  0.87407026  1
  V  V65  1  0.74990267  0.73597251  0.01098097  1
  V  V66  1  -0.01337604  0.86790013  0.85310334  1
  V  V67  1  0.11869364  0.15331568  0.50205139  1
  V  V68  1  0.34634612  0.11752011  0.74386978  1
  V  V69  1  0.76059885  0.87030394  0.14103857  1
  Zn  Zn70  1  0.14345145  0.61347833  0.50397076  1
  Zn  Zn71  1  0.61233170  0.03229834  0.07603791  1
  Zn  Zn72  1  0.50758322  0.88884184  0.88194608  1
  Zn  Zn73  1  0.37338503  0.12985370  0.25131171  1
  Zn  Zn74  1  0.12410904  0.50222892  0.14141826  1
  Zn  Zn75  1  0.10398109  0.01438090  0.10963878  1
  Zn  Zn76  1  0.16540056  0.15109732  0.20046245  1
  Zn  Zn77  1  0.18265949  0.20106752  0.68222953  1
  Zn  Zn78  1  0.18618250  0.68280273  0.18533878  1
  Zn  Zn79  1  0.18772172  0.68419821  0.68026536  1
  Zn  Zn80  1  0.67629141  0.20336808  0.18377459  1
  Zn  Zn81  1  0.67922545  0.16245087  0.72533444  1
  Zn  Zn82  1  0.67947697  0.67914851  0.18807870  1
  Zn  Zn83  1  0.69148726  0.67837469  0.68802996  1
  Zn  Zn84  1  0.31554805  0.32029882  0.30612323  1
  Zn  Zn85  1  0.30804921  0.30778992  0.80979426  1
  Zn  Zn86  1  0.32495775  0.80655785  0.32193884  1
  Zn  Zn87  1  0.28837985  0.84923285  0.86012479  1
  Zn  Zn88  1  0.81890893  0.32294040  0.30373813  1
  Zn  Zn89  1  0.81678667  0.30912293  0.81224625  1
  Zn  Zn90  1  0.81915606  0.80918278  0.32527879  1
  Zn  Zn91  1  0.79991593  0.81509123  0.81729071  1
  Zn  Zn92  1  0.18755641  0.44758248  0.31181277  1
  Zn  Zn93  1  0.18594119  0.43863481  0.92726888  1
  Zn  Zn94  1  0.19153590  0.91683648  0.43527363  1
  Zn  Zn95  1  0.20196568  0.96358864  0.97718981  1
  Zn  Zn96  1  0.69516733  0.43783406  0.44372005  1
  Zn  Zn97  1  0.68494455  0.43642544  0.93498683  1
  Zn  Zn98  1  0.70208445  0.94410203  0.44208980  1
  Zn  Zn99  1  0.71052804  0.95258590  0.95894927  1
  Zn  Zn100  1  0.31676308  0.06504707  0.06956951  1
  Zn  Zn101  1  0.31490445  0.07850906  0.54695801  1
  Zn  Zn102  1  0.31260649  0.56717865  0.06426947  1
  Zn  Zn103  1  0.31468244  0.55790812  0.55229218  1
  Zn  Zn104  1  0.81532083  0.04741346  0.07371214  1
  Zn  Zn105  1  0.78841244  0.06749875  0.56731444  1
  Zn  Zn106  1  0.81577270  0.55777290  0.05767088  1
  Zn  Zn107  1  0.81708329  0.56186051  0.56591855  1
  Zn  Zn108  1  0.43729417  0.43893244  0.19343017  1
  Zn  Zn109  1  0.43637203  0.43279513  0.68124974  1
  Zn  Zn110  1  0.44626436  0.95086667  0.20410440  1
  Zn  Zn111  1  0.43942580  0.94073770  0.72428809  1
  Zn  Zn112  1  0.93088340  0.44428259  0.17878023  1
  Zn  Zn113  1  0.94803398  0.43290208  0.68780749  1
  Zn  Zn114  1  0.97590756  0.91189344  0.16090139  1
  Zn  Zn115  1  0.89338439  0.93626295  0.68464138  1
  Zn  Zn116  1  0.05783203  0.05806293  0.32010116  1
  Zn  Zn117  1  0.05694756  0.05734716  0.81437549  1
  Zn  Zn118  1  0.05998705  0.57308073  0.31952051  1
  Zn  Zn119  1  0.06408463  0.56096562  0.80832148  1
  Zn  Zn120  1  0.56856024  0.06804591  0.23943666  1
  Zn  Zn121  1  0.56400152  0.06324069  0.81960174  1
  Zn  Zn122  1  0.55870700  0.56494569  0.30632326  1
  Zn  Zn123  1  0.57014510  0.56320201  0.81439894  1
  Zn  Zn124  1  0.40922273  0.21579692  0.40439303  1
  Zn  Zn125  1  0.43137653  0.18463653  0.92699980  1
  Zn  Zn126  1  0.43688137  0.68336955  0.43680266  1
  Zn  Zn127  1  0.43382389  0.68629329  0.94142968  1
  Zn  Zn128  1  0.94506004  0.19537325  0.44167174  1
  Zn  Zn129  1  0.93254262  0.20978980  0.94235267  1
  Zn  Zn130  1  0.94099709  0.68752615  0.43700131  1
  Zn  Zn131  1  0.93456027  0.68361479  0.93323906  1
  Zn  Zn132  1  0.06874843  0.32250629  0.04913828  1
  Zn  Zn133  1  0.06187729  0.32797996  0.55482435  1
  Zn  Zn134  1  0.07927503  0.80904288  0.05735107  1
  Zn  Zn135  1  0.06003607  0.80468853  0.57424704  1
  Zn  Zn136  1  0.56018914  0.32014967  0.06859727  1
  Zn  Zn137  1  0.55616229  0.31053896  0.56293308  1
  Zn  Zn138  1  0.57503701  0.81563324  0.06776981  1
  Zn  Zn139  1  0.56241611  0.80526149  0.56510933  1
  O  O140  1  0.13420900  0.12567084  0.09754737  1
  O  O141  1  0.12599090  0.14417319  0.60186993  1
  O  O142  1  0.11740829  0.62309682  0.11214059  1
  O  O143  1  0.10551149  0.63369361  0.61642273  1
  O  O144  1  0.60385919  0.13157277  0.13652017  1
  O  O145  1  0.61356625  0.21225029  0.55344876  1
  O  O146  1  0.60855473  0.61235108  0.12467559  1
  O  O147  1  0.61702055  0.61247395  0.61942153  1
  O  O148  1  0.37276590  0.39810931  0.37013128  1
  O  O149  1  0.38241409  0.38578023  0.87143394  1
  O  O150  1  0.39755524  0.88190772  0.37172176  1
  O  O151  1  0.38887095  0.89375133  0.88127363  1
  O  O152  1  0.88197656  0.38503352  0.37865695  1
  O  O153  1  0.88548370  0.37434870  0.87889932  1
  O  O154  1  0.89170959  0.87226116  0.38102161  1
  O  O155  1  0.87874138  0.87002008  0.88574219  1
  O  O156  1  0.23180507  0.00191529  0.37008745  1
  O  O157  1  0.27148047  -0.00443130  0.88929831  1
  O  O158  1  0.26072530  0.50648692  0.37788041  1
  O  O159  1  0.25709175  0.51018906  0.86193172  1
  O  O160  1  0.76599691  0.03027561  0.46629556  1
  O  O161  1  0.77474579  0.00100177  0.87286108  1
  O  O162  1  0.75376359  0.50263446  0.36554546  1
  O  O163  1  0.74263645  0.50741475  0.86300092  1
  O  O164  1  0.24821426  0.48656973  0.11289162  1
  O  O165  1  0.26201247  0.49045935  0.63285785  1
  O  O166  1  0.22843609  1.00017947  0.08452597  1
  O  O167  1  0.21682444  0.99044081  0.59030311  1
  O  O168  1  0.74012937  0.50344384  0.12899166  1
  O  O169  1  0.73840731  0.50741708  0.63813806  1
  O  O170  1  0.76801739  0.96713063  0.14675232  1
  O  O171  1  0.78416461  0.99302283  0.65574260  1
  O  O172  1  -0.01357250  0.38429794  0.25975069  1
  O  O173  1  -0.00742125  0.35988763  0.76434749  1
  O  O174  1  -0.00764562  0.85415533  0.25786961  1
  O  O175  1  -0.02754263  0.87257665  0.75630502  1
  O  O176  1  0.49002282  0.36033492  0.25173059  1
  O  O177  1  0.50633960  0.37211397  0.75573096  1
  O  O178  1  0.52439133  0.87885440  0.26369710  1
  O  O179  1  0.49487003  0.84360471  0.76119616  1
  O  O180  1  0.49416380  0.15065940  0.24947933  1
  O  O181  1  0.50394166  0.14024259  0.73932845  1
  O  O182  1  0.49701613  0.62558890  0.23331024  1
  O  O183  1  0.49582738  0.62203991  0.74126976  1
  O  O184  1  0.96612570  0.12066552  0.26962168  1
  O  O185  1  0.99125425  0.13645624  0.75565054  1
  O  O186  1  0.98894321  0.63047592  0.24460984  1
  O  O187  1  0.99800305  0.61366752  0.73488308  1
  O  O188  1  0.36530368  0.27129223  -0.02099143  1
  O  O189  1  0.37882249  0.24596357  0.51121451  1
  O  O190  1  0.35534222  0.74364266  -0.00296792  1
  O  O191  1  0.38020002  0.74343082  0.52024138  1
  O  O192  1  0.86294770  0.27679077  -0.00385387  1
  O  O193  1  0.87762798  0.26544731  0.49594337  1
  O  O194  1  0.85621473  0.75361946  -0.00906553  1
  O  O195  1  0.85696043  0.74001629  0.49663443  1
  O  O196  1  0.11635191  0.25438254  0.48210439  1
  O  O197  1  0.13724121  0.25267381  0.98740941  1
  O  O198  1  0.14611164  0.75180004  0.50589971  1
  O  O199  1  0.13127262  0.73820550  0.98169671  1
  O  O200  1  0.69308545  0.21636205  0.55553671  1
  O  O201  1  0.61868852  0.26620655  0.98599044  1
  O  O202  1  0.63430354  0.73726937  0.50076935  1
  O  O203  1  0.63760449  0.74721278  0.99172985  1
  O  O204  1  0.49367475  0.25250537  0.13041526  1
  O  O205  1  0.48038220  0.26093672  0.63810861  1
  O  O206  1  0.50594068  0.73654957  0.11331902  1
  O  O207  1  0.49765726  0.73624606  0.63476741  1
  O  O208  1  1.00366131  0.23238349  0.10211765  1
  O  O209  1  1.01116791  0.26172978  0.64259863  1
  O  O210  1  1.00960808  0.73808270  0.14355853  1
  O  O211  1  0.98360029  0.73307704  0.62576789  1
  O  O212  1  0.00503125  0.27164476  0.37288685  1
  O  O213  1  0.01281153  0.25662946  0.87451658  1
  O  O214  1  0.00587160  0.75254014  0.36614105  1
  O  O215  1  0.00069601  0.75536107  0.87131380  1
  O  O216  1  0.51532429  0.25364685  0.38221190  1
  O  O217  1  0.50176317  0.25994421  0.86050794  1
  O  O218  1  0.51297873  0.76221779  0.38694764  1
  O  O219  1  0.51147573  0.72806578  0.86672101  1
  O  O220  1  0.22716250  0.12232807  0.48183951  1
  O  O221  1  0.26916480  0.15070597  0.99941663  1
  O  O222  1  0.25664291  0.64085330  0.50438506  1
  O  O223  1  0.24242243  0.63150547  0.98982742  1
  O  O224  1  0.62098360  0.05622737  0.55218739  1
  O  O225  1  0.71381217  0.04744919  1.02521808  1
  O  O226  1  0.73711017  0.61842390  0.49493281  1
  O  O227  1  0.75259067  0.63191387  0.99072770  1
  O  O228  1  0.26261509  0.38039246  -0.00891812  1
  O  O229  1  0.25422470  0.38474687  0.50621585  1
  O  O230  1  0.23999148  0.85182596  -0.02785696  1
  O  O231  1  0.26794246  0.84975128  0.48865499  1
  O  O232  1  0.75491361  0.38374968  0.00604013  1
  O  O233  1  0.76645210  0.38072849  0.50718258  1
  O  O234  1  0.75640201  0.85812846  0.01895588  1
  O  O235  1  0.74199009  0.85575184  0.50590155  1
  O  O236  1  0.13000512  0.52010534  0.25265908  1
  O  O237  1  0.14208907  0.50318236  0.74521820  1
  O  O238  1  0.11321122  1.04770823  0.22363872  1
  O  O239  1  0.12025986  0.98678683  0.75349466  1
  O  O240  1  0.63561123  0.50634602  0.24062898  1
  O  O241  1  0.62605066  0.48889213  0.74167983  1
  O  O242  1  0.64342128  0.98410682  0.26093707  1
  O  O243  1  0.65603111  1.04269816  0.74923807  1
  O  O244  1  0.38209012  0.01114562  0.27947337  1
  O  O245  1  0.35790389  0.01916041  0.72317594  1
  O  O246  1  0.38083443  0.51087836  0.26198003  1
  O  O247  1  0.37544592  0.50663445  0.75561748  1
  O  O248  1  0.84292335  0.03335671  0.28624108  1
  O  O249  1  0.87955596  0.01835748  0.77070528  1
  O  O250  1  0.86548962  0.51040932  0.25737258  1
  O  O251  1  0.85933638  0.48879227  0.74404473  1
  O  O252  1  0.11136949  0.37323093  0.36218355  1
  O  O253  1  0.10918250  0.36997219  0.87991328  1
  O  O254  1  0.11603617  0.84946463  0.38127303  1
  O  O255  1  0.09980532  0.86280508  0.85221709  1
  O  O256  1  0.66677799  0.33600749  0.38113825  1
  O  O257  1  0.61296516  0.37115090  0.86488147  1
  O  O258  1  0.62869978  0.87139504  0.37343108  1
  O  O259  1  0.62037221  0.84443304  0.86982020  1
  O  O260  1  0.38776355  0.12369664  0.13448143  1
  O  O261  1  0.35908853  0.14522983  0.63204262  1
  O  O262  1  0.38886982  0.61879611  0.13478218  1
  O  O263  1  0.38856405  0.61616571  0.62985139  1
  O  O264  1  0.86985145  0.10968029  0.15776359  1
  O  O265  1  0.87943631  0.12021425  0.63112348  1
  O  O266  1  0.88085206  0.61999061  0.13443123  1
  O  O267  1  0.88479995  0.63113175  0.62320875  1
  O  O268  1  0.24942895  0.27808298  0.09837361  1
  O  O269  1  0.25963431  0.26739916  0.62581616  1
  O  O270  1  0.23326284  0.75457092  0.10626997  1
  O  O271  1  0.26803127  0.75055526  0.62200315  1
  O  O272  1  0.74124430  0.27238694  0.12280446  1
  O  O273  1  0.72353400  0.16421780  0.61168596  1
  O  O274  1  0.74497497  0.74045158  0.11399803  1
  O  O275  1  0.75801513  0.73326142  0.61379482  1
  O  O276  1  0.23231679  0.26846668  0.37107915  1
  O  O277  1  0.23365433  0.25663829  0.87970288  1
  O  O278  1  0.24007571  0.74962282  0.37593229  1
  O  O279  1  0.24486098  0.73265412  0.87137368  1
  O  O280  1  0.72590306  0.28876129  0.37383848  1
  O  O281  1  0.72882445  0.25956104  0.86544556  1
  O  O282  1  0.74200959  0.74143673  0.38983236  1
  O  O283  1  0.73862343  0.73704417  0.87878570  1
  O  O284  1  -0.00900261  0.17646589  0.05327305  1
  O  O285  1  0.02239081  0.12395298  0.47859278  1
  O  O286  1  0.00556078  0.63630714  0.00925460  1
  O  O287  1  -0.00685033  0.60916980  0.50258885  1
  O  O288  1  0.49215245  0.14365788  0.01428402  1
  O  O289  1  0.64167986  0.15786723  0.40819855  1
  O  O290  1  0.48723655  0.61122983  0.01169154  1
  O  O291  1  0.51302993  0.61788397  0.50645813  1
  O  O292  1  0.50567864  0.38637472  0.49861812  1
  O  O293  1  0.48643119  0.38410097  0.98848832  1
  O  O294  1  0.51276250  0.87558444  0.49112208  1
  O  O295  1  0.53283878  0.89607429  0.99755861  1
  O  O296  1  0.98847737  0.39103567  0.48987252  1
  O  O297  1  0.98918240  0.37553930  0.98748865  1
  O  O298  1  1.00431253  0.85856839  0.49339144  1
  O  O299  1  0.98192990  0.85185891  0.99668654  1
  O  O300  1  0.51532763  0.49633990  0.38572115  1
  O  O301  1  0.49450287  0.49574100  0.87821574  1
  O  O302  1  0.49879373  0.98998799  0.38720970  1
  O  O303  1  0.48296991  0.99063622  0.83006420  1
  O  O304  1  0.99036760  0.49622636  0.38200676  1
  O  O305  1  1.00220356  0.48605120  0.86467458  1
  O  O306  1  1.02087249  0.97297671  0.38022674  1
  O  O307  1  0.98732510  0.97695055  0.87528608  1
  O  O308  1  -0.01751602  0.01583075  0.12737397  1
  O  O309  1  -0.00653207  -0.01254013  0.62248319  1
  O  O310  1  0.00309344  0.51678012  0.12824368  1
  O  O311  1  -0.00696997  0.50862924  0.61233615  1
  O  O312  1  0.51456404  0.01614965  0.14364611  1
  O  O313  1  0.54308721  -0.04517701  0.64869797  1
  O  O314  1  0.50625245  0.49723030  0.11608809  1
  O  O315  1  0.50777959  0.50220152  0.61459053  1
  O  O316  1  0.25015394  0.37848612  0.23202250  1
  O  O317  1  0.25470926  0.39208047  0.75360154  1
  O  O318  1  0.29097921  0.87386264  0.21994427  1
  O  O319  1  0.24131018  0.87346206  0.76024944  1
  O  O320  1  0.76031937  0.39148021  0.23199923  1
  O  O321  1  0.73834465  0.38586247  0.75636773  1
  O  O322  1  0.74766156  0.85189613  0.24667108  1
  O  O323  1  0.74159368  0.89841625  0.76693547  1
  O  O324  1  0.25459159  0.13226197  0.27161620  1
  O  O325  1  0.24899757  0.13286460  0.75002160  1
  O  O326  1  0.26974120  0.62895275  0.23929990  1
  O  O327  1  0.25932176  0.61413499  0.74964869  1
  O  O328  1  0.75916587  0.14618507  0.24767722  1
  O  O329  1  0.78176176  0.12628885  0.76234871  1
  O  O330  1  0.75556236  0.61881700  0.25467007  1
  O  O331  1  0.74763836  0.60776515  0.75841268  1
  O  O332  1  0.35392206  0.11056207  0.39037636  1
  O  O333  1  0.38090293  0.11206793  0.85038238  1
  O  O334  1  0.38800615  0.61445722  0.36219859  1
  O  O335  1  0.36811096  0.61692861  0.86593143  1
  O  O336  1  0.85753326  0.15332284  0.36468012  1
  O  O337  1  0.89807497  0.10644493  0.91122461  1
  O  O338  1  0.86897511  0.61560025  0.36707123  1
  O  O339  1  0.85496564  0.62694734  0.87444901  1
  O  O340  1  0.13458234  0.38436818  0.11688694  1
  O  O341  1  0.14403333  0.37268371  0.61856993  1
  O  O342  1  0.08554299  0.89761053  0.12445762  1
  O  O343  1  0.11631813  0.85902579  0.65446546  1
  O  O344  1  0.63767471  0.39245575  0.11775946  1
  O  O345  1  0.61996234  0.38228694  0.63299161  1
  O  O346  1  0.64351604  0.86690384  0.14525402  1
  O  O347  1  0.59415325  0.89977367  0.63956407  1
  O  O348  1  0.12370589  0.24463916  0.25690331  1
  O  O349  1  0.11261519  0.24518023  0.76424114  1
  O  O350  1  0.11485352  0.73752059  0.26173102  1
  O  O351  1  0.13134164  0.74227387  0.76226589  1
  O  O352  1  0.61088669  0.25737687  0.25503336  1
  O  O353  1  0.61139328  0.25606999  0.74788340  1
  O  O354  1  0.63052631  0.74944952  0.26800984  1
  O  O355  1  0.61424528  0.73627014  0.75258075  1
  O  O356  1  0.38923651  0.24096319  0.29005651  1
  O  O357  1  0.38244491  0.23849650  0.75197002  1
  O  O358  1  0.38513118  0.73282330  0.26139342  1
  O  O359  1  0.38827511  0.73020719  0.73682103  1
  O  O360  1  0.87083259  0.23624646  0.24743560  1
  O  O361  1  0.88907670  0.23862645  0.75407161  1
  O  O362  1  0.88575804  0.73571437  0.25940935  1
  O  O363  1  0.85531687  0.74714038  0.74215390  1
  O  O364  1  0.39504673  0.50904234  0.48347977  1
  O  O365  1  0.37910990  0.49374120  0.98548962  1
  O  O366  1  0.36478432  0.99758094  0.48432431  1
  O  O367  1  0.39314483  1.01947349  0.98761077  1
  O  O368  1  0.87474881  0.49595001  0.48754364  1
  O  O369  1  0.87154020  0.48481439  0.99539379  1
  O  O370  1  0.97286988  1.00255571  0.55366109  1
  O  O371  1  0.87175663  0.97388937  0.99677131  1
  O  O372  1  0.09471050  -0.01078607  -0.00340081  1
  O  O373  1  0.16069652  -0.02150856  0.54192614  1
  O  O374  1  0.12818739  0.51651518  -0.00927615  1
  O  O375  1  0.10761613  0.50039118  0.49508608  1
  O  O376  1  0.59302192  -0.04218644  -0.01289874  1
  O  O377  1  0.60272288  0.00497167  0.50271923  1
  O  O378  1  0.61047295  0.49642219  0.00273682  1
  O  O379  1  0.61947939  0.50262260  0.50605357  1
  O  O380  1  0.36814294  0.38386244  0.10560108  1
  O  O381  1  0.36509460  0.36369974  0.62709091  1
  O  O382  1  0.34650203  0.88162144  0.16919064  1
  O  O383  1  0.39199238  0.86106032  0.63748536  1
  O  O384  1  0.86141766  0.38224920  0.11272207  1
  O  O385  1  0.88495324  0.37607544  0.61190209  1
  O  O386  1  0.87353273  0.85935545  0.11686187  1
  O  O387  1  0.87610633  0.84493150  0.62092608  1
  O  O388  1  0.13347442  0.14142574  0.37318788  1
  O  O389  1  0.11618267  0.13457727  0.87932400  1
  O  O390  1  0.11383749  0.64501828  0.39348138  1
  O  O391  1  0.12887941  0.62797589  0.87679679  1
  O  O392  1  0.63159524  0.09937105  0.36611186  1
  O  O393  1  0.61452600  0.14620973  0.87688918  1
  O  O394  1  0.62719931  0.63091659  0.38203270  1
  O  O395  1  0.63918824  0.63120887  0.87317717  1
