# generated using pymatgen
data_V35Zn35O128
_symmetry_space_group_name_H-M   'P 1'
_cell_length_a   16.88121299
_cell_length_b   16.87454545
_cell_length_c   16.90795075
_cell_angle_alpha   90.14128148
_cell_angle_beta   90.04074078
_cell_angle_gamma   89.83413263
_symmetry_Int_Tables_number   1
_chemical_formula_structural   V35Zn35O128
_chemical_formula_sum   'V70 Zn70 O256'
_cell_volume   4816.41010485
_cell_formula_units_Z   2
loop_
 _symmetry_equiv_pos_site_id
 _symmetry_equiv_pos_as_xyz
  1  'x, y, z'
loop_
 _atom_site_type_symbol
 _atom_site_label
 _atom_site_symmetry_multiplicity
 _atom_site_fract_x
 _atom_site_fract_y
 _atom_site_fract_z
 _atom_site_occupancy
  V  V0  1  0.63032494  0.75075900  0.88928410  1
  V  V1  1  0.37133195  0.48684199  0.36938785  1
  V  V2  1  0.63116998  0.62998227  0.48365737  1
  V  V3  1  0.24473389  0.64654801  0.87855151  1
  V  V4  1  0.49270024  0.85132859  0.36672754  1
  V  V5  1  0.50700771  0.76061892  0.74716730  1
  V  V6  1  0.11944939  0.25275936  0.37527177  1
  V  V7  1  0.38738950  0.86748536  0.00210873  1
  V  V8  1  0.62755273  0.85472636  0.26330117  1
  V  V9  1  -0.01952430  0.24355568  0.24422961  1
  V  V10  1  0.75748108  0.13249594  0.85471533  1
  V  V11  1  0.24589716  0.49445698  0.23726017  1
  V  V12  1  0.37273418  0.37300689  0.01499609  1
  V  V13  1  0.11941684  0.64187923  0.00151511  1
  V  V14  1  0.37898091  0.00964569  0.36449079  1
  V  V15  1  0.75520001  0.25275730  0.00094974  1
  V  V16  1  0.37123471  0.88654445  0.49685283  1
  V  V17  1  0.10730568  0.86855088  0.25318400  1
  V  V18  1  0.25320366  0.85015252  0.12767348  1
  V  V19  1  0.37393983  0.50213623  0.88010423  1
  V  V20  1  0.76336887  0.37583714  0.62170154  1
  V  V21  1  0.87840840  0.38321984  -0.02176804  1
  V  V22  1  0.10618275  0.49786181  0.12560567  1
  V  V23  1  0.75703910  0.50689803  0.26489394  1
  V  V24  1  0.75671936  0.62276609  0.88711004  1
  V  V25  1  0.62852849  0.51056936  0.12170780  1
  V  V26  1  0.37837368  0.62835916  0.74936887  1
  V  V27  1  0.87393002  0.75253807  0.11858165  1
  V  V28  1  -0.00518623  0.24280644  0.75652157  1
  V  V29  1  0.62686703  0.26013784  0.85878484  1
  V  V30  1  0.37641264  0.73993559  0.61418291  1
  V  V31  1  0.13489904  0.01611115  0.62527692  1
  V  V32  1  0.24998446  0.62512915  0.37226551  1
  V  V33  1  0.13357972  0.22595848  0.89352879  1
  V  V34  1  0.50484607  0.37495504  0.86346943  1
  V  V35  1  0.50279610  0.49555815  0.49132176  1
  V  V36  1  -0.01093886  0.12374325  0.62261600  1
  V  V37  1  0.51148771  0.51210439  -0.00155070  1
  V  V38  1  0.62477592  0.36546794  0.25376871  1
  V  V39  1  -0.00278315  0.61328295  0.64204518  1
  V  V40  1  0.24594173  0.87435035  0.64614381  1
  V  V41  1  0.73129327  0.84888783  0.63336984  1
  V  V42  1  0.88447962  0.00480717  0.38480032  1
  V  V43  1  -0.00204124  0.50097136  -0.02686127  1
  V  V44  1  0.76257946  0.37776832  0.12874857  1
  V  V45  1  0.88307100  0.74490024  0.64150495  1
  V  V46  1  0.11683160  -0.00090498  0.10935416  1
  V  V47  1  0.86811003  0.00221095  0.84913176  1
  V  V48  1  0.77020594  0.50311963  0.75103467  1
  V  V49  1  0.49378613  0.24482569  0.23438619  1
  V  V50  1  0.76873009  0.24738081  0.50012828  1
  V  V51  1  0.12209712  0.37804638  0.77449163  1
  V  V52  1  0.88175952  0.63631366  0.26271647  1
  V  V53  1  0.37888164  0.25200511  0.64710871  1
  V  V54  1  0.62232761  0.24170409  0.38859014  1
  V  V55  1  0.49154883  0.12008745  0.60661053  1
  V  V56  1  0.10992313  0.62725625  0.49299686  1
  V  V57  1  0.74469691  0.87921317  0.12689558  1
  V  V58  1  -0.03038119  0.00371259  -0.00836681  1
  V  V59  1  0.02586130  0.85034910  0.87449097  1
  V  V60  1  0.25574863  0.25813793  0.49935386  1
  V  V61  1  0.62970096  0.00953624  0.61645311  1
  V  V62  1  0.23967496  0.12142096  0.38069772  1
  V  V63  1  0.88868668  0.87055227  0.51162324  1
  V  V64  1  0.24420433  0.00469911  0.23909815  1
  V  V65  1  0.12159437  0.36835267  0.24133226  1
  V  V66  1  0.24648602  0.49577621  0.74819643  1
  V  V67  1  0.74013289  0.00292228  0.27729589  1
  V  V68  1  0.61090195  0.49591143  0.63581163  1
  V  V69  1  0.12416464  0.48597709  0.61504244  1
  Zn  Zn70  1  0.37540594  0.37463232  0.50526064  1
  Zn  Zn71  1  0.24033679  0.74790807  0.49678483  1
  Zn  Zn72  1  -0.02154644  0.13284260  0.11902264  1
  Zn  Zn73  1  0.61252700  0.13820406  0.00828386  1
  Zn  Zn74  1  0.01025223  0.86820353  0.39490405  1
  Zn  Zn75  1  0.25818477  -0.00300934  0.77617391  1
  Zn  Zn76  1  0.17156151  0.17213202  0.18572949  1
  Zn  Zn77  1  0.17709540  0.21202708  0.67883922  1
  Zn  Zn78  1  0.17337671  0.67824603  0.19168680  1
  Zn  Zn79  1  0.19029419  0.68272604  0.68242408  1
  Zn  Zn80  1  0.64268630  0.15822289  0.19702845  1
  Zn  Zn81  1  0.68224254  0.19013672  0.66997434  1
  Zn  Zn82  1  0.69702709  0.69009663  0.18895530  1
  Zn  Zn83  1  0.68040976  0.67150415  0.67870354  1
  Zn  Zn84  1  0.31160854  0.30831015  0.30127783  1
  Zn  Zn85  1  0.30644810  0.31442717  0.82938593  1
  Zn  Zn86  1  0.28169804  0.83400877  0.33660870  1
  Zn  Zn87  1  0.36979122  0.86037728  0.79248080  1
  Zn  Zn88  1  0.80322530  0.18288062  0.32099763  1
  Zn  Zn89  1  0.80992880  0.32076472  0.80194595  1
  Zn  Zn90  1  0.81256608  0.81039829  0.32824705  1
  Zn  Zn91  1  0.80660581  0.80795492  0.80843008  1
  Zn  Zn92  1  0.18143565  0.43647440  0.43070271  1
  Zn  Zn93  1  0.19327571  0.44545854  0.94662959  1
  Zn  Zn94  1  0.18059262  0.94007936  0.44069815  1
  Zn  Zn95  1  0.19705421  0.91286391  0.93839534  1
  Zn  Zn96  1  0.69190233  0.42888414  0.43978297  1
  Zn  Zn97  1  0.69203254  0.44101167  0.93339714  1
  Zn  Zn98  1  0.69522799  0.91524081  0.44970606  1
  Zn  Zn99  1  0.72594882  0.91987258  0.91445190  1
  Zn  Zn100  1  0.30899441  0.04646442  -0.03131807  1
  Zn  Zn101  1  0.31039989  0.06629694  0.56536484  1
  Zn  Zn102  1  0.31527803  0.67647188  0.06470084  1
  Zn  Zn103  1  0.30602690  0.55848836  0.55600793  1
  Zn  Zn104  1  0.77802815  0.08403470  0.10241680  1
  Zn  Zn105  1  0.80931559  0.05649082  0.56249660  1
  Zn  Zn106  1  0.82075310  0.56651601  0.06730900  1
  Zn  Zn107  1  0.79227105  0.58083085  0.57669547  1
  Zn  Zn108  1  0.40537262  0.50376217  0.15199744  1
  Zn  Zn109  1  0.43148193  0.43630745  0.68402871  1
  Zn  Zn110  1  0.46406101  0.84090468  0.16186213  1
  Zn  Zn111  1  0.47323177  0.98864231  0.72077170  1
  Zn  Zn112  1  0.93618412  0.43609630  0.20032665  1
  Zn  Zn113  1  0.94543228  0.43291102  0.69439270  1
  Zn  Zn114  1  0.90997552  0.96716788  0.17601895  1
  Zn  Zn115  1  0.95520564  0.93534570  0.69081287  1
  Zn  Zn116  1  0.05730176  0.05951833  0.30931283  1
  Zn  Zn117  1  0.07045293  0.05707280  0.80794153  1
  Zn  Zn118  1  0.05430015  0.69140738  0.31765394  1
  Zn  Zn119  1  0.06474703  0.68931474  0.80549554  1
  Zn  Zn120  1  0.56506253  0.06640881  0.32485135  1
  Zn  Zn121  1  0.58550297  0.08822459  0.78854194  1
  Zn  Zn122  1  0.56393247  0.55567921  0.30898688  1
  Zn  Zn123  1  0.56490302  0.57179628  0.81635278  1
  Zn  Zn124  1  0.43892119  0.19442210  0.42042546  1
  Zn  Zn125  1  0.45246058  0.20049447  0.95689634  1
  Zn  Zn126  1  0.43723320  0.67076706  0.43413239  1
  Zn  Zn127  1  0.44340709  0.69952859  0.93491526  1
  Zn  Zn128  1  0.94674996  0.18167924  0.44257809  1
  Zn  Zn129  1  0.93854102  0.18876864  0.93233959  1
  Zn  Zn130  1  0.92515624  0.69032862  0.44576250  1
  Zn  Zn131  1  0.92753555  0.68405523  0.94275690  1
  Zn  Zn132  1  0.05226173  0.31297973  0.06135874  1
  Zn  Zn133  1  0.06190642  0.29884750  0.56240301  1
  Zn  Zn134  1  0.04418294  0.83144923  0.06729636  1
  Zn  Zn135  1  0.06667801  0.80325930  0.58834015  1
  Zn  Zn136  1  0.56556383  0.32584958  0.05998126  1
  Zn  Zn137  1  0.55614900  0.31802454  0.56935593  1
  Zn  Zn138  1  0.59807252  0.85647415  0.03933877  1
  Zn  Zn139  1  0.55557773  0.81285834  0.55502982  1
  O  O140  1  0.10536834  0.10176326  0.12448327  1
  O  O141  1  0.14416002  0.11850811  0.62583015  1
  O  O142  1  0.12801547  0.60774979  0.10978217  1
  O  O143  1  0.11171568  0.61017112  0.61640429  1
  O  O144  1  0.66808190  0.11039159  0.10053364  1
  O  O145  1  0.60647574  0.12032727  0.61947322  1
  O  O146  1  0.63390395  0.60929255  0.13057628  1
  O  O147  1  0.62949772  0.59754602  0.60439941  1
  O  O148  1  0.36353673  0.38508972  0.37552545  1
  O  O149  1  0.38773339  0.38436605  0.87890707  1
  O  O150  1  0.38092874  0.88585548  0.37380221  1
  O  O151  1  0.39986370  0.86249765  0.90315012  1
  O  O152  1  0.93304281  0.49332803  0.40736384  1
  O  O153  1  0.86977968  0.38687623  0.88028089  1
  O  O154  1  0.88389337  0.87779412  0.40184770  1
  O  O155  1  0.83964421  0.90140262  0.87101839  1
  O  O156  1  0.24631580  0.01134831  0.36959639  1
  O  O157  1  0.24935729  -0.00246295  0.88871584  1
  O  O158  1  0.25302312  0.50340228  0.36969451  1
  O  O159  1  0.25908680  0.50659491  0.86784946  1
  O  O160  1  0.75813289  -0.00585054  0.38219491  1
  O  O161  1  0.75301894  0.02607432  0.86937971  1
  O  O162  1  0.75249008  0.48998758  0.36186502  1
  O  O163  1  0.74084239  0.51003037  0.85710776  1
  O  O164  1  0.24221781  0.50089711  0.13911080  1
  O  O165  1  0.23587332  0.50727943  0.63624119  1
  O  O166  1  0.23632765  0.99476227  0.13615420  1
  O  O167  1  0.25302931  0.98485208  0.62719026  1
  O  O168  1  0.74218472  0.49306888  0.12108282  1
  O  O169  1  0.74490409  0.49162415  0.63367571  1
  O  O170  1  0.75089848  0.98161872  0.16348064  1
  O  O171  1  0.72826425  1.01979071  0.63585238  1
  O  O172  1  0.00854853  0.35788748  0.24767126  1
  O  O173  1  0.01846813  0.36136272  0.74637499  1
  O  O174  1  0.01086133  0.88875032  0.24331578  1
  O  O175  1  -0.00082285  0.88603841  0.78397335  1
  O  O176  1  0.52376745  0.35962465  0.24331109  1
  O  O177  1  0.49575573  0.38136951  0.76489924  1
  O  O178  1  0.50924672  0.87100446  0.26081167  1
  O  O179  1  0.49190488  0.85957630  0.74893822  1
  O  O180  1  0.53145417  0.14391930  0.24362610  1
  O  O181  1  0.49116377  0.11270795  0.73023419  1
  O  O182  1  0.47866847  0.61074981  0.24707893  1
  O  O183  1  0.48189319  0.62915234  0.75274431  1
  O  O184  1  1.00387972  0.14112978  0.24793688  1
  O  O185  1  1.00853632  0.13634438  0.74349141  1
  O  O186  1  0.98230333  0.62778148  0.25406365  1
  O  O187  1  1.00010179  0.61342419  0.74007429  1
  O  O188  1  0.38435150  0.27146820  0.00582502  1
  O  O189  1  0.35974590  0.25395435  0.48417677  1
  O  O190  1  0.37699595  0.75285059  0.00899102  1
  O  O191  1  0.37200505  0.74136306  0.50895770  1
  O  O192  1  0.86895647  0.27103003  -0.01392182  1
  O  O193  1  0.86848892  0.25274359  0.49095985  1
  O  O194  1  0.86722188  0.74525704  0.01772829  1
  O  O195  1  0.87193570  0.76453600  0.51778784  1
  O  O196  1  0.13513080  0.25379131  0.48165890  1
  O  O197  1  0.11112429  0.24713074  0.99077771  1
  O  O198  1  0.12448524  0.73045433  0.51350108  1
  O  O199  1  0.10741838  0.73769443  1.01776841  1
  O  O200  1  0.62279677  0.26593496  0.48836348  1
  O  O201  1  0.64263646  0.25955775  0.98832086  1
  O  O202  1  0.61304677  0.72729367  0.50695856  1
  O  O203  1  0.61713817  0.75247206  0.98813093  1
  O  O204  1  0.51421130  0.25176330  0.13377914  1
  O  O205  1  0.48497384  0.24632267  0.62990497  1
  O  O206  1  0.50043655  0.67749914  0.20740183  1
  O  O207  1  0.47959734  0.75526341  0.62802570  1
  O  O208  1  0.99022078  0.24874608  0.13721502  1
  O  O209  1  1.01382006  0.23560758  0.64128564  1
  O  O210  1  0.97374541  0.76801565  0.12980901  1
  O  O211  1  0.99019371  0.72617016  0.62642278  1
  O  O212  1  0.01571008  0.24189865  0.36602948  1
  O  O213  1  0.01690386  0.24132950  0.86258776  1
  O  O214  1  -0.00288159  0.75558585  0.38792399  1
  O  O215  1  -0.00565596  0.75013770  0.87623607  1
  O  O216  1  0.51646863  0.25179712  0.35737469  1
  O  O217  1  0.51525104  0.26469944  0.87803154  1
  O  O218  1  0.47847220  0.75315191  0.36630330  1
  O  O219  1  0.51833878  0.74306872  0.85665619  1
  O  O220  1  0.25007677  0.13308287  0.48415815  1
  O  O221  1  0.25329034  0.14408550  1.02652061  1
  O  O222  1  0.23754934  0.62340875  0.48715932  1
  O  O223  1  0.23399450  0.63160373  0.98818652  1
  O  O224  1  0.75406177  0.14962800  0.51945685  1
  O  O225  1  0.76517110  0.15195527  0.98570715  1
  O  O226  1  0.73356898  0.61423055  0.48938581  1
  O  O227  1  0.74936283  0.61003813  0.98594148  1
  O  O228  1  0.27289882  0.38659875  -0.00215270  1
  O  O229  1  0.24753367  0.36061503  0.49241019  1
  O  O230  1  0.26090947  0.86186574  0.02299868  1
  O  O231  1  0.26555005  0.86008944  0.46858579  1
  O  O232  1  0.76384230  0.37869246  0.00214225  1
  O  O233  1  0.75747715  0.37284410  0.51326918  1
  O  O234  1  0.71180629  0.89946009  0.02847251  1
  O  O235  1  0.77771552  0.89056147  0.54775016  1
  O  O236  1  0.12729414  0.48740412  0.23552978  1
  O  O237  1  0.12971864  0.48297224  0.73838357  1
  O  O238  1  0.12853714  0.99224720  0.24203842  1
  O  O239  1  0.14882153  1.00772984  0.73844876  1
  O  O240  1  0.63386648  0.48979488  0.23915344  1
  O  O241  1  0.61426285  0.50415744  0.73580840  1
  O  O242  1  0.63606777  0.98682939  0.27875226  1
  O  O243  1  0.59407129  0.99267967  0.72171510  1
  O  O244  1  0.35082132  -0.00568853  0.26285532  1
  O  O245  1  0.36973881  -0.02866896  0.75969936  1
  O  O246  1  0.35620073  0.49166080  0.25996027  1
  O  O247  1  0.36690424  0.50697120  0.75504437  1
  O  O248  1  0.85873575  -0.01777187  0.28101867  1
  O  O249  1  0.87696626  0.00247444  0.75176042  1
  O  O250  1  0.86309282  0.51382250  0.24445815  1
  O  O251  1  0.86945158  0.49826126  0.75108963  1
  O  O252  1  0.12679791  0.35928596  0.36173398  1
  O  O253  1  0.12214222  0.38176251  0.87365577  1
  O  O254  1  0.12248331  0.88157122  0.36015450  1
  O  O255  1  0.12612631  0.84866967  0.87879782  1
  O  O256  1  0.63370222  0.37054340  0.35738492  1
  O  O257  1  0.61747554  0.37146300  0.87398693  1
  O  O258  1  0.59625394  0.87029435  0.37651529  1
  O  O259  1  0.64698419  0.85040627  0.86639538  1
  O  O260  1  0.44058991  0.07543391  0.12144113  1
  O  O261  1  0.37753980  0.14096822  0.62096522  1
  O  O262  1  0.37064661  0.60465149  0.12458245  1
  O  O263  1  0.36044768  0.63539164  0.63227595  1
  O  O264  1  0.88263777  0.07594604  0.13841041  1
  O  O265  1  0.89085581  0.11388185  0.62716314  1
  O  O266  1  0.86059894  0.64453585  0.13997630  1
  O  O267  1  0.88770382  0.62747865  0.61673900  1
  O  O268  1  0.26663489  0.17410963  0.09482201  1
  O  O269  1  0.26024390  0.24428212  0.60583754  1
  O  O270  1  0.24546862  0.74710881  0.13452215  1
  O  O271  1  0.25994188  0.76045097  0.62175541  1
  O  O272  1  0.75449829  0.26899173  0.10579818  1
  O  O273  1  0.74326706  0.26910201  0.61621927  1
  O  O274  1  0.74966555  0.77053447  0.12952736  1
  O  O275  1  0.76117181  0.74553951  0.62979747  1
  O  O276  1  0.24269994  0.23798433  0.37372881  1
  O  O277  1  0.23304764  0.24967518  0.88346869  1
  O  O278  1  0.25501387  0.72827181  0.36644036  1
  O  O279  1  0.25769503  0.74072361  0.86855613  1
  O  O280  1  0.74059785  0.25083857  0.39286348  1
  O  O281  1  0.74357290  0.25479875  0.87508715  1
  O  O282  1  0.73601619  0.81490339  0.41069891  1
  O  O283  1  0.74325809  0.73487409  0.87145019  1
  O  O284  1  -0.01333003  0.10831899  0.00221779  1
  O  O285  1  0.00918260  0.13304744  0.52335466  1
  O  O286  1  0.01157044  0.61241820  -0.01037527  1
  O  O287  1  0.00811679  0.61923305  0.49987197  1
  O  O288  1  0.50750522  0.11027804  -0.01645208  1
  O  O289  1  0.49013191  0.14045851  0.50724040  1
  O  O290  1  0.50315031  0.61026090  -0.01454976  1
  O  O291  1  0.50282944  0.60388839  0.49863833  1
  O  O292  1  0.49382626  0.38912590  0.49848627  1
  O  O293  1  0.49648016  0.38889041  0.98752512  1
  O  O294  1  0.47656082  0.86642843  0.48456934  1
  O  O295  1  0.48571119  0.86152700  1.05100321  1
  O  O296  1  0.99966324  0.36762151  0.48145644  1
  O  O297  1  0.98612948  0.38672481  0.99753809  1
  O  O298  1  0.99371885  0.87339043  0.51840449  1
  O  O299  1  0.99969038  0.88970934  0.97300948  1
  O  O300  1  0.48035414  0.50022854  0.37728494  1
  O  O301  1  0.49988433  0.49380567  0.87884303  1
  O  O302  1  0.47939641  1.00411520  0.36641523  1
  O  O303  1  0.52919466  1.00558191  0.91392464  1
  O  O304  1  0.99216722  0.47511269  0.36933932  1
  O  O305  1  1.00228177  0.49783514  0.87852634  1
  O  O306  1  0.98853359  0.99425528  0.37472955  1
  O  O307  1  0.97814109  1.01095759  0.87912418  1
  O  O308  1  0.00750249  -0.02346674  0.09980850  1
  O  O309  1  0.02293734  0.01566740  0.64083914  1
  O  O310  1  0.00671685  0.50127988  0.12936591  1
  O  O311  1  0.01176080  0.50235298  0.62674964  1
  O  O312  1  0.48835226  0.02392508  0.13870158  1
  O  O313  1  0.49101677  0.01647977  0.60295655  1
  O  O314  1  0.51707892  0.50077796  0.10912298  1
  O  O315  1  0.50468067  0.49379895  0.61263302  1
  O  O316  1  0.23588046  0.38266892  0.25025038  1
  O  O317  1  0.23789083  0.38583326  0.76044183  1
  O  O318  1  0.23333645  0.88292557  0.24539165  1
  O  O319  1  0.25515634  0.86524170  0.74451634  1
  O  O320  1  0.75044270  0.38842939  0.23352301  1
  O  O321  1  0.74636687  0.39101091  0.73788983  1
  O  O322  1  0.73558819  0.87678427  0.25968899  1
  O  O323  1  0.75717335  0.87661551  0.72566150  1
  O  O324  1  0.24227016  0.11057266  0.25584243  1
  O  O325  1  0.36654111  0.11438807  0.81736578  1
  O  O326  1  0.23003797  0.60517176  0.26398642  1
  O  O327  1  0.25323621  0.61745837  0.76067455  1
  O  O328  1  0.74014323  0.10775722  0.25937028  1
  O  O329  1  0.74783897  0.14294961  0.75627399  1
  O  O330  1  0.74697255  0.60917828  0.25415969  1
  O  O331  1  0.75094730  0.60538125  0.74021181  1
  O  O332  1  0.36066301  0.11463391  0.37257102  1
  O  O333  1  0.36054957  0.13413447  0.88971786  1
  O  O334  1  0.35589632  0.60780269  0.37727299  1
  O  O335  1  0.36492960  0.62110821  0.86933003  1
  O  O336  1  0.87674906  0.11059310  0.38344826  1
  O  O337  1  0.86408012  0.12221904  0.86708513  1
  O  O338  1  0.86729387  0.63468919  0.36370870  1
  O  O339  1  0.85710583  0.62788694  0.87228073  1
  O  O340  1  0.11868766  0.38544734  0.12742535  1
  O  O341  1  0.12181363  0.38408226  0.61543973  1
  O  O342  1  0.13261220  0.87928765  0.13411924  1
  O  O343  1  0.14487223  0.87952644  0.62498434  1
  O  O344  1  0.64027979  0.38379676  0.13104171  1
  O  O345  1  0.63316490  0.39297358  0.61711320  1
  O  O346  1  0.62713247  0.87162746  0.15580948  1
  O  O347  1  0.63070712  0.87222345  0.62086754  1
  O  O348  1  0.12759155  0.25435253  0.25249260  1
  O  O349  1  0.12858079  0.26398910  0.76522795  1
  O  O350  1  0.11640508  0.76135456  0.24774377  1
  O  O351  1  0.10981248  0.74817969  0.72217572  1
  O  O352  1  0.64276589  0.25944292  0.25774090  1
  O  O353  1  0.62784825  0.25257715  0.76024189  1
  O  O354  1  0.63148724  0.75499951  0.26290844  1
  O  O355  1  0.60464355  0.74207403  0.72619479  1
  O  O356  1  0.39354432  0.24774438  0.24910557  1
  O  O357  1  0.36046597  0.25372262  0.74466398  1
  O  O358  1  0.44007764  0.72425211  0.18957701  1
  O  O359  1  0.38298500  0.74552949  0.73919110  1
  O  O360  1  0.88285396  0.24720707  0.26467396  1
  O  O361  1  0.89618038  0.25777353  0.75915546  1
  O  O362  1  0.85969644  0.74218179  0.25000066  1
  O  O363  1  0.87615377  0.74369314  0.74048224  1
  O  O364  1  0.37701801  0.49594145  0.48943389  1
  O  O365  1  0.39247062  0.49796028  0.98570962  1
  O  O366  1  0.36172674  0.99017335  0.48423702  1
  O  O367  1  0.37254636  0.96897543  1.01731461  1
  O  O368  1  0.93661123  0.40263736  0.50127108  1
  O  O369  1  0.88932326  0.49724862  0.99955106  1
  O  O370  1  0.87613688  0.99013950  0.49542450  1
  O  O371  1  0.87240773  0.99634634  0.99128245  1
  O  O372  1  0.13355290  -0.01147467  0.01182971  1
  O  O373  1  0.13500200  -0.00223151  0.52417968  1
  O  O374  1  0.10983539  0.49673681  0.00896753  1
  O  O375  1  0.13012856  0.50615521  0.50970794  1
  O  O376  1  0.58408864  -0.02851103  -0.04973369  1
  O  O377  1  0.62834952  -0.01708803  0.51661621  1
  O  O378  1  0.62020624  0.49555809  0.00756382  1
  O  O379  1  0.60962505  0.49865622  0.48956730  1
  O  O380  1  0.38673291  0.39608665  0.11237697  1
  O  O381  1  0.37283946  0.35735181  0.62336967  1
  O  O382  1  0.35163710  0.86321784  0.14626102  1
  O  O383  1  0.35734213  0.86639720  0.60093955  1
  O  O384  1  0.86463641  0.38644657  0.11867958  1
  O  O385  1  0.86348371  0.37765308  0.63237414  1
  O  O386  1  0.85269431  0.87162688  0.12971393  1
  O  O387  1  0.89698967  0.85464730  0.63167326  1
  O  O388  1  0.13397454  0.13336841  0.36847051  1
  O  O389  1  0.12917941  0.12620101  0.88078334  1
  O  O390  1  0.12806174  0.62304011  0.38742870  1
  O  O391  1  0.13402827  0.63535526  0.88530512  1
  O  O392  1  0.62679067  0.14143782  0.38649210  1
  O  O393  1  0.63910100  0.14345206  0.87602767  1
  O  O394  1  0.61413377  0.62265896  0.38325055  1
  O  O395  1  0.63956736  0.63925326  0.86516022  1
