# generated using pymatgen
data_V35Zn35O128
_symmetry_space_group_name_H-M   'P 1'
_cell_length_a   16.89884761
_cell_length_b   16.95233860
_cell_length_c   16.93510606
_cell_angle_alpha   90.07246064
_cell_angle_beta   90.41919147
_cell_angle_gamma   90.09317201
_symmetry_Int_Tables_number   1
_chemical_formula_structural   V35Zn35O128
_chemical_formula_sum   'V70 Zn70 O256'
_cell_volume   4851.34407151
_cell_formula_units_Z   2
loop_
 _symmetry_equiv_pos_site_id
 _symmetry_equiv_pos_as_xyz
  1  'x, y, z'
loop_
 _atom_site_type_symbol
 _atom_site_label
 _atom_site_symmetry_multiplicity
 _atom_site_fract_x
 _atom_site_fract_y
 _atom_site_fract_z
 _atom_site_occupancy
  V  V0  1  0.48737441  0.86796657  0.40013813  1
  V  V1  1  -0.00513315  0.88315997  0.37272609  1
  V  V2  1  0.37516087  0.49047479  0.38568730  1
  V  V3  1  0.24465257  -0.00444885  0.75450482  1
  V  V4  1  -0.00370985  0.77210679  0.75141478  1
  V  V5  1  0.84922660  0.13474338  0.73698901  1
  V  V6  1  0.61248541  0.13411030  0.01473172  1
  V  V7  1  0.50113429  0.12470280  0.14721324  1
  V  V8  1  0.87424495  0.49694804  0.87004416  1
  V  V9  1  -0.00796524  0.74775313  0.23955602  1
  V  V10  1  0.00196976  0.62434139  0.62429513  1
  V  V11  1  0.25246985  0.35768017  0.61314448  1
  V  V12  1  0.25541462  0.62636178  0.36940270  1
  V  V13  1  0.63857653  0.12027757  0.48654520  1
  V  V14  1  0.74790778  0.13798492  0.89685776  1
  V  V15  1  0.35937806  0.62609960  0.75883818  1
  V  V16  1  0.51000624  0.49736106  0.00451407  1
  V  V17  1  -0.00364432  0.49864881  0.49657449  1
  V  V18  1  0.13123509  0.24102117  0.38090188  1
  V  V19  1  0.62862151  0.62040852  0.00215181  1
  V  V20  1  0.49847473  0.63026871  0.62565945  1
  V  V21  1  0.25781086  0.13006279  0.87548621  1
  V  V22  1  0.13196001  0.11498590  0.00187176  1
  V  V23  1  0.60642558  0.87336627  0.24420113  1
  V  V24  1  0.13208936  0.87615364  0.23216459  1
  V  V25  1  0.50296664  0.37610621  0.85880591  1
  V  V26  1  0.75016541  0.63022682  0.87196574  1
  V  V27  1  0.49869791  0.75220139  0.75492050  1
  V  V28  1  0.01317657  0.24813695  0.24290888  1
  V  V29  1  0.75299074  0.85949350  0.13166722  1
  V  V30  1  0.63146078  0.75520566  0.87612329  1
  V  V31  1  0.24167791  0.48933923  0.24552939  1
  V  V32  1  0.86866110  0.36312126  -0.00348766  1
  V  V33  1  0.12348367  0.74791733  0.37501369  1
  V  V34  1  -0.00011519  0.36995731  0.87335680  1
  V  V35  1  0.00521291  0.38160928  0.36011716  1
  V  V36  1  0.00293141  0.09855823  0.62555531  1
  V  V37  1  0.37820599  0.36695083  0.01119095  1
  V  V38  1  0.87461960  0.62404331  0.74498718  1
  V  V39  1  0.87252854  0.25169645  0.12896036  1
  V  V40  1  0.63322860  0.74517362  0.39378576  1
  V  V41  1  0.12293026  0.76673830  0.87468260  1
  V  V42  1  0.35902325  0.50311311  0.87744719  1
  V  V43  1  0.00721675  0.11871458  0.11620316  1
  V  V44  1  -0.00544028  0.25071495  0.73558167  1
  V  V45  1  0.30500303  0.80762473  0.56294605  1
  V  V46  1  0.86678376  0.74713095  0.60704353  1
  V  V47  1  0.13236618  0.63057524  -0.00958880  1
  V  V48  1  0.50907246  0.87335206  0.88902060  1
  V  V49  1  0.87081295  0.89092915  0.48864756  1
  V  V50  1  0.37115747  0.01018942  0.37672173  1
  V  V51  1  0.85200069  0.62070265  0.24679718  1
  V  V52  1  0.86838097  0.36074089  0.50111721  1
  V  V53  1  0.86432366  0.83878853  0.00110669  1
  V  V54  1  0.13502785  0.50414160  0.62904953  1
  V  V55  1  0.00063078  0.50066592  0.00319757  1
  V  V56  1  0.25375111  0.01251701  0.23744235  1
  V  V57  1  0.49767119  0.36311020  0.36858994  1
  V  V58  1  0.35767846  0.87227660  0.00544284  1
  V  V59  1  0.74247791  0.38962686  0.13280168  1
  V  V60  1  0.12983247  0.25089331  0.88049775  1
  V  V61  1  0.12796777  0.63017794  0.49984374  1
  V  V62  1  0.38090226  0.25187397  0.15088516  1
  V  V63  1  0.13390507  0.38105633  0.75316583  1
  V  V64  1  -0.00144413  0.62488902  0.12167203  1
  V  V65  1  0.39307704  0.00822909  0.88079253  1
  V  V66  1  0.74050467  0.48743107  0.74440883  1
  V  V67  1  0.61742608  0.25144599  0.86491160  1
  V  V68  1  0.74936656  0.88873365  0.62660622  1
  V  V69  1  0.62014054  0.49731045  0.62337253  1
  Zn  Zn70  1  0.46896766  0.65143342  0.15506252  1
  Zn  Zn71  1  -0.05365105  -0.02650632  -0.04714591  1
  Zn  Zn72  1  0.48912687  0.48180877  0.51134876  1
  Zn  Zn73  1  0.85989194  0.49924021  0.36684046  1
  Zn  Zn74  1  0.76338733  -0.00471542  0.26571271  1
  Zn  Zn75  1  0.23372057  0.36668608  0.12843456  1
  Zn  Zn76  1  0.19453780  0.19195599  0.18580720  1
  Zn  Zn77  1  0.18295759  0.18187079  0.68942712  1
  Zn  Zn78  1  0.17805119  0.67793592  0.18938116  1
  Zn  Zn79  1  0.18485163  0.82882568  0.69746083  1
  Zn  Zn80  1  0.69861878  0.18969684  0.20297145  1
  Zn  Zn81  1  0.65445150  0.20374238  0.67115399  1
  Zn  Zn82  1  0.65452926  0.69784259  0.18687406  1
  Zn  Zn83  1  0.68358900  0.68993586  0.68907466  1
  Zn  Zn84  1  0.30905553  0.31492719  0.31989020  1
  Zn  Zn85  1  0.31272425  0.31936893  0.81937030  1
  Zn  Zn86  1  0.31197521  0.81440886  0.31150812  1
  Zn  Zn87  1  0.32377567  0.79773672  0.84996780  1
  Zn  Zn88  1  0.81204738  0.31296464  0.30966563  1
  Zn  Zn89  1  0.80796912  0.30486604  0.80958220  1
  Zn  Zn90  1  0.80493754  0.80164187  0.31216585  1
  Zn  Zn91  1  0.81575913  0.82206431  0.81656654  1
  Zn  Zn92  1  0.18382091  0.43836439  0.43836628  1
  Zn  Zn93  1  0.17869382  0.42985805  0.96649400  1
  Zn  Zn94  1  0.19658138  0.92508592  0.41838384  1
  Zn  Zn95  1  0.18820050  0.94252997  0.93482149  1
  Zn  Zn96  1  0.68089101  0.44048744  0.45363534  1
  Zn  Zn97  1  0.68917934  0.43314814  0.93210091  1
  Zn  Zn98  1  0.68934567  0.92125225  0.42993557  1
  Zn  Zn99  1  0.74690157  0.98348469  0.99086353  1
  Zn  Zn100  1  0.32269686  0.06659087  0.06277380  1
  Zn  Zn101  1  0.30877090  -0.02887659  0.56474036  1
  Zn  Zn102  1  0.31570621  0.56127311  0.06583704  1
  Zn  Zn103  1  0.31449165  0.57704366  0.56563566  1
  Zn  Zn104  1  0.82621169  0.05049973  0.12171508  1
  Zn  Zn105  1  0.82570278  0.06943408  0.55954895  1
  Zn  Zn106  1  0.81577976  0.56712391  0.06077320  1
  Zn  Zn107  1  0.81138204  0.55250643  0.56077441  1
  Zn  Zn108  1  0.45392247  0.47276411  0.20900537  1
  Zn  Zn109  1  0.42598265  0.44490153  0.68865103  1
  Zn  Zn110  1  0.43102242  0.93944695  0.18200683  1
  Zn  Zn111  1  0.38547728  0.90100080  0.72242268  1
  Zn  Zn112  1  0.93029665  0.44311306  0.18464540  1
  Zn  Zn113  1  0.93590659  0.43438276  0.68270273  1
  Zn  Zn114  1  0.93818281  0.92563830  0.16517393  1
  Zn  Zn115  1  0.89749979  0.94372652  0.70241101  1
  Zn  Zn116  1  0.06701815  0.06047022  0.30209633  1
  Zn  Zn117  1  0.05976904  0.05587210  0.80354369  1
  Zn  Zn118  1  0.06473846  0.56182796  0.30769571  1
  Zn  Zn119  1  0.06758001  0.56431182  0.81371083  1
  Zn  Zn120  1  0.55727409  0.04053975  0.30810845  1
  Zn  Zn121  1  0.61722962  0.01445957  0.87847501  1
  Zn  Zn122  1  0.56081151  0.56676465  0.32090956  1
  Zn  Zn123  1  0.55751698  0.56460318  0.81527937  1
  Zn  Zn124  1  0.45417008  0.17628232  0.42240031  1
  Zn  Zn125  1  0.44505460  0.19273842  0.94267733  1
  Zn  Zn126  1  0.43521815  0.69455207  0.44165545  1
  Zn  Zn127  1  0.41596168  0.67362370  0.97247419  1
  Zn  Zn128  1  0.98023024  0.20100216  0.46077636  1
  Zn  Zn129  1  0.94693861  0.15034685  0.91606693  1
  Zn  Zn130  1  0.93736200  0.68353515  0.42547075  1
  Zn  Zn131  1  0.94262328  0.68388961  0.92874685  1
  Zn  Zn132  1  0.06523922  0.31512890  0.06049804  1
  Zn  Zn133  1  0.06957887  0.32238063  0.55811778  1
  Zn  Zn134  1  0.05514734  0.81689473  0.05122437  1
  Zn  Zn135  1  0.05902010  0.81987515  0.55998847  1
  Zn  Zn136  1  0.56193416  0.30931079  0.06600463  1
  Zn  Zn137  1  0.58788253  0.31242858  0.55355173  1
  Zn  Zn138  1  0.56545295  0.80542553  0.06653594  1
  Zn  Zn139  1  0.56451930  0.81618721  0.57212586  1
  O  O140  1  0.12183125  0.13684048  0.10963859  1
  O  O141  1  0.10328843  0.11558867  0.64483477  1
  O  O142  1  0.11061363  0.63409855  0.10598779  1
  O  O143  1  0.11136370  0.62033550  0.61641248  1
  O  O144  1  0.61434062  0.14871392  0.12220235  1
  O  O145  1  0.64382621  0.11569409  0.59146870  1
  O  O146  1  0.64415217  0.61519940  0.09831458  1
  O  O147  1  0.60551184  0.62022890  0.63819721  1
  O  O148  1  0.38370562  0.38167487  0.38676024  1
  O  O149  1  0.38529982  0.38384101  0.88063234  1
  O  O150  1  0.38139149  0.87192687  0.37667042  1
  O  O151  1  0.39039764  0.89282348  0.88419978  1
  O  O152  1  0.88731802  0.38016304  0.37579900  1
  O  O153  1  0.87984203  0.37486492  0.88044105  1
  O  O154  1  0.88514480  0.86459323  0.37886083  1
  O  O155  1  0.87302735  0.87258005  0.90126724  1
  O  O156  1  0.26132513  -0.00661824  0.35861132  1
  O  O157  1  0.26141300  0.01374250  0.87477344  1
  O  O158  1  0.25091285  0.50816563  0.37456994  1
  O  O159  1  0.26178602  0.49044113  0.88826256  1
  O  O160  1  0.76843659  -0.02138007  0.37714087  1
  O  O161  1  0.73449763  0.03446535  0.87641083  1
  O  O162  1  0.74715810  0.53464019  0.40938208  1
  O  O163  1  0.75476109  0.50586152  0.85968472  1
  O  O164  1  0.26475945  0.50051936  0.14525644  1
  O  O165  1  0.23506952  0.50649911  0.62138603  1
  O  O166  1  0.25867702  1.00502172  0.13627973  1
  O  O167  1  0.26239031  1.01373440  0.65626902  1
  O  O168  1  0.75331451  0.48722343  0.11037658  1
  O  O169  1  0.73543436  0.50863326  0.63512250  1
  O  O170  1  0.73874925  0.96881972  0.11085680  1
  O  O171  1  0.76379088  0.98796664  0.61680404  1
  O  O172  1  -0.00097750  0.37704888  0.25604735  1
  O  O173  1  0.00562943  0.37021090  0.75684514  1
  O  O174  1  0.00415591  0.86121683  0.25069162  1
  O  O175  1  -0.02603516  0.86724100  0.75011595  1
  O  O176  1  0.49416818  0.38534127  0.26991225  1
  O  O177  1  0.49229643  0.38005417  0.76032020  1
  O  O178  1  0.50500758  0.87672307  0.24628597  1
  O  O179  1  0.48556464  0.85743953  0.76238797  1
  O  O180  1  0.51614574  0.12808067  0.24658782  1
  O  O181  1  0.42965568  0.19390501  0.74214696  1
  O  O182  1  0.49381756  0.57787176  0.23345617  1
  O  O183  1  0.49209234  0.63614955  0.75155096  1
  O  O184  1  1.01148491  0.14119335  0.23158914  1
  O  O185  1  0.99261602  0.14428157  0.74527568  1
  O  O186  1  1.00838066  0.63561960  0.23821380  1
  O  O187  1  0.98942993  0.61838861  0.73753732  1
  O  O188  1  0.37998014  0.26688289  -0.00231193  1
  O  O189  1  0.39308531  0.21998637  0.52016973  1
  O  O190  1  0.36517979  0.77431623  -0.03605081  1
  O  O191  1  0.35526318  0.74024723  0.50877902  1
  O  O192  1  0.88477475  0.26395758  0.00575520  1
  O  O193  1  0.88717615  0.26239841  0.48948782  1
  O  O194  1  0.87076017  0.73900630  -0.00332273  1
  O  O195  1  0.87594881  0.73563999  0.50755558  1
  O  O196  1  0.09644725  0.24461956  0.48039867  1
  O  O197  1  0.12436051  0.24687034  0.98291027  1
  O  O198  1  0.11125373  0.74093887  0.48659653  1
  O  O199  1  0.10993710  0.74075489  0.98640441  1
  O  O200  1  0.64306795  0.22271248  0.47114167  1
  O  O201  1  0.61555248  0.24149610  0.98805217  1
  O  O202  1  0.61796890  0.75298639  0.49455144  1
  O  O203  1  0.62335752  0.73262908  0.98362976  1
  O  O204  1  0.48850480  0.24564707  0.12914400  1
  O  O205  1  0.54854803  0.22675712  0.61593277  1
  O  O206  1  0.54730900  0.72775553  0.14327404  1
  O  O207  1  0.50265436  0.74345633  0.64547859  1
  O  O208  1  1.00150291  0.25778976  0.13332059  1
  O  O209  1  1.01000913  0.25926659  0.63723030  1
  O  O210  1  1.00033262  0.74367099  0.13524132  1
  O  O211  1  0.98936803  0.74100310  0.63350342  1
  O  O212  1  0.00153867  0.26187033  0.35446880  1
  O  O213  1  0.00624820  0.25935655  0.86732667  1
  O  O214  1  0.00782044  0.75180243  0.35897214  1
  O  O215  1  -0.00145775  0.74794777  0.85450715  1
  O  O216  1  0.50016233  0.26341218  0.37067794  1
  O  O217  1  0.50166843  0.26700880  0.87569408  1
  O  O218  1  0.49813490  0.76301215  0.37900362  1
  O  O219  1  0.51179569  0.76096110  0.87162786  1
  O  O220  1  0.18348758  0.06438936  0.51438960  1
  O  O221  1  0.24111339  0.12311067  0.99140880  1
  O  O222  1  0.23350350  0.62152694  0.48946594  1
  O  O223  1  0.22980114  0.61978123  1.00227122  1
  O  O224  1  0.74405475  0.11767491  0.48609440  1
  O  O225  1  0.74641730  0.14511043  0.99514327  1
  O  O226  1  0.75318603  0.59259933  0.46356609  1
  O  O227  1  0.74433555  0.61377031  0.97844150  1
  O  O228  1  0.27850144  0.38591028  0.00545075  1
  O  O229  1  0.23700124  0.37194446  0.51433477  1
  O  O230  1  0.25782094  0.88280924  0.00296853  1
  O  O231  1  0.24693375  0.87692248  0.50774000  1
  O  O232  1  0.76648326  0.37552394  -0.00283426  1
  O  O233  1  0.76832538  0.37626465  0.47947525  1
  O  O234  1  0.76004608  0.86380359  0.00741181  1
  O  O235  1  0.76596982  0.87374718  0.50946142  1
  O  O236  1  0.14049903  0.50081871  0.25102008  1
  O  O237  1  0.11649870  0.49090978  0.74159783  1
  O  O238  1  0.13541581  0.98332914  0.24913963  1
  O  O239  1  0.14441829  0.99259955  0.76805134  1
  O  O240  1  0.62781666  0.46505953  0.30227096  1
  O  O241  1  0.63735814  0.50615109  0.74824738  1
  O  O242  1  0.63844168  0.97274715  0.26813741  1
  O  O243  1  0.60673003  1.03473514  0.73539830  1
  O  O244  1  0.35952476  -0.00836097  0.25522378  1
  O  O245  1  0.37163441  0.00433428  0.77668814  1
  O  O246  1  0.35705568  0.49662852  0.27872345  1
  O  O247  1  0.37322375  0.51105842  0.76928708  1
  O  O248  1  0.87313599  -0.00018033  0.21949987  1
  O  O249  1  0.85573398  0.03731333  0.75572911  1
  O  O250  1  0.86847723  0.51463811  0.24822590  1
  O  O251  1  0.86528188  0.50571510  0.74808016  1
  O  O252  1  0.10850020  0.36775971  0.37839117  1
  O  O253  1  0.11857017  0.37208417  0.87226286  1
  O  O254  1  0.11198068  0.86447581  0.36596032  1
  O  O255  1  0.11226521  0.86593990  0.89300882  1
  O  O256  1  0.61649980  0.40845229  0.35799093  1
  O  O257  1  0.61301296  0.36593714  0.87459149  1
  O  O258  1  0.60218323  0.86725657  0.37964074  1
  O  O259  1  0.61367939  0.87426233  0.87519362  1
  O  O260  1  0.38704072  0.14284794  0.12680292  1
  O  O261  1  0.37642809  0.16908493  0.57084019  1
  O  O262  1  0.38792541  0.64411006  0.07925843  1
  O  O263  1  0.38457873  0.61855430  0.64875977  1
  O  O264  1  0.89795086  0.14813830  0.11408503  1
  O  O265  1  0.88611179  0.13344384  0.63421899  1
  O  O266  1  0.88674971  0.62271245  0.13619091  1
  O  O267  1  0.88004568  0.62805075  0.62549610  1
  O  O268  1  0.27199047  0.25609914  0.13274842  1
  O  O269  1  0.24192972  0.25820927  0.62929559  1
  O  O270  1  0.28394951  0.73916279  0.16004294  1
  O  O271  1  0.24880502  0.75840838  0.62994680  1
  O  O272  1  0.77145375  0.25931240  0.12844569  1
  O  O273  1  0.69308811  0.27743812  0.59477397  1
  O  O274  1  0.73020740  0.76131665  0.12366315  1
  O  O275  1  0.76586971  0.74759931  0.62753690  1
  O  O276  1  0.23044827  0.25741494  0.37821630  1
  O  O277  1  0.24737472  0.23898049  0.86944739  1
  O  O278  1  0.23678919  0.73667139  0.36640527  1
  O  O279  1  0.22097765  0.75526404  0.86399581  1
  O  O280  1  0.84703434  0.13728486  0.33492590  1
  O  O281  1  0.72752319  0.25075791  0.86914784  1
  O  O282  1  0.73559618  0.75919795  0.38879705  1
  O  O283  1  0.74387851  0.74147365  0.85943930  1
  O  O284  1  0.01679908  0.13807383  0.00958653  1
  O  O285  1  -0.00660329  0.10970506  0.52474557  1
  O  O286  1  -0.00448129  0.61705246  0.00587059  1
  O  O287  1  0.00509272  0.61870956  0.50374489  1
  O  O288  1  0.50910183  0.12602981  0.00894580  1
  O  O289  1  0.53282584  0.12632879  0.49818840  1
  O  O290  1  0.51848319  0.60980178  -0.01225852  1
  O  O291  1  0.48590302  0.63149707  0.52599294  1
  O  O292  1  0.52883763  0.37509729  0.47952368  1
  O  O293  1  0.49681693  0.38446657  0.99064906  1
  O  O294  1  0.49354130  0.87419813  0.50007287  1
  O  O295  1  0.50373236  0.86704395  0.98969263  1
  O  O296  1  0.99395878  0.38478085  0.48783753  1
  O  O297  1  0.99116754  0.38217164  0.98802947  1
  O  O298  1  0.98987324  0.86937412  0.47947327  1
  O  O299  1  0.96788778  0.88296314  1.02279892  1
  O  O300  1  0.48030707  0.50353488  0.38725352  1
  O  O301  1  0.49777960  0.48735580  0.87888684  1
  O  O302  1  0.48162466  0.97956083  0.36873634  1
  O  O303  1  0.50088723  0.98974785  0.87465439  1
  O  O304  1  1.00461107  0.49126326  0.37810865  1
  O  O305  1  0.99217310  0.48816328  0.87445224  1
  O  O306  1  1.00251990  0.98083401  0.35921098  1
  O  O307  1  0.98209044  1.04612110  0.87989245  1
  O  O308  1  0.00372357  0.02129955  0.12523109  1
  O  O309  1  -0.01679079  0.00266822  0.64768099  1
  O  O310  1  -0.00430949  0.50759845  0.11148545  1
  O  O311  1  0.00492885  0.50704557  0.61562411  1
  O  O312  1  0.49137949  0.02576934  0.13198008  1
  O  O313  1  0.54427301  0.03209945  0.69617771  1
  O  O314  1  0.50232721  0.49102214  0.10224578  1
  O  O315  1  0.50197057  0.51280664  0.63029451  1
  O  O316  1  0.24821515  0.38479424  0.24907300  1
  O  O317  1  0.23663005  0.37047959  0.74742001  1
  O  O318  1  0.23361065  0.87089528  0.24734396  1
  O  O319  1  0.26728595  0.88724813  0.76214270  1
  O  O320  1  0.76585701  0.38702217  0.23094906  1
  O  O321  1  0.75263334  0.38922574  0.74994426  1
  O  O322  1  0.75627860  0.87389373  0.23827767  1
  O  O323  1  0.79253062  0.88122766  0.72420785  1
  O  O324  1  0.23970511  0.11073922  0.25116075  1
  O  O325  1  0.24667442  0.11827063  0.77061663  1
  O  O326  1  0.24302158  0.61494104  0.26582532  1
  O  O327  1  0.26418064  0.63136950  0.75400059  1
  O  O328  1  0.75425598  0.09247609  0.20432847  1
  O  O329  1  0.75092318  0.15583336  0.72269834  1
  O  O330  1  0.75512115  0.63604699  0.23762204  1
  O  O331  1  0.75958366  0.61927381  0.75351345  1
  O  O332  1  0.38683894  0.10963101  0.36443895  1
  O  O333  1  0.36930075  0.11927755  0.88958294  1
  O  O334  1  0.35724963  0.62252985  0.38224293  1
  O  O335  1  0.37605610  0.61022911  0.87690453  1
  O  O336  1  0.90267588  0.11625841  0.37820938  1
  O  O337  1  0.84757687  0.15731650  0.85806015  1
  O  O338  1  0.87760673  0.62186762  0.35147624  1
  O  O339  1  0.87035803  0.61690629  0.86203593  1
  O  O340  1  0.13999683  0.39438061  0.07321283  1
  O  O341  1  0.13380118  0.38526213  0.63322729  1
  O  O342  1  0.11917471  0.86741580  0.13407929  1
  O  O343  1  0.11602306  0.88308819  0.62787551  1
  O  O344  1  0.64492215  0.36577161  0.11992812  1
  O  O345  1  0.60692959  0.39993745  0.63365775  1
  O  O346  1  0.62689124  0.87367153  0.14066669  1
  O  O347  1  0.64985745  0.87042320  0.62988790  1
  O  O348  1  0.11718999  0.25787973  0.25342113  1
  O  O349  1  0.11470968  0.26049746  0.76148422  1
  O  O350  1  0.11598468  0.75645521  0.25430736  1
  O  O351  1  0.10395387  0.76647840  0.75814837  1
  O  O352  1  0.72156873  0.24578047  0.29783513  1
  O  O353  1  0.60760238  0.23779094  0.76693203  1
  O  O354  1  0.63301587  0.77341051  0.27366687  1
  O  O355  1  0.61112182  0.74694950  0.76321243  1
  O  O356  1  0.37936295  0.25592859  0.24981283  1
  O  O357  1  0.38278155  0.24873406  0.72848566  1
  O  O358  1  0.33881207  0.74265894  0.21350315  1
  O  O359  1  0.38693310  0.73597822  0.77234255  1
  O  O360  1  0.89331314  0.25994502  0.23303936  1
  O  O361  1  0.88946577  0.25587518  0.74524827  1
  O  O362  1  0.88843904  0.73814632  0.25227076  1
  O  O363  1  0.88309284  0.73606596  0.74018400  1
  O  O364  1  0.36877503  0.50587111  0.49193380  1
  O  O365  1  0.39123526  0.49442677  0.98923361  1
  O  O366  1  0.36576291  1.00842021  0.47866586  1
  O  O367  1  0.37459837  0.99108942  0.98791394  1
  O  O368  1  0.88859475  0.50006525  0.49067122  1
  O  O369  1  0.88389936  0.49331921  0.98837493  1
  O  O370  1  0.88055317  0.98779976  0.49646612  1
  O  O371  1  0.85774914  1.01555005  1.01515077  1
  O  O372  1  0.12218815  0.01671203  -0.00414475  1
  O  O373  1  0.13317295  0.01844769  0.48590039  1
  O  O374  1  0.10605255  0.52107633  -0.01968387  1
  O  O375  1  0.11409043  0.50850605  0.50763825  1
  O  O376  1  0.63453021  0.03301364  -0.00260978  1
  O  O377  1  0.63613592  0.01375932  0.48566787  1
  O  O378  1  0.61867643  0.50630116  -0.01463756  1
  O  O379  1  0.61757990  0.50827780  0.52033598  1
  O  O380  1  0.38773499  0.36454365  0.11744246  1
  O  O381  1  0.34929139  0.38336078  0.63305045  1
  O  O382  1  0.38650822  0.87070029  0.10198008  1
  O  O383  1  0.36842472  0.87591276  0.61404999  1
  O  O384  1  0.87552252  0.37065158  0.10913777  1
  O  O385  1  0.87780322  0.38234466  0.60098958  1
  O  O386  1  0.86041616  0.85244513  0.11853640  1
  O  O387  1  0.88008875  0.85755900  0.59980216  1
  O  O388  1  0.11454838  0.14254155  0.36494465  1
  O  O389  1  0.13714037  0.13283073  0.88403643  1
  O  O390  1  0.12729193  0.63052479  0.38153036  1
  O  O391  1  0.11318629  0.64009576  0.88365021  1
  O  O392  1  0.62702521  0.10792222  0.38209056  1
  O  O393  1  0.62822743  0.14078103  0.88702436  1
  O  O394  1  0.61612172  0.64677058  0.37240788  1
  O  O395  1  0.63584910  0.63306786  0.87342407  1
