# generated using pymatgen
data_V35Zn35O128
_symmetry_space_group_name_H-M   'P 1'
_cell_length_a   16.84849382
_cell_length_b   16.88391056
_cell_length_c   16.85559231
_cell_angle_alpha   90.03903801
_cell_angle_beta   89.92239291
_cell_angle_gamma   90.01763616
_symmetry_Int_Tables_number   1
_chemical_formula_structural   V35Zn35O128
_chemical_formula_sum   'V70 Zn70 O256'
_cell_volume   4794.87869594
_cell_formula_units_Z   2
loop_
 _symmetry_equiv_pos_site_id
 _symmetry_equiv_pos_as_xyz
  1  'x, y, z'
loop_
 _atom_site_type_symbol
 _atom_site_label
 _atom_site_symmetry_multiplicity
 _atom_site_fract_x
 _atom_site_fract_y
 _atom_site_fract_z
 _atom_site_occupancy
  V  V0  1  0.49944414  0.24267611  0.24334630  1
  V  V1  1  0.01023048  0.88360766  0.86001219  1
  V  V2  1  0.50068933  0.38323082  0.87364757  1
  V  V3  1  0.64011690  0.24532094  0.89045958  1
  V  V4  1  -0.00456921  0.74740769  0.74210602  1
  V  V5  1  -0.00517407  0.24966204  0.25194509  1
  V  V6  1  0.11928398  0.74894050  0.36879808  1
  V  V7  1  0.73555513  0.23285278  0.50067443  1
  V  V8  1  0.48561453  0.63674848  0.62178989  1
  V  V9  1  0.76107964  0.37756352  0.10676914  1
  V  V10  1  0.62651482  0.77602710  0.36761590  1
  V  V11  1  0.12746036  0.62067018  0.50976555  1
  V  V12  1  0.36991383  0.49753410  0.36045415  1
  V  V13  1  0.87821058  0.87521156  -0.01188340  1
  V  V14  1  0.37641882  0.23840933  0.61415011  1
  V  V15  1  0.38011234  0.87732615  -0.00177769  1
  V  V16  1  0.48674454  0.76970046  0.25048831  1
  V  V17  1  0.59505634  0.74682093  0.87387657  1
  V  V18  1  0.88206512  0.00374508  0.36120957  1
  V  V19  1  0.37488871  0.62778212  0.76780612  1
  V  V20  1  -0.00408500  0.73593598  0.24223805  1
  V  V21  1  0.11839204  0.13600123  0.00569192  1
  V  V22  1  0.36927883  0.23927122  0.13544360  1
  V  V23  1  -0.00261782  0.49868723  0.49431561  1
  V  V24  1  0.85563231  0.51364934  0.37367288  1
  V  V25  1  0.75541435  0.37042307  0.62388032  1
  V  V26  1  0.00963593  0.00323501  0.01149354  1
  V  V27  1  -0.00121531  0.39201452  0.88287353  1
  V  V28  1  0.50991490  0.01787952  -0.00222565  1
  V  V29  1  0.11602279  0.24890833  0.86338061  1
  V  V30  1  0.82841658  0.05821093  0.92574441  1
  V  V31  1  0.63336806  0.37756691  0.25733036  1
  V  V32  1  0.87907915  0.24551152  0.11418913  1
  V  V33  1  0.25964061  0.50052603  0.74977225  1
  V  V34  1  0.36371869  0.37603652  -0.00770258  1
  V  V35  1  0.48688494  0.49344955  0.50502402  1
  V  V36  1  0.13417795  0.12467255  0.50018116  1
  V  V37  1  -0.00083772  0.14189153  0.62292443  1
  V  V38  1  0.75007222  -0.01371938  0.74296702  1
  V  V39  1  0.49759979  0.23478603  0.74943194  1
  V  V40  1  0.76560420  0.50733039  0.74981842  1
  V  V41  1  0.62427873  0.38067049  0.74832162  1
  V  V42  1  0.25451125  0.62193867  0.35861141  1
  V  V43  1  0.86605690  0.86996270  0.50293137  1
  V  V44  1  0.49358970  0.36252339  0.37665820  1
  V  V45  1  0.76788825  0.61487371  0.87715425  1
  V  V46  1  0.87478039  0.73655734  0.12377866  1
  V  V47  1  0.00057891  -0.00719764  0.50819682  1
  V  V48  1  0.30054031  0.19073899  -0.05759369  1
  V  V49  1  0.62783348  0.62778547  0.48623680  1
  V  V50  1  0.23887689  0.74654791  0.00018550  1
  V  V51  1  0.24685181  0.38094666  0.15028635  1
  V  V52  1  0.12480582  0.38185175  0.73469457  1
  V  V53  1  -0.01845736  0.62349249  0.62544272  1
  V  V54  1  0.87624996  0.36625016  0.49239497  1
  V  V55  1  0.62529580  0.00046150  0.13326977  1
  V  V56  1  0.23588340  0.88701126  0.62875720  1
  V  V57  1  0.62663817  0.61708356  0.00318667  1
  V  V58  1  0.25721804  0.75234052  0.50112135  1
  V  V59  1  0.38968393  0.90993681  0.49181812  1
  V  V60  1  0.75061874  0.74853555  -0.00995863  1
  V  V61  1  0.11767081  0.88542698  0.24520738  1
  V  V62  1  0.13011897  0.73691738  0.86816797  1
  V  V63  1  0.25150868  0.11257992  0.34920234  1
  V  V64  1  0.74798353  0.87501360  0.13428554  1
  V  V65  1  0.49799637  0.49679996  0.00878098  1
  V  V66  1  0.12392695  0.26063515  0.37173300  1
  V  V67  1  0.87000904  0.12844243  0.73709603  1
  V  V68  1  0.74368140  0.11981573  0.34411575  1
  V  V69  1  0.24570131  0.89372983  0.12689309  1
  Zn  Zn70  1  0.62509096  0.50987853  0.62470227  1
  Zn  Zn71  1  0.45123097  0.63439248  0.14884986  1
  Zn  Zn72  1  0.63343634  0.49850642  0.12973343  1
  Zn  Zn73  1  0.26129451  0.37041038  0.60981812  1
  Zn  Zn74  1  0.74232643  0.86193123  0.61989596  1
  Zn  Zn75  1  0.37554178  0.77492354  0.64266987  1
  Zn  Zn76  1  0.18224614  0.19416395  0.18960571  1
  Zn  Zn77  1  0.19043120  0.18464737  0.68251467  1
  Zn  Zn78  1  0.19501272  0.69548493  0.18628885  1
  Zn  Zn79  1  0.19162117  0.69068925  0.69032084  1
  Zn  Zn80  1  0.68113445  0.20095461  0.18116961  1
  Zn  Zn81  1  0.70416607  0.20173186  0.71185346  1
  Zn  Zn82  1  0.63582113  0.66589997  0.21455598  1
  Zn  Zn83  1  0.64562375  0.72421402  0.67036682  1
  Zn  Zn84  1  0.30984668  0.30196998  0.32686014  1
  Zn  Zn85  1  0.31338298  0.31574538  0.80237025  1
  Zn  Zn86  1  0.31306469  0.82325048  0.31326756  1
  Zn  Zn87  1  0.31520233  0.81920104  0.81685451  1
  Zn  Zn88  1  0.81193724  0.29978995  0.32243943  1
  Zn  Zn89  1  0.82136968  0.31629777  0.81614871  1
  Zn  Zn90  1  0.81606148  0.81153770  0.31901037  1
  Zn  Zn91  1  0.78630904  0.77448827  0.77141233  1
  Zn  Zn92  1  0.19063491  0.43874124  0.44120622  1
  Zn  Zn93  1  0.17667217  0.44416930  0.93080517  1
  Zn  Zn94  1  0.18373290  0.93822614  0.43240335  1
  Zn  Zn95  1  0.18616551  0.93874022  0.93252061  1
  Zn  Zn96  1  0.67726404  0.43780554  0.44073568  1
  Zn  Zn97  1  0.68856591  0.43634930  0.93445044  1
  Zn  Zn98  1  0.69791663  0.94220003  0.42368370  1
  Zn  Zn99  1  0.67874228  0.92904586  0.92542373  1
  Zn  Zn100  1  0.31384564  0.05636297  0.06917762  1
  Zn  Zn101  1  0.31736232  0.06244559  0.58229848  1
  Zn  Zn102  1  0.28505742  0.55360753  0.05071101  1
  Zn  Zn103  1  0.30672978  0.55554998  0.56291176  1
  Zn  Zn104  1  0.77688270  0.08914630  0.10831386  1
  Zn  Zn105  1  0.81282179  0.05074237  0.56650952  1
  Zn  Zn106  1  0.80208954  0.56154023  0.19913349  1
  Zn  Zn107  1  0.80811601  0.56100477  0.55946801  1
  Zn  Zn108  1  0.43033990  0.42554931  0.18460968  1
  Zn  Zn109  1  0.43083155  0.43167758  0.68692858  1
  Zn  Zn110  1  0.43408868  0.94705781  0.18312699  1
  Zn  Zn111  1  0.37461389  1.01282482  0.87499670  1
  Zn  Zn112  1  0.92644112  0.41314807  0.21673097  1
  Zn  Zn113  1  0.94356895  0.43350730  0.68385874  1
  Zn  Zn114  1  0.93800067  0.92847911  0.18280115  1
  Zn  Zn115  1  0.93045873  0.94137634  0.68656831  1
  Zn  Zn116  1  0.05725663  0.07168989  0.31312229  1
  Zn  Zn117  1  0.03500244  0.08569142  0.82632620  1
  Zn  Zn118  1  0.05337861  0.56630805  0.31521074  1
  Zn  Zn119  1  0.06909104  0.56094574  0.80350891  1
  Zn  Zn120  1  0.54292142  0.04662514  0.30806814  1
  Zn  Zn121  1  0.57521039  0.05944905  0.82424946  1
  Zn  Zn122  1  0.55229932  0.55517694  0.31233222  1
  Zn  Zn123  1  0.56419569  0.57124327  0.80934649  1
  Zn  Zn124  1  0.43045973  0.15517055  0.43727409  1
  Zn  Zn125  1  0.46792923  0.19162925  0.93912950  1
  Zn  Zn126  1  0.44164223  0.68711183  0.42643338  1
  Zn  Zn127  1  0.41585879  0.67408490  0.97149697  1
  Zn  Zn128  1  0.93663559  0.18125817  0.43252442  1
  Zn  Zn129  1  0.93997580  0.20040893  0.93531732  1
  Zn  Zn130  1  0.93575653  0.68746409  0.43515879  1
  Zn  Zn131  1  0.94408090  0.68988419  0.93215440  1
  Zn  Zn132  1  0.06290765  0.32068745  0.06791065  1
  Zn  Zn133  1  0.06358192  0.31022603  0.55380517  1
  Zn  Zn134  1  0.06351331  0.81329393  0.06126523  1
  Zn  Zn135  1  0.06235444  0.81132299  0.56004736  1
  Zn  Zn136  1  0.56563584  0.31561151  0.06880393  1
  Zn  Zn137  1  0.55926519  0.31053663  0.56716401  1
  Zn  Zn138  1  0.56203857  0.80688061  0.06756583  1
  Zn  Zn139  1  0.56157811  0.81994141  0.54755713  1
  O  O140  1  0.12519197  0.13985657  0.10404527  1
  O  O141  1  0.11107223  0.13096772  0.61411249  1
  O  O142  1  0.13124262  0.58003674  0.15887694  1
  O  O143  1  0.12381903  0.62747535  0.61051487  1
  O  O144  1  0.65315672  0.10246652  0.12309410  1
  O  O145  1  0.57175848  0.08029094  0.63065003  1
  O  O146  1  0.63374228  0.61726687  0.10679371  1
  O  O147  1  0.60040847  0.62793182  0.61526757  1
  O  O148  1  0.38284971  0.38484069  0.37171368  1
  O  O149  1  0.38770812  0.36192946  0.88516044  1
  O  O150  1  0.35343372  0.88467925  0.39886630  1
  O  O151  1  0.36011301  0.89467560  0.89235647  1
  O  O152  1  0.86804091  0.38275417  0.39016151  1
  O  O153  1  0.89921135  0.37671905  0.86623904  1
  O  O154  1  0.86864242  0.89415677  0.38449547  1
  O  O155  1  0.89929058  0.86332344  0.88695652  1
  O  O156  1  0.24284899  0.01414493  0.37508132  1
  O  O157  1  0.25090816  0.00008713  0.84993282  1
  O  O158  1  0.25784873  0.51004309  0.37292203  1
  O  O159  1  0.24502954  0.49501614  0.84984213  1
  O  O160  1  0.76391042  0.01296474  0.36740569  1
  O  O161  1  0.76190218  -0.00150569  0.87648948  1
  O  O162  1  0.75705277  0.49722223  0.38294885  1
  O  O163  1  0.75087920  0.50490777  0.86393848  1
  O  O164  1  0.27487264  0.47834413  0.13736484  1
  O  O165  1  0.25652180  0.48704010  0.63563746  1
  O  O166  1  0.24012491  0.99346762  0.12935761  1
  O  O167  1  0.24037125  0.98735307  0.61971395  1
  O  O168  1  0.75286587  0.48005784  0.13424876  1
  O  O169  1  0.74639016  0.49394290  0.63589324  1
  O  O170  1  0.74436058  0.98030148  0.11563085  1
  O  O171  1  0.74680005  0.98486590  0.63690078  1
  O  O172  1  0.01474902  0.35699018  0.24925883  1
  O  O173  1  0.01930927  0.38119335  0.75236047  1
  O  O174  1  0.01341508  0.85965527  0.24105373  1
  O  O175  1  -0.00257931  0.86520236  0.75400007  1
  O  O176  1  0.50229507  0.36935741  0.26206753  1
  O  O177  1  0.50948315  0.37518523  0.75660862  1
  O  O178  1  0.49193303  0.86930570  0.24777930  1
  O  O179  1  0.45635268  0.92820261  0.72944915  1
  O  O180  1  0.50921643  0.14577343  0.24965689  1
  O  O181  1  0.50900364  0.13691911  0.76388254  1
  O  O182  1  0.52070052  0.63083345  0.23592839  1
  O  O183  1  0.48281118  0.61276073  0.73277318  1
  O  O184  1  1.01081460  0.14637155  0.24272990  1
  O  O185  1  0.98950576  0.11933395  0.73076823  1
  O  O186  1  0.99542528  0.63581197  0.24172292  1
  O  O187  1  1.00543047  0.62942314  0.73201145  1
  O  O188  1  0.37045670  0.24984463  0.00198536  1
  O  O189  1  0.39946977  0.23026519  0.51487642  1
  O  O190  1  0.35191819  0.77300026  -0.00990619  1
  O  O191  1  0.35658440  0.74299411  0.48722555  1
  O  O192  1  0.88259286  0.25554626  0.01353983  1
  O  O193  1  0.86591953  0.26322422  0.49529649  1
  O  O194  1  0.87429461  0.75343000  0.00574591  1
  O  O195  1  0.88256398  0.77180151  0.48577014  1
  O  O196  1  0.11536490  0.23282920  0.48775708  1
  O  O197  1  0.11951071  0.24032550  0.98468003  1
  O  O198  1  0.12322670  0.73448364  0.48755006  1
  O  O199  1  0.12736411  0.75497696  0.98439062  1
  O  O200  1  0.63652373  0.24994989  0.50447841  1
  O  O201  1  0.62278000  0.25719413  0.99008930  1
  O  O202  1  0.60936554  0.73473292  0.47907743  1
  O  O203  1  0.63500346  0.73857315  0.99539041  1
  O  O204  1  0.48654829  0.25920272  0.13490333  1
  O  O205  1  0.50057421  0.24617768  0.64236955  1
  O  O206  1  0.49915546  0.74791032  0.14147908  1
  O  O207  1  0.48592688  0.73938863  0.61414263  1
  O  O208  1  0.98843005  0.25894886  0.13281300  1
  O  O209  1  0.99461513  0.24074220  0.62048906  1
  O  O210  1  0.98721889  0.75092364  0.12744302  1
  O  O211  1  1.00425882  0.73932006  0.63342245  1
  O  O212  1  0.00903113  0.24395962  0.36753140  1
  O  O213  1  0.01269189  0.26030415  0.86642152  1
  O  O214  1  0.00789115  0.73994596  0.35741877  1
  O  O215  1  0.01299568  0.75552086  0.86411914  1
  O  O216  1  0.48722717  0.26025848  0.36612621  1
  O  O217  1  0.51696297  0.26312396  0.86616445  1
  O  O218  1  0.51057265  0.74487661  0.35986841  1
  O  O219  1  0.49972780  0.73454426  0.90388772  1
  O  O220  1  0.23256188  0.11835208  0.51014016  1
  O  O221  1  0.23934594  0.12470626  0.99522626  1
  O  O222  1  0.23742445  0.62937120  0.49428770  1
  O  O223  1  0.25051137  0.65028478  0.98711426  1
  O  O224  1  0.74704553  0.13525426  0.52029750  1
  O  O225  1  0.77744810  0.11319451  0.98991395  1
  O  O226  1  0.72517681  0.62072015  0.51071678  1
  O  O227  1  0.74640407  0.63010916  0.98591667  1
  O  O228  1  0.26496475  0.37564456  -0.01160593  1
  O  O229  1  0.26049536  0.37635307  0.49753049  1
  O  O230  1  0.24672314  0.88090625  0.01274483  1
  O  O231  1  0.22916155  0.85419509  0.50055194  1
  O  O232  1  0.75423483  0.37894393  0.00731144  1
  O  O233  1  0.75356797  0.37116438  0.50983895  1
  O  O234  1  0.76115453  0.86080298  -0.01350365  1
  O  O235  1  0.76046507  0.88373883  0.50166478  1
  O  O236  1  0.12008922  0.52864512  0.21270045  1
  O  O237  1  0.13592218  0.48802668  0.73967998  1
  O  O238  1  0.11116872  0.98269098  0.25908465  1
  O  O239  1  0.20743096  1.04089009  0.78801227  1
  O  O240  1  0.61674816  0.48121397  0.24709535  1
  O  O241  1  0.63175800  0.49245123  0.74803388  1
  O  O242  1  0.61737246  0.99142068  0.23168839  1
  O  O243  1  0.65096395  0.99795772  0.76911704  1
  O  O244  1  0.43703768  0.01346633  0.27354127  1
  O  O245  1  0.40937455  -0.01556473  0.73753802  1
  O  O246  1  0.38395375  0.50140019  0.26198139  1
  O  O247  1  0.36823741  0.50620842  0.75041352  1
  O  O248  1  0.89030495  -0.00403724  0.26120819  1
  O  O249  1  0.86582611  0.01340971  0.75032597  1
  O  O250  1  0.87545506  0.50062869  0.26750239  1
  O  O251  1  0.86412782  0.49606455  0.74410618  1
  O  O252  1  0.12550486  0.35961075  0.38813735  1
  O  O253  1  0.12293063  0.36622062  0.86328048  1
  O  O254  1  0.13411742  0.85686200  0.35769448  1
  O  O255  1  0.11252430  0.86966298  0.87228662  1
  O  O256  1  0.60598305  0.37743105  0.36820591  1
  O  O257  1  0.62056366  0.37138549  0.86487958  1
  O  O258  1  0.61665987  0.87531310  0.38406620  1
  O  O259  1  0.61924715  0.84586604  0.87690062  1
  O  O260  1  0.36988812  0.14019434  0.12201016  1
  O  O261  1  0.37661422  0.13768810  0.64175676  1
  O  O262  1  0.37431269  0.62312742  0.07260014  1
  O  O263  1  0.38228712  0.62359685  0.62044244  1
  O  O264  1  0.87192880  0.14540330  0.12797295  1
  O  O265  1  0.88406893  0.12360216  0.62892277  1
  O  O266  1  0.86640504  0.63904998  0.12449557  1
  O  O267  1  0.88317929  0.63016567  0.61694660  1
  O  O268  1  0.26443915  0.25930297  0.13349361  1
  O  O269  1  0.26864320  0.24706074  0.62822307  1
  O  O270  1  0.23729710  0.75911183  0.10569438  1
  O  O271  1  0.25453346  0.74495207  0.60814783  1
  O  O272  1  0.76376398  0.26636531  0.13041478  1
  O  O273  1  0.74704106  0.26435902  0.61949411  1
  O  O274  1  0.76361124  0.76198435  0.10720076  1
  O  O275  1  0.75552345  0.75310262  0.66292814  1
  O  O276  1  0.23137056  0.23295063  0.37155114  1
  O  O277  1  0.24587354  0.24874465  0.87814586  1
  O  O278  1  0.24079922  0.73525518  0.38117326  1
  O  O279  1  0.23330159  0.76467947  0.87969656  1
  O  O280  1  0.75137823  0.22638286  0.39113744  1
  O  O281  1  0.73871789  0.26382247  0.87241337  1
  O  O282  1  0.72763487  0.75959947  0.36974055  1
  O  O283  1  0.75132585  0.73101267  0.87589124  1
  O  O284  1  0.00836066  0.11462998  -0.01015596  1
  O  O285  1  -0.00061465  0.11881445  0.51177680  1
  O  O286  1  0.01166982  0.62319947  0.00332930  1
  O  O287  1  0.00714196  0.62294453  0.50874491  1
  O  O288  1  0.50721664  0.11724326  0.01245790  1
  O  O289  1  0.57552129  0.07438121  0.48071823  1
  O  O290  1  0.51033080  0.60146664  -0.00376026  1
  O  O291  1  0.49793965  0.61245129  0.50513256  1
  O  O292  1  0.50454038  0.38330366  0.48851672  1
  O  O293  1  0.49822740  0.37993549  0.99225329  1
  O  O294  1  0.48707756  0.88340034  0.49602596  1
  O  O295  1  0.48116055  0.87088844  1.00692661  1
  O  O296  1  0.98357225  0.38393433  0.51021862  1
  O  O297  1  1.01419361  0.37768697  0.98242110  1
  O  O298  1  0.99735063  0.88794765  0.50064567  1
  O  O299  1  1.00087846  0.88971205  0.99322943  1
  O  O300  1  0.48464286  0.49286810  0.38425030  1
  O  O301  1  0.50729213  0.48792074  0.88203812  1
  O  O302  1  0.51036760  1.07104281  0.42468466  1
  O  O303  1  0.49457475  1.01035236  0.89092516  1
  O  O304  1  0.98782219  0.50683749  0.38838037  1
  O  O305  1  1.01343296  0.49226980  0.87313383  1
  O  O306  1  0.98721365  1.01324166  0.38902176  1
  O  O307  1  1.00652835  0.98599282  0.87019267  1
  O  O308  1  -0.00005872  -0.00137077  0.10930396  1
  O  O309  1  -0.00204129  0.00568850  0.61180384  1
  O  O310  1  -0.00085973  0.51927612  0.08444968  1
  O  O311  1  -0.00718640  0.51468652  0.61163564  1
  O  O312  1  0.51780418  -0.00784304  0.11115656  1
  O  O313  1  0.55818903  0.00929391  0.63569719  1
  O  O314  1  0.50154612  0.48691132  0.11217655  1
  O  O315  1  0.49377107  0.49932999  0.61157686  1
  O  O316  1  0.25356265  0.37085827  0.25036668  1
  O  O317  1  0.24303853  0.38141691  0.74315159  1
  O  O318  1  0.23669354  0.86597835  0.23490626  1
  O  O319  1  0.26656515  0.86471038  0.72362871  1
  O  O320  1  0.73262668  0.36590228  0.26979440  1
  O  O321  1  0.74682185  0.38216465  0.73980760  1
  O  O322  1  0.75970386  0.86974755  0.23165580  1
  O  O323  1  0.76944307  0.88814909  0.76156409  1
  O  O324  1  0.23731149  0.11450666  0.24915650  1
  O  O325  1  0.25020938  0.09672825  0.75364352  1
  O  O326  1  0.25356834  0.62981017  0.25979781  1
  O  O327  1  0.26404347  0.61372412  0.74059407  1
  O  O328  1  0.75925597  0.13721528  0.24642544  1
  O  O329  1  0.76168786  0.11046640  0.73761390  1
  O  O330  1  0.73813453  0.63768320  0.24578516  1
  O  O331  1  0.75166732  0.61097903  0.76343380  1
  O  O332  1  0.35064850  0.13488359  0.36225727  1
  O  O333  1  0.36799662  0.13330618  0.89081978  1
  O  O334  1  0.36235115  0.61195040  0.37763030  1
  O  O335  1  0.38021756  0.62352434  0.86574820  1
  O  O336  1  0.86306820  0.11231669  0.37816528  1
  O  O337  1  0.88890838  0.12108433  0.86350339  1
  O  O338  1  0.86583047  0.61353868  0.38520775  1
  O  O339  1  0.86720858  0.61865237  0.88233241  1
  O  O340  1  0.15036742  0.37100826  0.11932294  1
  O  O341  1  0.12826980  0.36151827  0.63351778  1
  O  O342  1  0.13051883  0.87570726  0.13440655  1
  O  O343  1  0.13570787  0.86550411  0.62674838  1
  O  O344  1  0.64195766  0.37196824  0.13760237  1
  O  O345  1  0.63494721  0.37973963  0.63204620  1
  O  O346  1  0.64240957  0.87787164  0.11434524  1
  O  O347  1  0.63063216  0.83454420  0.63265841  1
  O  O348  1  0.11847182  0.25236285  0.26480204  1
  O  O349  1  0.13665617  0.25711980  0.75936286  1
  O  O350  1  0.11239189  0.74702605  0.24929367  1
  O  O351  1  0.11698424  0.74655646  0.75880942  1
  O  O352  1  0.60798184  0.26483230  0.24387990  1
  O  O353  1  0.61929828  0.26318708  0.75452442  1
  O  O354  1  0.61251127  0.76843701  0.26111790  1
  O  O355  1  0.59900233  0.72119949  0.77522733  1
  O  O356  1  0.38394153  0.25433891  0.24150708  1
  O  O357  1  0.39582717  0.24906866  0.75853694  1
  O  O358  1  0.38537254  0.75023493  0.26215105  1
  O  O359  1  0.36950472  0.73364644  0.75202675  1
  O  O360  1  0.88823700  0.25754541  0.25006709  1
  O  O361  1  0.86273875  0.22860270  0.75220491  1
  O  O362  1  0.88592004  0.75829442  0.23632089  1
  O  O363  1  0.89824737  0.74178121  0.75902784  1
  O  O364  1  0.38336670  0.49974461  0.49093924  1
  O  O365  1  0.38746519  0.48102771  0.99614876  1
  O  O366  1  0.38309514  1.01150010  0.50369384  1
  O  O367  1  0.38901639  0.99661483  1.00455560  1
  O  O368  1  0.87689108  0.49223557  0.49205665  1
  O  O369  1  0.97097471  0.55559827  1.02527270  1
  O  O370  1  0.88537073  0.99242317  0.49534098  1
  O  O371  1  0.89180619  0.99512012  0.98689643  1
  O  O372  1  0.11557211  0.01433815  -0.00754805  1
  O  O373  1  0.10841579  0.01152369  0.49121237  1
  O  O374  1  0.18054669  0.51852631  0.01243975  1
  O  O375  1  0.11464619  0.51505650  0.49055497  1
  O  O376  1  0.61279603  -0.00784932  -0.00260127  1
  O  O377  1  0.61052422  0.00739815  0.49090199  1
  O  O378  1  0.61561771  0.49778398  0.00253375  1
  O  O379  1  0.60730360  0.50788662  0.50327027  1
  O  O380  1  0.36822770  0.35973279  0.10807230  1
  O  O381  1  0.38060155  0.34884381  0.63057580  1
  O  O382  1  0.35701556  0.88758328  0.11569886  1
  O  O383  1  0.35145584  0.87364003  0.58839521  1
  O  O384  1  0.86571570  0.37112432  0.12906936  1
  O  O385  1  0.86103692  0.38153224  0.61540880  1
  O  O386  1  0.86673622  0.87306641  0.10665271  1
  O  O387  1  0.87433285  0.87682398  0.60804993  1
  O  O388  1  0.13212797  0.12787350  0.38620551  1
  O  O389  1  0.12097560  0.14148807  0.87532718  1
  O  O390  1  0.13520704  0.62813391  0.37503053  1
  O  O391  1  0.12569802  0.63713397  0.87089757  1
  O  O392  1  0.64433898  0.10779242  0.34845051  1
  O  O393  1  0.63118791  0.14613051  0.87547851  1
  O  O394  1  0.62172345  0.61229404  0.38604811  1
  O  O395  1  0.63147777  0.62507768  0.88870548  1
