# generated using pymatgen
data_V35Zn35O128
_symmetry_space_group_name_H-M   'P 1'
_cell_length_a   16.84305438
_cell_length_b   16.82324623
_cell_length_c   16.82284448
_cell_angle_alpha   90.02484563
_cell_angle_beta   89.95449216
_cell_angle_gamma   90.05391212
_symmetry_Int_Tables_number   1
_chemical_formula_structural   V35Zn35O128
_chemical_formula_sum   'V70 Zn70 O256'
_cell_volume   4766.83053321
_cell_formula_units_Z   2
loop_
 _symmetry_equiv_pos_site_id
 _symmetry_equiv_pos_as_xyz
  1  'x, y, z'
loop_
 _atom_site_type_symbol
 _atom_site_label
 _atom_site_symmetry_multiplicity
 _atom_site_fract_x
 _atom_site_fract_y
 _atom_site_fract_z
 _atom_site_occupancy
  V  V0  1  0.23929336  0.48981862  0.75576361  1
  V  V1  1  0.61299120  0.38787878  0.78373510  1
  V  V2  1  0.35725634  0.84287611  0.00622941  1
  V  V3  1  0.36611432  0.11120998  0.25245501  1
  V  V4  1  0.38202777  0.48376056  0.88696784  1
  V  V5  1  0.76169021  0.49445821  0.76706694  1
  V  V6  1  -0.01172436  0.00575615  0.49611784  1
  V  V7  1  0.01014734  0.22985955  0.73507611  1
  V  V8  1  -0.00601211  0.37341084  0.37540819  1
  V  V9  1  0.64248644  0.89839637  0.74959397  1
  V  V10  1  0.75458204  0.00324090  0.27167260  1
  V  V11  1  0.24791673  0.63182386  0.87546513  1
  V  V12  1  0.61384065  0.12524391  0.51819191  1
  V  V13  1  0.65760315  0.48987353  0.59100588  1
  V  V14  1  -0.01512756  0.49289794  -0.00784979  1
  V  V15  1  0.49720958  0.00422423  -0.00706342  1
  V  V16  1  0.12142362  -0.00169380  0.63284736  1
  V  V17  1  0.62234752  0.74171563  0.38445765  1
  V  V18  1  0.63274544  0.12896085  -0.02254045  1
  V  V19  1  0.14139686  -0.00572711  0.13482077  1
  V  V20  1  0.39125369  0.24753267  0.62502732  1
  V  V21  1  0.23700566  0.86896388  0.64465517  1
  V  V22  1  -0.00683225  0.62755157  0.13028423  1
  V  V23  1  -0.00436135  0.75380657  0.25390504  1
  V  V24  1  -0.00985042  0.62765208  0.62387201  1
  V  V25  1  0.26784911  0.36580459  0.12081671  1
  V  V26  1  0.87449522  0.12259098  0.26535561  1
  V  V27  1  0.62176706  0.88876352  0.25843710  1
  V  V28  1  0.25256679  0.25010409  -0.01661491  1
  V  V29  1  0.36353048  0.51339723  0.36926502  1
  V  V30  1  0.78191225  0.52169208  0.25346141  1
  V  V31  1  0.00008383  0.12170046  0.12139598  1
  V  V32  1  0.11083123  0.76178049  0.86032943  1
  V  V33  1  0.62444786  0.61298062  -0.00049080  1
  V  V34  1  0.51514685  0.12142993  0.12949769  1
  V  V35  1  0.64220262  0.24506649  0.38045396  1
  V  V36  1  0.00742897  0.25151370  0.24994162  1
  V  V37  1  0.74675307  0.89259228  0.12401959  1
  V  V38  1  0.49902557  0.61925858  0.62270089  1
  V  V39  1  0.12859683  0.76222883  0.37214407  1
  V  V40  1  0.00256331  0.36699212  0.85239254  1
  V  V41  1  0.49418727  0.25410685  0.24916024  1
  V  V42  1  0.14128701  0.24721948  0.37739887  1
  V  V43  1  0.14434280  0.11626841  0.49103033  1
  V  V44  1  0.12577105  0.12837079  -0.01598941  1
  V  V45  1  0.49143376  0.51009583  0.49910487  1
  V  V46  1  0.25367823  0.75607177  0.49483327  1
  V  V47  1  0.24595041  0.36677951  0.62459653  1
  V  V48  1  0.75395432  0.25533767  -0.02014889  1
  V  V49  1  0.76488692  0.62690765  0.87919097  1
  V  V50  1  0.50426887  0.25235181  0.76241178  1
  V  V51  1  -0.01004078  -0.01605516  -0.00415896  1
  V  V52  1  0.49937581  0.75941238  0.24400790  1
  V  V53  1  0.86667028  0.25677015  0.12071427  1
  V  V54  1  0.38232109  -0.03205120  0.39871536  1
  V  V55  1  0.86527228  0.27594336  0.62358846  1
  V  V56  1  0.51249585  0.61187384  0.12617158  1
  V  V57  1  0.37203824  0.74970951  0.62817603  1
  V  V58  1  0.13546726  0.61605727  0.49094960  1
  V  V59  1  0.12415049  0.63497440  0.00051759  1
  V  V60  1  0.86716965  -0.00000299  0.86211604  1
  V  V61  1  0.87105405  0.75701782  0.12526020  1
  V  V62  1  0.50918322  0.74376761  0.76027103  1
  V  V63  1  0.73907463  0.75926114  0.00246806  1
  V  V64  1  0.36945966  0.36922909  0.49283147  1
  V  V65  1  -0.00891663  0.49471927  0.49121442  1
  V  V66  1  0.12338058  0.48716914  0.12500283  1
  V  V67  1  -0.01483111  0.88236774  0.37626741  1
  V  V68  1  0.36954584  0.63232587  0.23873792  1
  V  V69  1  0.64066533  0.38700637  0.24554124  1
  Zn  Zn70  1  0.24087165  0.49508743  0.24916578  1
  Zn  Zn71  1  0.76062402  0.62764777  0.39330798  1
  Zn  Zn72  1  0.12284152  0.49583674  0.62753750  1
  Zn  Zn73  1  0.37240684  0.61920065  0.75292456  1
  Zn  Zn74  1  0.50392676  0.37748106  0.37362837  1
  Zn  Zn75  1  0.50282715  0.87690633  0.87884162  1
  Zn  Zn76  1  0.18735676  0.18624808  0.18129737  1
  Zn  Zn77  1  0.19486035  0.17475086  0.68464205  1
  Zn  Zn78  1  0.18118470  0.68608230  0.19211023  1
  Zn  Zn79  1  0.17711978  0.68098391  0.68641386  1
  Zn  Zn80  1  0.68814055  0.19138056  0.19965174  1
  Zn  Zn81  1  0.67664678  0.21045943  0.68523420  1
  Zn  Zn82  1  0.68915443  0.68871754  0.19597372  1
  Zn  Zn83  1  0.68217193  0.65802343  0.68781541  1
  Zn  Zn84  1  0.31244729  0.31547509  0.30443555  1
  Zn  Zn85  1  0.31517486  0.30737056  0.80953444  1
  Zn  Zn86  1  0.31441155  0.83589977  0.32108719  1
  Zn  Zn87  1  0.32040297  0.81290427  0.82235021  1
  Zn  Zn88  1  0.81558122  0.31553088  0.30893019  1
  Zn  Zn89  1  0.82587556  0.31653851  0.80973349  1
  Zn  Zn90  1  0.83148365  0.77388773  0.34460574  1
  Zn  Zn91  1  0.80364695  0.83561743  0.83378715  1
  Zn  Zn92  1  0.18700065  0.42846725  0.43126045  1
  Zn  Zn93  1  0.17951039  0.43481640  0.94119990  1
  Zn  Zn94  1  0.20071737  0.94230222  0.43378266  1
  Zn  Zn95  1  0.16719807  0.92080259  0.96828804  1
  Zn  Zn96  1  0.69503289  0.43990688  0.41618745  1
  Zn  Zn97  1  0.69561934  0.43791620  0.94789280  1
  Zn  Zn98  1  0.68118218  0.93801110  0.44325906  1
  Zn  Zn99  1  0.67527375  0.94825928  0.92669817  1
  Zn  Zn100  1  0.31978006  0.08083983  0.06669787  1
  Zn  Zn101  1  0.31481330  0.06240451  0.58340569  1
  Zn  Zn102  1  0.31115786  0.56203007  0.06217061  1
  Zn  Zn103  1  0.31026403  0.56045449  0.56632473  1
  Zn  Zn104  1  0.81496839  0.07260492  0.05696382  1
  Zn  Zn105  1  0.81929667  0.11222371  0.52928866  1
  Zn  Zn106  1  0.80744721  0.56311662  0.07064263  1
  Zn  Zn107  1  0.81512350  0.54094878  0.56412146  1
  Zn  Zn108  1  0.44186195  0.43428656  0.18284189  1
  Zn  Zn109  1  0.42912207  0.43507160  0.69389734  1
  Zn  Zn110  1  0.43381112  0.94479251  0.17386536  1
  Zn  Zn111  1  0.42724914  0.92124414  0.69395511  1
  Zn  Zn112  1  0.94092436  0.43682690  0.18703685  1
  Zn  Zn113  1  0.93816546  0.43712244  0.67953683  1
  Zn  Zn114  1  0.93836913  0.93747196  0.18952058  1
  Zn  Zn115  1  0.92027461  0.94250694  0.66701639  1
  Zn  Zn116  1  0.06771402  0.06221299  0.31190021  1
  Zn  Zn117  1  0.04600018  0.05925443  0.81149638  1
  Zn  Zn118  1  0.06118779  0.56602064  0.31209749  1
  Zn  Zn119  1  0.05446593  0.56714607  0.81199267  1
  Zn  Zn120  1  0.55253561  0.06536805  0.32648921  1
  Zn  Zn121  1  0.53022567  0.05062691  0.78157940  1
  Zn  Zn122  1  0.55834890  0.56781963  0.31748344  1
  Zn  Zn123  1  0.56238826  0.56765938  0.81948062  1
  Zn  Zn124  1  0.43999977  0.18048517  0.42906336  1
  Zn  Zn125  1  0.46029094  0.25045594  0.97257698  1
  Zn  Zn126  1  0.43607883  0.69935273  0.43091379  1
  Zn  Zn127  1  0.43441697  0.67734949  0.94473756  1
  Zn  Zn128  1  0.94913529  0.19324204  0.44702532  1
  Zn  Zn129  1  0.93671004  0.18814720  0.92709134  1
  Zn  Zn130  1  0.94490388  0.70099895  0.47212283  1
  Zn  Zn131  1  0.93741558  0.69944460  0.94580214  1
  Zn  Zn132  1  0.05884411  0.30946852  0.05365721  1
  Zn  Zn133  1  0.06444377  0.30407454  0.55878841  1
  Zn  Zn134  1  0.06611091  0.81294515  0.06855421  1
  Zn  Zn135  1  0.06100280  0.81380327  0.55839177  1
  Zn  Zn136  1  0.58258661  0.31504334  0.07016681  1
  Zn  Zn137  1  0.56476843  0.32020048  0.55407251  1
  Zn  Zn138  1  0.56193147  0.81844851  0.07026108  1
  Zn  Zn139  1  0.58016218  0.80159321  0.58199605  1
  O  O140  1  0.11297533  0.11734494  0.12114282  1
  O  O141  1  0.12693313  0.10368665  0.60689430  1
  O  O142  1  0.11934896  0.62751735  0.11346284  1
  O  O143  1  0.11557156  0.62270849  0.60579330  1
  O  O144  1  0.61780296  0.12529651  0.13855737  1
  O  O145  1  0.62294701  0.13755439  0.61796689  1
  O  O146  1  0.61828332  0.62760572  0.12303872  1
  O  O147  1  0.60591378  0.59287802  0.62302550  1
  O  O148  1  0.37209528  0.38473432  0.38264177  1
  O  O149  1  0.37319533  0.38355138  0.87366502  1
  O  O150  1  0.39866368  0.86473940  0.39673401  1
  O  O151  1  0.38845278  0.86216508  0.90039966  1
  O  O152  1  0.89442310  0.36588665  0.37911078  1
  O  O153  1  0.90129127  0.37385082  0.87600490  1
  O  O154  1  0.88598635  0.87277180  0.37506543  1
  O  O155  1  0.88339686  0.89168413  0.88483142  1
  O  O156  1  0.27925493  -0.04948310  0.35424266  1
  O  O157  1  0.28040385  0.01926838  0.83953426  1
  O  O158  1  0.25926525  0.49615834  0.36721656  1
  O  O159  1  0.24750624  0.50017157  0.86708760  1
  O  O160  1  0.75793727  -0.00572445  0.36911461  1
  O  O161  1  0.76561633  -0.00492936  0.87674636  1
  O  O162  1  0.75540354  0.51618328  0.36242461  1
  O  O163  1  0.75517946  0.51475266  0.87894758  1
  O  O164  1  0.23572962  0.48750172  0.11641396  1
  O  O165  1  0.24944093  0.49199062  0.63874652  1
  O  O166  1  0.23908645  1.01124654  0.11679543  1
  O  O167  1  0.23336723  0.97428377  0.62006917  1
  O  O168  1  0.75478197  0.50965382  0.15391059  1
  O  O169  1  0.73849618  0.52223619  0.65884512  1
  O  O170  1  0.75467165  0.99310741  0.12426014  1
  O  O171  1  0.78610575  0.90504072  0.56980016  1
  O  O172  1  0.00099272  0.36295516  0.26099549  1
  O  O173  1  0.01019038  0.38280206  0.75083516  1
  O  O174  1  0.00035434  0.86815305  0.26247024  1
  O  O175  1  -0.03990903  0.82419765  0.72012457  1
  O  O176  1  0.50724315  0.36591594  0.24982712  1
  O  O177  1  0.50978468  0.38105136  0.75572518  1
  O  O178  1  0.51090920  0.86963009  0.23767719  1
  O  O179  1  0.49997145  0.85131814  0.75511753  1
  O  O180  1  0.49827818  0.13460644  0.24589277  1
  O  O181  1  0.52416995  0.15729475  0.74078386  1
  O  O182  1  0.49503978  0.63265440  0.23952115  1
  O  O183  1  0.49421872  0.62533710  0.73862281  1
  O  O184  1  0.99016114  0.12838911  0.24487383  1
  O  O185  1  0.99354111  0.13096815  0.73807927  1
  O  O186  1  1.00689260  0.63862232  0.23980159  1
  O  O187  1  1.00878370  0.62514755  0.72357678  1
  O  O188  1  0.35095280  0.23139310  -0.00381226  1
  O  O189  1  0.38284754  0.26662224  0.50124828  1
  O  O190  1  0.36682328  0.74080129  0.01106496  1
  O  O191  1  0.35900645  0.74087483  0.50763570  1
  O  O192  1  0.86611448  0.23899352  0.01155051  1
  O  O193  1  0.87841834  0.21017010  0.53415950  1
  O  O194  1  0.86097292  0.75271744  0.01645242  1
  O  O195  1  0.76939277  0.70694204  0.54722446  1
  O  O196  1  0.12250755  0.23093049  0.48810741  1
  O  O197  1  0.12663752  0.23506325  0.99987820  1
  O  O198  1  0.13365619  0.74099330  0.48917641  1
  O  O199  1  0.12150953  0.73822552  0.99520187  1
  O  O200  1  0.62244043  0.24598821  0.48893336  1
  O  O201  1  0.64474514  0.24115996  1.00390036  1
  O  O202  1  0.60083301  0.76161086  0.48205848  1
  O  O203  1  0.63658219  0.74375341  1.01186009  1
  O  O204  1  0.51498756  0.24263555  0.14383705  1
  O  O205  1  0.49273595  0.27336024  0.63085387  1
  O  O206  1  0.50519417  0.74116313  0.13949352  1
  O  O207  1  0.49096252  0.73732901  0.62932930  1
  O  O208  1  0.99688477  0.24162477  0.13258791  1
  O  O209  1  0.98963898  0.25999879  0.63117111  1
  O  O210  1  0.99428408  0.74907619  0.13348775  1
  O  O211  1  0.98595362  0.72884485  0.57990239  1
  O  O212  1  0.00778776  0.25645578  0.37027625  1
  O  O213  1  -0.00373257  0.25407959  0.84758447  1
  O  O214  1  0.01039928  0.76318471  0.37483242  1
  O  O215  1  0.01130721  0.74700422  0.87608282  1
  O  O216  1  0.50867571  0.25399815  0.36153075  1
  O  O217  1  0.48707434  0.24951994  0.86061961  1
  O  O218  1  0.50815487  0.74338719  0.35430594  1
  O  O219  1  0.49630947  0.72947618  0.86069415  1
  O  O220  1  0.24245313  0.12074999  0.50015050  1
  O  O221  1  0.23329501  0.13370265  1.00183396  1
  O  O222  1  0.24001832  0.63375341  0.50394074  1
  O  O223  1  0.23273920  0.61705416  0.98900233  1
  O  O224  1  0.72057797  0.11886984  0.48364742  1
  O  O225  1  0.74047219  0.13449766  0.99898763  1
  O  O226  1  0.74155150  0.63192977  0.51996992  1
  O  O227  1  0.74174507  0.63498415  1.00039633  1
  O  O228  1  0.24028837  0.36081072  0.00817661  1
  O  O229  1  0.26190325  0.38092972  0.50904026  1
  O  O230  1  0.25944268  0.86617837  -0.00204080  1
  O  O231  1  0.24167328  0.85608433  0.51272677  1
  O  O232  1  0.75247232  0.35539407  -0.00105074  1
  O  O233  1  0.73329445  0.46268670  0.52383833  1
  O  O234  1  0.73567353  0.86812216  0.01404203  1
  O  O235  1  0.75729156  0.86888804  0.50448418  1
  O  O236  1  0.12537651  0.51325453  0.22912333  1
  O  O237  1  0.13568519  0.50201404  0.74969898  1
  O  O238  1  0.12475494  1.00295212  0.23510628  1
  O  O239  1  0.11146823  1.00386972  0.73133053  1
  O  O240  1  0.61511267  0.48487548  0.26366653  1
  O  O241  1  0.63261130  0.49298592  0.76472893  1
  O  O242  1  0.63450617  0.99593637  0.26281331  1
  O  O243  1  0.62967046  0.99950145  0.75240642  1
  O  O244  1  0.38015625  0.00743758  0.25137999  1
  O  O245  1  0.42762399  0.02058946  0.73703149  1
  O  O246  1  0.37853261  0.51005955  0.25842321  1
  O  O247  1  0.35777124  0.50061913  0.76205623  1
  O  O248  1  0.86689002  0.01141409  0.25051397  1
  O  O249  1  0.88913405  -0.00890417  0.76018550  1
  O  O250  1  0.88303523  0.50926950  0.25380824  1
  O  O251  1  0.85996969  0.49076334  0.75069866  1
  O  O252  1  0.11929711  0.35359520  0.37790531  1
  O  O253  1  0.09923263  0.37403812  0.88957439  1
  O  O254  1  0.12287576  0.86378913  0.37873764  1
  O  O255  1  0.13033404  0.85996743  0.87932359  1
  O  O256  1  0.62264832  0.36488325  0.37397071  1
  O  O257  1  0.61410037  0.38258660  0.88304774  1
  O  O258  1  0.62340134  0.87256118  0.36159698  1
  O  O259  1  0.61798731  0.87519994  0.85676145  1
  O  O260  1  0.39756089  0.12706865  0.14049081  1
  O  O261  1  0.39229850  0.15071973  0.60536337  1
  O  O262  1  0.38779554  0.61887235  0.13398217  1
  O  O263  1  0.37686801  0.63357722  0.62842163  1
  O  O264  1  0.88563756  0.13297025  0.13312348  1
  O  O265  1  0.78676550  0.06744607  0.66282760  1
  O  O266  1  0.88765007  0.63864067  0.12198991  1
  O  O267  1  0.89111611  0.60868680  0.61696026  1
  O  O268  1  0.24462888  0.26290150  0.11680206  1
  O  O269  1  0.26660856  0.26430744  0.63061384  1
  O  O270  1  0.25253729  0.78439742  0.16383653  1
  O  O271  1  0.25012797  0.75183988  0.62018198  1
  O  O272  1  0.76627139  0.24580348  0.13237646  1
  O  O273  1  0.76522286  0.25708816  0.63302063  1
  O  O274  1  0.75482775  0.75650919  0.12147211  1
  O  O275  1  0.73050814  0.73450739  0.61012850  1
  O  O276  1  0.24017091  0.25356966  0.37013028  1
  O  O277  1  0.24380508  0.25630937  0.88273399  1
  O  O278  1  0.24295341  0.75804061  0.38412489  1
  O  O279  1  0.24006763  0.73389289  0.86942879  1
  O  O280  1  0.74317770  0.25508600  0.37475368  1
  O  O281  1  0.76282087  0.24877103  0.88018623  1
  O  O282  1  0.72397877  0.75762577  0.37570709  1
  O  O283  1  0.75410088  0.74553232  0.89602936  1
  O  O284  1  0.00802727  0.12598623  0.00708397  1
  O  O285  1  0.01623383  0.10636569  0.49015126  1
  O  O286  1  0.00851535  0.62102219  0.00846870  1
  O  O287  1  0.01448223  0.60440101  0.49562903  1
  O  O288  1  0.51743916  0.13574660  0.01460903  1
  O  O289  1  0.51381512  0.12883372  0.49520208  1
  O  O290  1  0.51410913  0.62943423  0.01486567  1
  O  O291  1  0.48377476  0.61787722  0.50530730  1
  O  O292  1  0.48202887  0.39116256  0.49818160  1
  O  O293  1  0.49737302  0.34958093  1.00946304  1
  O  O294  1  0.50657121  0.91571184  0.52897296  1
  O  O295  1  0.51217443  0.89629454  1.00179028  1
  O  O296  1  1.01089732  0.38393423  0.48800250  1
  O  O297  1  0.99393223  0.39207085  1.00782427  1
  O  O298  1  1.00284101  0.88581691  0.48416302  1
  O  O299  1  0.99830755  0.88474041  1.00974811  1
  O  O300  1  0.48170372  0.50264981  0.38418817  1
  O  O301  1  0.47870320  0.51244023  0.87342636  1
  O  O302  1  0.47910537  1.00052724  0.37890344  1
  O  O303  1  0.50439258  1.00832727  0.88991165  1
  O  O304  1  1.01404254  0.48351499  0.37827104  1
  O  O305  1  0.99987093  0.49942469  0.88758652  1
  O  O306  1  1.00026626  0.99064250  0.37953964  1
  O  O307  1  0.99995592  0.99396664  0.89240176  1
  O  O308  1  0.00134939  0.00754829  0.11894077  1
  O  O309  1  0.01291264  -0.01811449  0.60468426  1
  O  O310  1  0.00758850  0.51002287  0.12064122  1
  O  O311  1  0.00612906  0.50199694  0.60606076  1
  O  O312  1  0.50878334  0.01544067  0.11614450  1
  O  O313  1  0.49193401  -0.03242476  0.57954392  1
  O  O314  1  0.50568776  0.51263637  0.12905723  1
  O  O315  1  0.47422813  0.50752301  0.60856405  1
  O  O316  1  0.25417579  0.37872694  0.22825088  1
  O  O317  1  0.25076548  0.38193108  0.73885865  1
  O  O318  1  0.25499737  0.84195497  0.21415987  1
  O  O319  1  0.25126444  0.86739260  0.74397047  1
  O  O320  1  0.74678820  0.39672957  0.26394850  1
  O  O321  1  0.73731187  0.39057646  0.77122958  1
  O  O322  1  0.74068749  0.89381407  0.24364942  1
  O  O323  1  0.74175775  0.87248466  0.74902074  1
  O  O324  1  0.26799373  0.12977950  0.23654491  1
  O  O325  1  0.27602631  0.10071651  0.68824289  1
  O  O326  1  0.26611359  0.62200285  0.23529483  1
  O  O327  1  0.24397562  0.61287239  0.76219484  1
  O  O328  1  0.76273522  0.11385445  0.25107169  1
  O  O329  1  0.76547614  0.10804161  0.72122755  1
  O  O330  1  0.76167692  0.62725373  0.25912270  1
  O  O331  1  0.74684886  0.62099219  0.77543528  1
  O  O332  1  0.37308023  0.12608485  0.35601439  1
  O  O333  1  0.34750539  0.04695960  0.84060732  1
  O  O334  1  0.37309973  0.61864304  0.36226093  1
  O  O335  1  0.35377022  0.61785362  0.87874003  1
  O  O336  1  0.88305706  0.13259523  0.36356411  1
  O  O337  1  0.88565530  0.10243074  0.87615330  1
  O  O338  1  0.86313818  0.68061097  0.40380938  1
  O  O339  1  0.86392200  0.63304272  0.88403077  1
  O  O340  1  0.11716888  0.38672608  0.12430393  1
  O  O341  1  0.14357675  0.37374072  0.61074836  1
  O  O342  1  0.13054556  0.89299453  0.11417248  1
  O  O343  1  0.12900537  0.87283576  0.62982269  1
  O  O344  1  0.63811167  0.37627910  0.14565772  1
  O  O345  1  0.61918641  0.40259134  0.62244406  1
  O  O346  1  0.63952960  0.87346249  0.14238572  1
  O  O347  1  0.61838294  0.87649338  0.65069193  1
  O  O348  1  0.11465187  0.23470304  0.26308684  1
  O  O349  1  0.11300576  0.23570848  0.73012900  1
  O  O350  1  0.11698949  0.74643828  0.26620587  1
  O  O351  1  0.12229264  0.74861076  0.76003748  1
  O  O352  1  0.62609517  0.26672608  0.26261333  1
  O  O353  1  0.61735432  0.28083941  0.75155482  1
  O  O354  1  0.61556122  0.76113241  0.25766974  1
  O  O355  1  0.60935278  0.73345141  0.74188726  1
  O  O356  1  0.39132143  0.24932640  0.25197880  1
  O  O357  1  0.38971187  0.25823604  0.73524294  1
  O  O358  1  0.38658581  0.73988341  0.25546898  1
  O  O359  1  0.38178184  0.74309305  0.74328511  1
  O  O360  1  0.88331558  0.23888192  0.24362247  1
  O  O361  1  0.88588827  0.25851197  0.72934809  1
  O  O362  1  0.88755772  0.75339243  0.24165466  1
  O  O363  1  0.90399082  0.77902088  0.73876864  1
  O  O364  1  0.37088488  0.49867578  0.48466516  1
  O  O365  1  0.36574934  0.50011083  0.98631022  1
  O  O366  1  0.35734484  0.99874455  0.49353568  1
  O  O367  1  0.39709058  1.01966449  1.00321120  1
  O  O368  1  0.89354904  0.50125793  0.48558782  1
  O  O369  1  0.88687800  0.51116803  1.00745044  1
  O  O370  1  0.88928536  1.01941151  0.51095928  1
  O  O371  1  0.88826864  1.00313180  1.00182622  1
  O  O372  1  0.11172703  0.01250691  0.00988178  1
  O  O373  1  0.12600488  0.00488621  0.49438506  1
  O  O374  1  0.11278368  0.51053999  0.01173453  1
  O  O375  1  0.13218616  0.50947317  0.49480222  1
  O  O376  1  0.61906354  0.02198480  -0.00195000  1
  O  O377  1  0.63219894  0.01990004  0.50047750  1
  O  O378  1  0.63475696  0.51422347  0.00929023  1
  O  O379  1  0.59470923  0.50190466  0.49523834  1
  O  O380  1  0.36698558  0.37803812  0.11577774  1
  O  O381  1  0.36595986  0.37494705  0.61114355  1
  O  O382  1  0.38720599  0.87674877  0.09860640  1
  O  O383  1  0.35787705  0.85855711  0.62778462  1
  O  O384  1  0.88282155  0.35540741  0.13163154  1
  O  O385  1  0.87096251  0.37641718  0.60712080  1
  O  O386  1  0.85676230  0.86990203  0.13538417  1
  O  O387  1  0.85402490  0.87172957  0.59592809  1
  O  O388  1  0.12996681  0.13060356  0.38092213  1
  O  O389  1  0.11995746  0.11617610  0.88529432  1
  O  O390  1  0.12292105  0.63589347  0.38513796  1
  O  O391  1  0.12747637  0.62965327  0.88457918  1
  O  O392  1  0.62498868  0.14433765  0.36596713  1
  O  O393  1  0.62368413  0.13416169  0.88125827  1
  O  O394  1  0.62613941  0.63742804  0.37783544  1
  O  O395  1  0.63213794  0.62596349  0.89549088  1
