# generated using pymatgen
data_V35Zn35O128
_symmetry_space_group_name_H-M   'P 1'
_cell_length_a   16.91469190
_cell_length_b   16.98173323
_cell_length_c   16.90657402
_cell_angle_alpha   89.95772854
_cell_angle_beta   90.19104317
_cell_angle_gamma   90.32478476
_symmetry_Int_Tables_number   1
_chemical_formula_structural   V35Zn35O128
_chemical_formula_sum   'V70 Zn70 O256'
_cell_volume   4856.15132859
_cell_formula_units_Z   2
loop_
 _symmetry_equiv_pos_site_id
 _symmetry_equiv_pos_as_xyz
  1  'x, y, z'
loop_
 _atom_site_type_symbol
 _atom_site_label
 _atom_site_symmetry_multiplicity
 _atom_site_fract_x
 _atom_site_fract_y
 _atom_site_fract_z
 _atom_site_occupancy
  V  V0  1  0.26088153  0.63053424  0.87073152  1
  V  V1  1  0.76337811  0.75762465  0.49626361  1
  V  V2  1  0.36552173  0.72574394  0.64655661  1
  V  V3  1  0.62472815  0.00410110  0.10130335  1
  V  V4  1  0.68992461  0.16370333  0.83521698  1
  V  V5  1  0.61841123  0.75246300  0.38271825  1
  V  V6  1  0.01090591  0.24521098  0.75783075  1
  V  V7  1  0.61380676  0.86175968  0.74648607  1
  V  V8  1  0.01014952  0.36874174  0.87272827  1
  V  V9  1  0.23983237  0.65153788  0.34763199  1
  V  V10  1  0.61853750  0.74089211  0.87938484  1
  V  V11  1  0.73848504  0.23648724  0.01342705  1
  V  V12  1  0.29730442  0.47739427  0.76805007  1
  V  V13  1  0.63440756  0.12950222  0.48978253  1
  V  V14  1  0.75375220  0.38940783  0.13897649  1
  V  V15  1  0.87778953  -0.00482088  0.36438080  1
  V  V16  1  0.10808806  0.01017049  0.11068663  1
  V  V17  1  -0.00841485  0.36720114  0.38789229  1
  V  V18  1  0.50371466  0.12273392  0.11436321  1
  V  V19  1  0.49855157  0.37766073  0.38300833  1
  V  V20  1  0.49112676  0.88342010  0.36721835  1
  V  V21  1  0.26031355  0.23766958  0.50781747  1
  V  V22  1  0.88009626  0.23894728  0.13324827  1
  V  V23  1  0.00007188  0.51484197  0.50247864  1
  V  V24  1  0.00585574  0.23788410  0.24945061  1
  V  V25  1  0.13293528  0.64057607  -0.00158680  1
  V  V26  1  0.24406287  -0.00996730  0.75173153  1
  V  V27  1  0.36116338  0.86988579  -0.00585561  1
  V  V28  1  0.22938420  0.13263606  0.36090804  1
  V  V29  1  0.75940559  0.61160008  0.36922483  1
  V  V30  1  0.51050580  0.37265767  0.86939495  1
  V  V31  1  0.75288752  -0.00321243  0.76049102  1
  V  V32  1  0.48761180  0.13071896  0.63490309  1
  V  V33  1  0.49965146  0.52808311  0.50355309  1
  V  V34  1  0.86299353  0.49498353  0.86713843  1
  V  V35  1  0.12927135  -0.00506556  0.61706702  1
  V  V36  1  0.00594143  0.87779955  0.40370582  1
  V  V37  1  0.62179776  -0.00639831  0.62122828  1
  V  V38  1  0.10947158  0.48008681  0.64778907  1
  V  V39  1  0.51040719  0.25310039  0.25092486  1
  V  V40  1  0.10656743  0.86889538  0.24816297  1
  V  V41  1  0.24752401  0.88575271  0.13435344  1
  V  V42  1  0.12719090  0.38202918  0.26168819  1
  V  V43  1  0.38256892  0.36998398  0.00526137  1
  V  V44  1  0.29988690  0.36013284  0.63203498  1
  V  V45  1  0.01388188  0.87866065  0.88107360  1
  V  V46  1  0.01376183  0.12373886  0.61365860  1
  V  V47  1  0.87274147  0.37506085  -0.00298862  1
  V  V48  1  0.64101854  0.62635308  0.00808731  1
  V  V49  1  0.01480313  0.50127364  0.00255252  1
  V  V50  1  0.49339393  0.00722399  0.49570125  1
  V  V51  1  0.24550551  0.38572711  0.13399038  1
  V  V52  1  0.36801670  0.01871800  0.35540215  1
  V  V53  1  0.62295667  0.89137846  0.24663289  1
  V  V54  1  0.49245269  0.50891646  0.01075407  1
  V  V55  1  0.37144865  0.23890088  0.13604091  1
  V  V56  1  0.78837050  0.67235269  0.83632461  1
  V  V57  1  0.76437721  0.87289489  0.62165049  1
  V  V58  1  0.37103576  0.74187291  0.12754231  1
  V  V59  1  0.75354479  0.86812980  0.10866271  1
  V  V60  1  0.86864014  0.24676563  0.60605069  1
  V  V61  1  0.50039342  0.87260267  0.88073266  1
  V  V62  1  0.86868586  0.13216485  0.74906506  1
  V  V63  1  0.36006398  0.88023895  0.50180913  1
  V  V64  1  0.38029157  0.01134409  0.87615523  1
  V  V65  1  0.69124310  0.44117426  0.61197442  1
  V  V66  1  0.49893253  0.74180944  0.24436515  1
  V  V67  1  0.23085239  0.12888136  0.87502011  1
  V  V68  1  0.24064058  0.24194254  0.00076808  1
  V  V69  1  0.62665646  0.50566556  0.13954581  1
  Zn  Zn70  1  0.63499157  0.25233398  0.37535948  1
  Zn  Zn71  1  0.94405291  0.59589709  0.69615936  1
  Zn  Zn72  1  0.88164940  0.00577098  0.88744665  1
  Zn  Zn73  1  0.84838893  0.38590959  0.50352493  1
  Zn  Zn74  1  0.37332028  0.50661573  0.36364643  1
  Zn  Zn75  1  0.08060454  0.70270650  0.44949714  1
  Zn  Zn76  1  0.17847332  0.18648295  0.18357605  1
  Zn  Zn77  1  0.19676172  0.18983567  0.69135847  1
  Zn  Zn78  1  0.18280347  0.69227114  0.17453192  1
  Zn  Zn79  1  0.21555715  0.65205001  0.58436645  1
  Zn  Zn80  1  0.68930437  0.18728798  0.18591645  1
  Zn  Zn81  1  0.68371839  0.18607092  0.66099575  1
  Zn  Zn82  1  0.79460567  0.70409266  0.19902910  1
  Zn  Zn83  1  0.77371376  0.67019973  0.67282158  1
  Zn  Zn84  1  0.31400722  0.30824762  0.31935328  1
  Zn  Zn85  1  0.33238109  0.29415151  0.81748358  1
  Zn  Zn86  1  0.31463667  0.82039747  0.30866090  1
  Zn  Zn87  1  0.31224040  0.80521350  0.80222052  1
  Zn  Zn88  1  0.82101320  0.31660138  0.31166932  1
  Zn  Zn89  1  0.64400436  0.35193507  0.75089463  1
  Zn  Zn90  1  0.80150236  0.85023359  0.32101106  1
  Zn  Zn91  1  0.86131879  0.83548208  0.81915399  1
  Zn  Zn92  1  0.17143944  0.39379593  0.47422425  1
  Zn  Zn93  1  0.19196381  0.42559941  0.93734833  1
  Zn  Zn94  1  0.18167458  0.95303431  0.42459265  1
  Zn  Zn95  1  0.18308220  0.93567298  0.93369869  1
  Zn  Zn96  1  0.66718610  0.44120317  0.43510523  1
  Zn  Zn97  1  0.68616000  0.43104531  0.94833276  1
  Zn  Zn98  1  0.68763636  0.94250200  0.43664105  1
  Zn  Zn99  1  0.69993026  0.94137125  0.92139420  1
  Zn  Zn100  1  0.31422705  0.06008528  0.05666426  1
  Zn  Zn101  1  0.30910473  0.05978644  0.55998000  1
  Zn  Zn102  1  0.30694490  0.56400884  0.06044043  1
  Zn  Zn103  1  0.35197515  0.52509700  0.58173226  1
  Zn  Zn104  1  0.81343502  0.05540754  0.08699845  1
  Zn  Zn105  1  0.81802216  0.05964765  0.55918195  1
  Zn  Zn106  1  0.82319197  0.56292808  0.05631875  1
  Zn  Zn107  1  0.81773191  0.57382997  0.54098168  1
  Zn  Zn108  1  0.43499146  0.43639091  0.19302035  1
  Zn  Zn109  1  0.48632723  0.43636620  0.68312555  1
  Zn  Zn110  1  0.43594008  0.94301189  0.17834419  1
  Zn  Zn111  1  0.43377785  0.94558654  0.69139870  1
  Zn  Zn112  1  0.95132871  0.43086161  0.18280058  1
  Zn  Zn113  1  0.92696394  0.42221162  0.68918940  1
  Zn  Zn114  1  0.93420551  0.93731089  0.18246224  1
  Zn  Zn115  1  0.94622638  0.94290806  0.68906556  1
  Zn  Zn116  1  0.06252629  0.04700546  0.29954622  1
  Zn  Zn117  1  0.05866923  0.05842556  0.81171819  1
  Zn  Zn118  1  0.06980623  0.54952040  0.32690445  1
  Zn  Zn119  1  0.08026175  0.55339385  0.81739270  1
  Zn  Zn120  1  0.55424492  0.07309151  0.30526877  1
  Zn  Zn121  1  0.56041110  0.05063187  0.81002234  1
  Zn  Zn122  1  0.56576434  0.56751154  0.31889459  1
  Zn  Zn123  1  0.59338729  0.52904053  0.84115513  1
  Zn  Zn124  1  0.43731303  0.19197988  0.43939078  1
  Zn  Zn125  1  0.46355395  0.19528401  0.92191711  1
  Zn  Zn126  1  0.41731861  0.69029866  0.43488346  1
  Zn  Zn127  1  0.43776632  0.68852151  0.93932543  1
  Zn  Zn128  1  0.94521393  0.17773483  0.42998701  1
  Zn  Zn129  1  0.92070999  0.19118453  0.93521073  1
  Zn  Zn130  1  0.91696373  0.71950416  0.34835386  1
  Zn  Zn131  1  0.97186752  0.67284484  0.88142586  1
  Zn  Zn132  1  0.06311521  0.31480267  0.06577745  1
  Zn  Zn133  1  0.07440189  0.29859003  0.57283883  1
  Zn  Zn134  1  0.06129253  0.81916608  0.05127180  1
  Zn  Zn135  1  0.19552903  0.82408429  0.56670574  1
  Zn  Zn136  1  0.56460002  0.31893190  0.07965193  1
  Zn  Zn137  1  0.55683381  0.30840734  0.56280529  1
  Zn  Zn138  1  0.56064944  0.81096695  0.06164896  1
  Zn  Zn139  1  0.53852438  0.81284946  0.56316539  1
  O  O140  1  0.12258964  0.10939788  0.12498599  1
  O  O141  1  0.11664740  0.12416838  0.63512317  1
  O  O142  1  0.13081510  0.62472893  0.09923637  1
  O  O143  1  0.15589042  0.56793230  0.62664452  1
  O  O144  1  0.61712924  0.11257752  0.12914123  1
  O  O145  1  0.61518224  0.10927231  0.61079052  1
  O  O146  1  0.63186268  0.61115374  0.11328111  1
  O  O147  1  0.56857649  0.60491323  0.69275835  1
  O  O148  1  0.39463655  0.38015852  0.35618528  1
  O  O149  1  0.39539272  0.36800604  0.90189369  1
  O  O150  1  0.37604508  0.89555625  0.37533460  1
  O  O151  1  0.37891289  0.86794484  0.88395215  1
  O  O152  1  0.88356530  0.36837909  0.39051978  1
  O  O153  1  0.87981324  0.38136274  0.88850089  1
  O  O154  1  0.90000441  0.88176442  0.38603942  1
  O  O155  1  0.80227423  0.92982073  0.85438494  1
  O  O156  1  0.26045852  0.02235322  0.37385158  1
  O  O157  1  0.25361013  0.01268845  0.87057977  1
  O  O158  1  0.24759526  0.47865576  0.40139206  1
  O  O159  1  0.26827195  0.46082867  0.86647574  1
  O  O160  1  0.77457298  -0.04116250  0.36823437  1
  O  O161  1  0.71455053  0.04662766  0.85326457  1
  O  O162  1  0.73996545  0.51423451  0.38664129  1
  O  O163  1  0.76473822  0.48837425  0.87926044  1
  O  O164  1  0.25552394  0.48280080  0.12636158  1
  O  O165  1  0.28037246  0.46892320  0.65291143  1
  O  O166  1  0.24916103  0.98680020  0.11644218  1
  O  O167  1  0.24240068  1.01391343  0.64424002  1
  O  O168  1  0.74840490  0.49509929  0.12069288  1
  O  O169  1  0.72342444  0.53726698  0.60818496  1
  O  O170  1  0.72774226  0.99288445  0.12523337  1
  O  O171  1  0.73801910  0.98998716  0.62492109  1
  O  O172  1  0.00892521  0.37111255  0.26089657  1
  O  O173  1  -0.00817325  0.35490274  0.76293204  1
  O  O174  1  0.00667138  0.86518397  0.23813627  1
  O  O175  1  -0.03729241  0.87415385  0.77522269  1
  O  O176  1  0.50154124  0.35653068  0.24306708  1
  O  O177  1  0.50363123  0.35770198  0.77013155  1
  O  O178  1  0.49878972  0.88009927  0.25543510  1
  O  O179  1  0.50502092  0.88296969  0.76219132  1
  O  O180  1  0.49888138  0.14117871  0.23202281  1
  O  O181  1  0.50081308  0.10745748  0.73214971  1
  O  O182  1  0.50276562  0.64435301  0.25816604  1
  O  O183  1  0.51530282  0.64258019  0.72666093  1
  O  O184  1  1.00630832  0.13984176  0.25320956  1
  O  O185  1  0.98964632  0.13253239  0.74916074  1
  O  O186  1  0.96819649  0.58425104  0.25792433  1
  O  O187  1  1.00592211  0.62893437  0.78179779  1
  O  O188  1  0.37172851  0.26115076  0.01541368  1
  O  O189  1  0.36113911  0.25201272  0.49467328  1
  O  O190  1  0.38653221  0.76491909  0.01554588  1
  O  O191  1  0.36961385  0.78148906  0.48454098  1
  O  O192  1  0.86681414  0.25671320  0.01507109  1
  O  O193  1  0.88128688  0.23838878  0.50578937  1
  O  O194  1  0.92456421  0.70224278  0.07665846  1
  O  O195  1  0.85808495  0.76410442  0.48663205  1
  O  O196  1  0.15875549  0.27605442  0.49880197  1
  O  O197  1  0.14247409  0.25259026  1.00962975  1
  O  O198  1  0.15551014  0.72650461  0.52906987  1
  O  O199  1  0.11708722  0.73858885  0.99028082  1
  O  O200  1  0.62493378  0.23335529  0.49970569  1
  O  O201  1  0.64171229  0.25219906  1.02999181  1
  O  O202  1  0.60525767  0.76517335  0.48222587  1
  O  O203  1  0.61503744  0.73173404  0.99811452  1
  O  O204  1  0.48915003  0.24489559  0.13253103  1
  O  O205  1  0.50872901  0.22872854  0.62753381  1
  O  O206  1  0.49016268  0.75699687  0.13739703  1
  O  O207  1  0.45871975  0.75212735  0.61199508  1
  O  O208  1  0.98818305  0.25478821  0.13089798  1
  O  O209  1  0.99913718  0.23734150  0.63817213  1
  O  O210  1  0.97573874  0.73724578  0.12030690  1
  O  O211  1  1.04648357  0.75568234  0.69158964  1
  O  O212  1  -0.00707877  0.25647040  0.35776804  1
  O  O213  1  -0.01025636  0.25396581  0.86771287  1
  O  O214  1  0.01030453  0.76780748  0.38784259  1
  O  O215  1  -0.04660032  0.78285774  0.88836228  1
  O  O216  1  0.49743285  0.25431594  0.35952009  1
  O  O217  1  0.54011760  0.28927182  0.91362419  1
  O  O218  1  0.49670098  0.76568412  0.36441189  1
  O  O219  1  0.50984157  0.75711278  0.87906665  1
  O  O220  1  0.24772182  0.13540259  0.49665908  1
  O  O221  1  0.25379899  0.13543027  0.99287612  1
  O  O222  1  0.22020479  0.54475107  0.42902298  1
  O  O223  1  0.24274055  0.62508180  0.99051185  1
  O  O224  1  0.73203146  0.11333471  0.50195338  1
  O  O225  1  0.75091639  0.13957804  1.03101848  1
  O  O226  1  0.74581625  0.65275514  0.48297664  1
  O  O227  1  0.73963523  0.62061686  0.99701930  1
  O  O228  1  0.25999054  0.36302935  0.01502886  1
  O  O229  1  0.27275238  0.37402211  0.53068068  1
  O  O230  1  0.25943799  0.86647208  -0.00248001  1
  O  O231  1  0.25601983  0.89211336  0.49166367  1
  O  O232  1  0.75763791  0.36403968  0.00923602  1
  O  O233  1  0.73393760  0.39546420  0.52560837  1
  O  O234  1  0.73295868  0.87811548  0.00993215  1
  O  O235  1  0.73644061  0.87160837  0.51695827  1
  O  O236  1  0.12299785  0.48138744  0.25140904  1
  O  O237  1  0.11855115  0.47466729  0.74937355  1
  O  O238  1  0.12071064  0.97974862  0.22544118  1
  O  O239  1  0.14018690  1.00662133  0.74928753  1
  O  O240  1  0.62416463  0.50967423  0.23791403  1
  O  O241  1  0.58209349  0.52411394  0.72708420  1
  O  O242  1  0.61403892  0.99264186  0.24807713  1
  O  O243  1  0.63147822  0.98946543  0.73771857  1
  O  O244  1  0.37720972  0.00372405  0.25711417  1
  O  O245  1  0.36163542  -0.00152865  0.76792420  1
  O  O246  1  0.38137181  0.51078799  0.25246435  1
  O  O247  1  0.39576327  0.48329739  0.76642626  1
  O  O248  1  0.88173158  -0.00109397  0.26244150  1
  O  O249  1  0.85920247  0.01659143  0.73446528  1
  O  O250  1  0.91371930  0.53219237  0.24664459  1
  O  O251  1  0.88217091  0.49510832  0.76617810  1
  O  O252  1  0.11660540  0.37098801  0.36548618  1
  O  O253  1  0.10770942  0.36403214  0.88150793  1
  O  O254  1  0.11532031  0.88683177  0.35674757  1
  O  O255  1  0.11339840  0.87039538  0.86931215  1
  O  O256  1  0.60976087  0.36435054  0.37338327  1
  O  O257  1  0.62140869  0.41140080  0.85257834  1
  O  O258  1  0.60947682  0.88057207  0.36305953  1
  O  O259  1  0.61715424  0.86915183  0.86745547  1
  O  O260  1  0.38391787  0.13344371  0.11850451  1
  O  O261  1  0.38855599  0.11787368  0.61850208  1
  O  O262  1  0.36704679  0.64414077  0.11978609  1
  O  O263  1  0.32878308  0.63535924  0.60091337  1
  O  O264  1  0.86986038  0.14147999  0.14050261  1
  O  O265  1  0.89039852  0.12842253  0.62738676  1
  O  O266  1  0.87222144  0.64649560  0.12272209  1
  O  O267  1  0.86774302  0.63148797  0.62619358  1
  O  O268  1  0.26096389  0.24375001  0.11797107  1
  O  O269  1  0.26232133  0.25120890  0.62180362  1
  O  O270  1  0.26725911  0.76741762  0.12829836  1
  O  O271  1  0.27990546  0.77986999  0.63511840  1
  O  O272  1  0.76400380  0.26504446  0.12893658  1
  O  O273  1  0.76917947  0.24109999  0.61420897  1
  O  O274  1  0.74165999  0.76840884  0.12220529  1
  O  O275  1  0.74657679  0.76310511  0.61036477  1
  O  O276  1  0.25326493  0.23644184  0.38469677  1
  O  O277  1  0.25304656  0.24041055  0.89196400  1
  O  O278  1  0.24395558  0.75082846  0.36185942  1
  O  O279  1  0.24665492  0.72776037  0.85405973  1
  O  O280  1  0.74914411  0.22695611  0.33896004  1
  O  O281  1  0.74018930  0.22409026  0.90152068  1
  O  O282  1  0.72663076  0.77606532  0.38840236  1
  O  O283  1  0.73015404  0.74246787  0.88656866  1
  O  O284  1  -0.04838729  0.09924547  0.00304301  1
  O  O285  1  0.01217974  0.13300431  0.51543532  1
  O  O286  1  0.02024761  0.60595338  -0.02408204  1
  O  O287  1  0.00902774  0.61193534  0.49193294  1
  O  O288  1  0.50203302  0.14197699  0.01595506  1
  O  O289  1  0.50544302  0.11699289  0.50316481  1
  O  O290  1  0.49667270  0.60958345  0.00681892  1
  O  O291  1  0.50083636  0.62636468  0.48051667  1
  O  O292  1  0.49331756  0.36073487  0.48151989  1
  O  O293  1  0.48611032  0.38160233  1.02483215  1
  O  O294  1  0.48855280  0.89148467  0.48351738  1
  O  O295  1  0.49487188  0.87529287  0.98592401  1
  O  O296  1  1.00690849  0.34840675  0.48464215  1
  O  O297  1  0.99258376  0.37346755  0.99202002  1
  O  O298  1  1.02245775  0.88484837  0.49815305  1
  O  O299  1  0.99797106  0.88307601  0.98432201  1
  O  O300  1  0.51101201  0.48770379  0.38135572  1
  O  O301  1  0.50139088  0.48204868  0.90674321  1
  O  O302  1  0.48839825  1.00145129  0.37601218  1
  O  O303  1  0.48464851  0.99068051  0.87345325  1
  O  O304  1  1.00209733  0.47952863  0.39402557  1
  O  O305  1  0.99499073  0.47759239  0.88142175  1
  O  O306  1  0.99609966  0.98579409  0.36975220  1
  O  O307  1  0.99335438  0.98672239  0.86964682  1
  O  O308  1  0.00838386  -0.00692826  0.11599233  1
  O  O309  1  0.01670775  0.01407804  0.63399980  1
  O  O310  1  -0.00370683  0.49712899  0.10125861  1
  O  O311  1  0.00090954  0.50035306  0.63254154  1
  O  O312  1  0.50440647  0.01624125  0.11987583  1
  O  O313  1  0.50534659  0.00413679  0.61246747  1
  O  O314  1  0.51869274  0.49295766  0.12111440  1
  O  O315  1  0.46954807  0.51906540  0.60499181  1
  O  O316  1  0.23884245  0.36445982  0.24446600  1
  O  O317  1  0.27925501  0.36088056  0.74489323  1
  O  O318  1  0.24827037  0.88257263  0.23578133  1
  O  O319  1  0.24969059  0.89141305  0.75883561  1
  O  O320  1  0.76431935  0.38444162  0.23774740  1
  O  O321  1  0.73726221  0.40310359  0.69313700  1
  O  O322  1  0.72287272  0.87680703  0.23301140  1
  O  O323  1  0.73365780  0.88116441  0.72747383  1
  O  O324  1  0.24526452  0.13823095  0.26243044  1
  O  O325  1  0.25263092  0.12967494  0.77342225  1
  O  O326  1  0.24282967  0.63021794  0.25005277  1
  O  O327  1  0.26253406  0.58089822  0.77440158  1
  O  O328  1  0.75457887  0.16605519  0.28571635  1
  O  O329  1  0.75583784  0.12077237  0.73994605  1
  O  O330  1  0.74742370  0.62860653  0.26955408  1
  O  O331  1  0.73182635  0.62068118  0.77158514  1
  O  O332  1  0.37873336  0.11837322  0.36935620  1
  O  O333  1  0.37634000  0.10858975  0.89199525  1
  O  O334  1  0.33865373  0.62415267  0.38263272  1
  O  O335  1  0.36035389  0.62074157  0.89509637  1
  O  O336  1  0.87622023  0.09885943  0.38818476  1
  O  O337  1  0.87137245  0.12277689  0.85337146  1
  O  O338  1  0.85982682  0.62525337  0.38208938  1
  O  O339  1  0.86455854  0.61017763  0.88248366  1
  O  O340  1  0.14019776  0.37069634  0.13367824  1
  O  O341  1  0.13329979  0.38110362  0.62830293  1
  O  O342  1  0.13776070  0.87519334  0.12233466  1
  O  O343  1  0.13022866  0.89609928  0.62828441  1
  O  O344  1  0.64457656  0.39133454  0.12521103  1
  O  O345  1  0.59450258  0.38725216  0.63878321  1
  O  O346  1  0.61048433  0.89235130  0.13043044  1
  O  O347  1  0.60732845  0.88196292  0.62980028  1
  O  O348  1  0.10898220  0.26147289  0.23901013  1
  O  O349  1  0.10897518  0.24247839  0.75352922  1
  O  O350  1  0.12791777  0.77074720  0.23507730  1
  O  O351  1  0.10728042  0.75497135  0.73021936  1
  O  O352  1  0.61346076  0.24788039  0.24801900  1
  O  O353  1  0.66089198  0.23697010  0.76210024  1
  O  O354  1  0.60349115  0.77184379  0.26034389  1
  O  O355  1  0.62545971  0.76200666  0.76202742  1
  O  O356  1  0.37778716  0.24811262  0.23733345  1
  O  O357  1  0.42109893  0.22903565  0.82328646  1
  O  O358  1  0.38673435  0.76035736  0.23835035  1
  O  O359  1  0.37739551  0.72885326  0.74739600  1
  O  O360  1  0.89066445  0.26293673  0.23719991  1
  O  O361  1  0.87981543  0.23373102  0.73387897  1
  O  O362  1  0.85744336  0.76862668  0.26773435  1
  O  O363  1  0.83978661  0.73257207  0.77172217  1
  O  O364  1  0.39585956  0.50125697  0.47698162  1
  O  O365  1  0.38554355  0.48667796  1.02084912  1
  O  O366  1  0.37966571  1.00126879  0.48308317  1
  O  O367  1  0.36696788  0.98192875  0.98432515  1
  O  O368  1  0.89477641  0.49263836  0.51407097  1
  O  O369  1  0.88691351  0.49321875  0.98872515  1
  O  O370  1  0.88298368  1.01128834  0.48230455  1
  O  O371  1  0.89372610  1.04227252  1.00122748  1
  O  O372  1  0.13105843  -0.00372443  0.01142095  1
  O  O373  1  0.13971857  0.00790140  0.51889868  1
  O  O374  1  0.11447700  0.48291300  -0.00140331  1
  O  O375  1  0.09629898  0.47582284  0.51573333  1
  O  O376  1  0.62399281  0.00122926  0.00344517  1
  O  O377  1  0.61275348  0.00383803  0.50103604  1
  O  O378  1  0.61764000  0.50980021  0.00689413  1
  O  O379  1  0.59742965  0.49227194  0.51285855  1
  O  O380  1  0.36174559  0.36107300  0.12781248  1
  O  O381  1  0.39877116  0.35986786  0.63237364  1
  O  O382  1  0.36553948  0.88013231  0.11018237  1
  O  O383  1  0.37835728  0.89888688  0.60011901  1
  O  O384  1  0.86804225  0.37963143  0.11536913  1
  O  O385  1  0.88733441  0.35109307  0.61201106  1
  O  O386  1  0.85137262  0.89069356  0.11912515  1
  O  O387  1  0.86213564  0.88438016  0.62600274  1
  O  O388  1  0.13109296  0.11577814  0.36849045  1
  O  O389  1  0.13256992  0.12287053  0.87884462  1
  O  O390  1  0.13098648  0.63456713  0.36753841  1
  O  O391  1  0.15075970  0.60218776  0.89008620  1
  O  O392  1  0.61786673  0.12560242  0.38627905  1
  O  O393  1  0.59957471  0.14154979  0.87262099  1
  O  O394  1  0.63147765  0.65150843  0.37093061  1
  O  O395  1  0.61460714  0.62817630  0.89332343  1
