# generated using pymatgen
data_V35Zn35O128
_symmetry_space_group_name_H-M   'P 1'
_cell_length_a   16.81317361
_cell_length_b   16.80831492
_cell_length_c   16.80470794
_cell_angle_alpha   90.06119633
_cell_angle_beta   90.07535819
_cell_angle_gamma   90.01213552
_symmetry_Int_Tables_number   1
_chemical_formula_structural   V35Zn35O128
_chemical_formula_sum   'V70 Zn70 O256'
_cell_volume   4749.02230403
_cell_formula_units_Z   2
loop_
 _symmetry_equiv_pos_site_id
 _symmetry_equiv_pos_as_xyz
  1  'x, y, z'
loop_
 _atom_site_type_symbol
 _atom_site_label
 _atom_site_symmetry_multiplicity
 _atom_site_fract_x
 _atom_site_fract_y
 _atom_site_fract_z
 _atom_site_occupancy
  V  V0  1  0.51194472  0.11417510  0.13581975  1
  V  V1  1  0.38037095  0.12727871  0.74693012  1
  V  V2  1  0.49964874  0.12663832  0.61676572  1
  V  V3  1  0.74432511  0.01603116  0.75384696  1
  V  V4  1  0.09886039  0.00666136  0.62136210  1
  V  V5  1  0.26738967  0.87402874  0.12942417  1
  V  V6  1  0.87424929  0.50339977  0.85830707  1
  V  V7  1  0.27353502  0.25087562  -0.00032230  1
  V  V8  1  0.13638821  0.49931453  0.61925790  1
  V  V9  1  0.62462145  0.86903428  0.74694928  1
  V  V10  1  0.86742573  0.87924868  0.50472683  1
  V  V11  1  0.13255399  0.50694267  0.12857030  1
  V  V12  1  0.37896797  0.14644805  0.25341749  1
  V  V13  1  0.74645998  0.75247568  0.01380566  1
  V  V14  1  0.86809621  0.37371195  0.49355011  1
  V  V15  1  0.00110911  0.50320167  0.00475931  1
  V  V16  1  0.61894309  0.74370605  0.87313615  1
  V  V17  1  -0.01679108  0.73012566  0.24577738  1
  V  V18  1  0.62234360  0.60771896  0.01275094  1
  V  V19  1  0.63218224  0.36703443  0.23704179  1
  V  V20  1  0.87580432  0.23604107  0.62304562  1
  V  V21  1  0.63691400  0.87947259  0.24007342  1
  V  V22  1  0.87062196  0.00796091  0.86807305  1
  V  V23  1  0.74329949  0.62647661  0.38786590  1
  V  V24  1  0.26031032  0.36971290  0.12567011  1
  V  V25  1  0.75171183  0.61831344  0.86638721  1
  V  V26  1  0.48881061  0.62846873  0.63339079  1
  V  V27  1  0.26449432  0.61580714  0.86427920  1
  V  V28  1  0.75712200  0.25333910  0.01086183  1
  V  V29  1  0.11867506  0.35544054  0.24412992  1
  V  V30  1  0.86822635  0.87592352  0.00606925  1
  V  V31  1  0.37818258  -0.00449727  0.89042666  1
  V  V32  1  0.01290161  0.87081346  0.37014191  1
  V  V33  1  0.38482663  0.89403334  0.49990520  1
  V  V34  1  0.11633326  0.13216555  0.00330207  1
  V  V35  1  0.12941099  0.63616381  -0.00933309  1
  V  V36  1  0.88224382  0.13322796  0.23627878  1
  V  V37  1  0.62646254  0.14418770  0.49206693  1
  V  V38  1  0.86596454  0.75096803  0.62064278  1
  V  V39  1  -0.01070019  0.74804127  0.76775954  1
  V  V40  1  0.24873006  0.12752562  0.87689891  1
  V  V41  1  0.63297603  0.50776106  0.61580492  1
  V  V42  1  -0.00142811  0.24069905  0.74652872  1
  V  V43  1  0.49032112  0.74389869  0.24528901  1
  V  V44  1  0.48062551  0.61285849  0.12761983  1
  V  V45  1  0.00491362  0.37477002  0.86890423  1
  V  V46  1  0.24995565  -0.01215103  0.74030889  1
  V  V47  1  0.51763965  0.36939076  0.37902731  1
  V  V48  1  0.00518263  0.36145406  0.37454611  1
  V  V49  1  0.23291508  0.13325654  0.38480191  1
  V  V50  1  0.61054727  0.37097982  0.75229004  1
  V  V51  1  0.62407863  -0.00593848  0.61261195  1
  V  V52  1  0.48301560  0.50394178  0.49157000  1
  V  V53  1  0.75633117  0.13502075  0.37844643  1
  V  V54  1  0.27375082  0.75771835  -0.00277205  1
  V  V55  1  0.25579915  0.76085146  0.50563430  1
  V  V56  1  0.88560210  0.51217738  0.37455629  1
  V  V57  1  0.62521111  0.74842645  0.38516339  1
  V  V58  1  0.11324757  0.86807706  0.76004486  1
  V  V59  1  -0.00085825  -0.00660798  -0.00606860  1
  V  V60  1  0.12310246  0.63680432  0.49456568  1
  V  V61  1  0.75404761  0.37667879  0.63602507  1
  V  V62  1  0.12021051  -0.01026513  0.12894188  1
  V  V63  1  0.87536440  -0.00264388  0.37007222  1
  V  V64  1  0.49605820  0.87533620  0.88695339  1
  V  V65  1  -0.00445714  0.62377204  0.62731546  1
  V  V66  1  0.36059948  0.25560512  0.61476958  1
  V  V67  1  0.26306591  0.62372303  0.36448354  1
  V  V68  1  0.13117319  0.37920638  0.73979911  1
  V  V69  1  0.74832319  0.50514187  0.23994023  1
  Zn  Zn70  1  0.37109926  0.75512360  0.63753908  1
  Zn  Zn71  1  0.62309059  0.13064756  -0.00314866  1
  Zn  Zn72  1  0.87078395  0.37381310  0.00232203  1
  Zn  Zn73  1  0.24272226  -0.00613763  0.26378549  1
  Zn  Zn74  1  0.49513383  0.87977037  0.37126855  1
  Zn  Zn75  1  0.64092411  0.23877973  0.86618864  1
  Zn  Zn76  1  0.19478776  0.17881434  0.18668481  1
  Zn  Zn77  1  0.18178892  0.18405043  0.69027071  1
  Zn  Zn78  1  0.18218748  0.69939813  0.18488837  1
  Zn  Zn79  1  0.18405646  0.69049400  0.68815943  1
  Zn  Zn80  1  0.69954391  0.18476859  0.19423908  1
  Zn  Zn81  1  0.68741485  0.19257417  0.67729013  1
  Zn  Zn82  1  0.68576075  0.68534475  0.19829289  1
  Zn  Zn83  1  0.68358539  0.68506780  0.68623167  1
  Zn  Zn84  1  0.30646406  0.31118526  0.31212448  1
  Zn  Zn85  1  0.31507480  0.31482236  0.80521942  1
  Zn  Zn86  1  0.30534811  0.80944963  0.32092339  1
  Zn  Zn87  1  0.31047163  0.80485572  0.81378868  1
  Zn  Zn88  1  0.81125815  0.31256069  0.30541151  1
  Zn  Zn89  1  0.81761463  0.30764632  0.81481988  1
  Zn  Zn90  1  0.81327762  0.80977161  0.30981439  1
  Zn  Zn91  1  0.80931800  0.81616133  0.81676994  1
  Zn  Zn92  1  0.17195594  0.45292404  0.42635064  1
  Zn  Zn93  1  0.19243613  0.43665124  0.93642482  1
  Zn  Zn94  1  0.18820567  0.94773144  0.44387519  1
  Zn  Zn95  1  0.19010993  0.93596630  0.93934043  1
  Zn  Zn96  1  0.69168334  0.44077199  0.43486083  1
  Zn  Zn97  1  0.68883908  0.42714620  0.93960385  1
  Zn  Zn98  1  0.69327885  0.93161584  0.42699491  1
  Zn  Zn99  1  0.69295673  0.93147160  0.92896541  1
  Zn  Zn100  1  0.31267410  0.06562602  0.07418207  1
  Zn  Zn101  1  0.30108641  0.06783705  0.55882009  1
  Zn  Zn102  1  0.31329457  0.55584898  0.04954587  1
  Zn  Zn103  1  0.31036897  0.56656685  0.55847705  1
  Zn  Zn104  1  0.80632836  0.07064734  0.05162562  1
  Zn  Zn105  1  0.80492344  0.05375130  0.55943801  1
  Zn  Zn106  1  0.81709856  0.57055712  0.06062426  1
  Zn  Zn107  1  0.81943347  0.55971913  0.55976818  1
  Zn  Zn108  1  0.44608751  0.42815150  0.19357547  1
  Zn  Zn109  1  0.44910230  0.42489779  0.66107717  1
  Zn  Zn110  1  0.45382292  0.93115365  0.18382884  1
  Zn  Zn111  1  0.43930939  0.93071719  0.69119841  1
  Zn  Zn112  1  0.94123736  0.44914711  0.19461918  1
  Zn  Zn113  1  0.94116128  0.43758602  0.68280869  1
  Zn  Zn114  1  0.93413625  0.93874275  0.18808662  1
  Zn  Zn115  1  0.93398616  0.93240313  0.69242298  1
  Zn  Zn116  1  0.05595361  0.05995648  0.31688692  1
  Zn  Zn117  1  0.06462902  0.05688484  0.81655971  1
  Zn  Zn118  1  0.06617108  0.56494430  0.30902548  1
  Zn  Zn119  1  0.06894445  0.56470079  0.81007543  1
  Zn  Zn120  1  0.56527119  0.06824904  0.30739324  1
  Zn  Zn121  1  0.56082097  0.06085248  0.81262925  1
  Zn  Zn122  1  0.56383566  0.55930017  0.30907623  1
  Zn  Zn123  1  0.56475184  0.55064731  0.80738400  1
  Zn  Zn124  1  0.43277513  0.18492820  0.43784101  1
  Zn  Zn125  1  0.45950725  0.17577773  0.93042770  1
  Zn  Zn126  1  0.43707219  0.68716182  0.43997959  1
  Zn  Zn127  1  0.44199811  0.67874714  0.93733064  1
  Zn  Zn128  1  0.95136028  0.18345388  0.44292983  1
  Zn  Zn129  1  0.93348845  0.18704432  0.93499151  1
  Zn  Zn130  1  0.94286158  0.69869392  0.43888717  1
  Zn  Zn131  1  0.92919575  0.68100654  0.95994640  1
  Zn  Zn132  1  0.06200664  0.31860052  0.06113369  1
  Zn  Zn133  1  0.06106481  0.30061226  0.55283638  1
  Zn  Zn134  1  0.05714559  0.81496076  0.06484950  1
  Zn  Zn135  1  0.05622926  0.82062928  0.56844953  1
  Zn  Zn136  1  0.57091599  0.29413225  0.07212276  1
  Zn  Zn137  1  0.55684589  0.31478046  0.56272013  1
  Zn  Zn138  1  0.56033227  0.80576077  0.06630299  1
  Zn  Zn139  1  0.55434548  0.81439008  0.55894705  1
  O  O140  1  0.13514981  0.10936364  0.10683877  1
  O  O141  1  0.12548281  0.10557901  0.63419053  1
  O  O142  1  0.13795258  0.61127382  0.10976947  1
  O  O143  1  0.11769435  0.61610158  0.62120434  1
  O  O144  1  0.61586193  0.12788198  0.14033589  1
  O  O145  1  0.62099073  0.11870362  0.61085379  1
  O  O146  1  0.62855060  0.62085321  0.11400000  1
  O  O147  1  0.62374431  0.61059262  0.62359185  1
  O  O148  1  0.38486925  0.39615570  0.34636498  1
  O  O149  1  0.37665228  0.39977166  0.86401351  1
  O  O150  1  0.37452730  0.86721754  0.39459959  1
  O  O151  1  0.38497799  0.88479173  0.87695736  1
  O  O152  1  0.88224881  0.37770764  0.38176275  1
  O  O153  1  0.88618104  0.39078072  0.87222600  1
  O  O154  1  0.87351779  0.88486748  0.38343613  1
  O  O155  1  0.85776742  0.89332293  0.88991875  1
  O  O156  1  0.24635462  0.01579764  0.37482398  1
  O  O157  1  0.26310270  0.00601484  0.87166170  1
  O  O158  1  0.23944667  0.52288242  0.37242377  1
  O  O159  1  0.25285525  0.51447784  0.88074621  1
  O  O160  1  0.76848174  0.00974495  0.38834414  1
  O  O161  1  0.75090903  0.00795273  0.86468235  1
  O  O162  1  0.76046071  0.51120774  0.37177677  1
  O  O163  1  0.76341842  0.50703755  0.88126429  1
  O  O164  1  0.23814098  0.48294985  0.11121433  1
  O  O165  1  0.23602556  0.50123531  0.62229493  1
  O  O166  1  0.23934806  0.98639335  0.11922962  1
  O  O167  1  0.24984820  0.99895519  0.64022515  1
  O  O168  1  0.76825354  0.50702002  0.14021678  1
  O  O169  1  0.74328305  0.49018113  0.61702410  1
  O  O170  1  0.70375988  1.00000419  0.07812984  1
  O  O171  1  0.73330246  1.00143882  0.63803654  1
  O  O172  1  0.01267754  0.38066592  0.25657901  1
  O  O173  1  0.00393921  0.37254359  0.75611147  1
  O  O174  1  -0.00882611  0.87829994  0.26678316  1
  O  O175  1  0.00252727  0.86285355  0.76026025  1
  O  O176  1  0.52263111  0.38415312  0.26645347  1
  O  O177  1  0.51058647  0.36658222  0.73920748  1
  O  O178  1  0.50895011  0.85651309  0.25421836  1
  O  O179  1  0.51719713  0.88410526  0.76573507  1
  O  O180  1  0.49250516  0.13452311  0.24760925  1
  O  O181  1  0.48408056  0.11497425  0.73906789  1
  O  O182  1  0.50512265  0.63040146  0.23834777  1
  O  O183  1  0.50589289  0.61537379  0.73283165  1
  O  O184  1  0.98167521  0.12040400  0.25293040  1
  O  O185  1  1.00716590  0.14304779  0.76354883  1
  O  O186  1  0.99156762  0.62897287  0.25212323  1
  O  O187  1  1.00858824  0.63847337  0.73995620  1
  O  O188  1  0.37105502  0.24370895  -0.00376498  1
  O  O189  1  0.37198207  0.24813230  0.51484580  1
  O  O190  1  0.37265188  0.75098798  0.00211531  1
  O  O191  1  0.36488829  0.75025436  0.50910226  1
  O  O192  1  0.86686515  0.25333557  -0.00410741  1
  O  O193  1  0.88501510  0.26520677  0.51404674  1
  O  O194  1  0.85772255  0.76826982  -0.00971664  1
  O  O195  1  0.87245454  0.75372393  0.51425553  1
  O  O196  1  0.19177117  0.30104521  0.50535268  1
  O  O197  1  0.11610235  0.23439483  1.00513888  1
  O  O198  1  0.13424937  0.74274401  0.51300285  1
  O  O199  1  0.11808080  0.73589841  1.00225880  1
  O  O200  1  0.62701147  0.24284931  0.50150683  1
  O  O201  1  0.63965609  0.25540301  0.99096496  1
  O  O202  1  0.62298751  0.75466751  0.48520624  1
  O  O203  1  0.63291135  0.74264100  0.99183642  1
  O  O204  1  0.48927688  0.22944617  0.11420088  1
  O  O205  1  0.49033669  0.23387826  0.62061334  1
  O  O206  1  0.50049090  0.73704091  0.13772973  1
  O  O207  1  0.50460608  0.72971058  0.61723673  1
  O  O208  1  0.96233064  0.29557569  0.12411415  1
  O  O209  1  0.98694649  0.25473287  0.63709617  1
  O  O210  1  1.00115017  0.75153582  0.13943138  1
  O  O211  1  0.98894849  0.74267145  0.63722373  1
  O  O212  1  -0.00664660  0.26401271  0.36367205  1
  O  O213  1  -0.00911230  0.26754138  0.86349865  1
  O  O214  1  -0.00191143  0.75862540  0.35827265  1
  O  O215  1  -0.01571014  0.73340493  0.86626088  1
  O  O216  1  0.48919289  0.27344235  0.38480521  1
  O  O217  1  0.49062182  0.30450390  0.91102490  1
  O  O218  1  0.51430155  0.73791508  0.36640977  1
  O  O219  1  0.50992151  0.75833945  0.87939911  1
  O  O220  1  0.24332846  0.12986895  0.48695901  1
  O  O221  1  0.24655123  0.13676411  0.99718183  1
  O  O222  1  0.23770854  0.63183356  0.49366400  1
  O  O223  1  0.24496981  0.63801387  0.99636886  1
  O  O224  1  0.73402812  0.12187293  0.49627276  1
  O  O225  1  0.74057616  0.14135930  0.99361946  1
  O  O226  1  0.75128727  0.62015909  0.48788486  1
  O  O227  1  0.73723985  0.63202082  0.99097389  1
  O  O228  1  0.24562517  0.35800642  0.00487810  1
  O  O229  1  0.23179786  0.36344689  0.49442021  1
  O  O230  1  0.25263392  0.86391317  0.00425625  1
  O  O231  1  0.25767006  0.86555757  0.49986747  1
  O  O232  1  0.75534916  0.36656490  0.00575378  1
  O  O233  1  0.76482428  0.37304436  0.50083821  1
  O  O234  1  0.74795335  0.86074644  0.00176933  1
  O  O235  1  0.76694587  0.87085551  0.49645943  1
  O  O236  1  0.12369232  0.50014989  0.23117392  1
  O  O237  1  0.11927981  0.49036482  0.73468557  1
  O  O238  1  0.12142484  1.00541469  0.23059103  1
  O  O239  1  0.13506160  0.99447219  0.74825699  1
  O  O240  1  0.64194444  0.49391425  0.25180164  1
  O  O241  1  0.62094573  0.48334654  0.72768042  1
  O  O242  1  0.61892954  0.97848661  0.26393236  1
  O  O243  1  0.63185685  0.99538066  0.74821177  1
  O  O244  1  0.41022862  -0.00246851  0.27971308  1
  O  O245  1  0.36393773  0.00295894  0.75525613  1
  O  O246  1  0.37765273  0.45611249  0.29438773  1
  O  O247  1  0.41675032  0.45780117  0.82520352  1
  O  O248  1  0.87274793  0.00670106  0.26677318  1
  O  O249  1  0.85655377  -0.00848523  0.75832047  1
  O  O250  1  0.86464714  0.49222338  0.26732051  1
  O  O251  1  0.87841950  0.50404710  0.75952106  1
  O  O252  1  0.11701835  0.37561359  0.35854477  1
  O  O253  1  0.11204478  0.38702945  0.85834425  1
  O  O254  1  0.11181240  0.88222787  0.37890595  1
  O  O255  1  0.12486467  0.88375778  0.86029380  1
  O  O256  1  0.62141025  0.37023642  0.37745294  1
  O  O257  1  0.62550206  0.38585433  0.85310213  1
  O  O258  1  0.62297556  0.86016074  0.36919750  1
  O  O259  1  0.61642808  0.86645403  0.86966863  1
  O  O260  1  0.38498842  0.10868377  0.14922526  1
  O  O261  1  0.37820954  0.12582141  0.63267850  1
  O  O262  1  0.38092090  0.62134818  0.12093930  1
  O  O263  1  0.38496650  0.62290325  0.62781102  1
  O  O264  1  0.86658762  0.10767013  0.13895575  1
  O  O265  1  0.86746690  0.13790938  0.61405412  1
  O  O266  1  0.89651320  0.64786943  0.06773287  1
  O  O267  1  0.88674340  0.63327635  0.62007054  1
  O  O268  1  0.24956354  0.25731220  0.11069581  1
  O  O269  1  0.26178717  0.23883172  0.63195984  1
  O  O270  1  0.24890799  0.76517879  0.11296419  1
  O  O271  1  0.25249922  0.74295716  0.61291687  1
  O  O272  1  0.75196555  0.24696909  0.11274051  1
  O  O273  1  0.76643373  0.26496032  0.62633858  1
  O  O274  1  0.74634626  0.74016840  0.11181680  1
  O  O275  1  0.76709473  0.74234928  0.63581072  1
  O  O276  1  0.24652750  0.23635840  0.36692907  1
  O  O277  1  0.25927721  0.23984580  0.88473894  1
  O  O278  1  0.24813315  0.73987427  0.39594989  1
  O  O279  1  0.25328079  0.74377008  0.89231672  1
  O  O280  1  0.76397614  0.23457774  0.38411697  1
  O  O281  1  0.75180359  0.25643094  0.88618714  1
  O  O282  1  0.74166958  0.73527047  0.37084786  1
  O  O283  1  0.73932584  0.73682320  0.87956550  1
  O  O284  1  0.01079477  0.11499412  -0.00835517  1
  O  O285  1  0.04437903  0.19707196  0.50465024  1
  O  O286  1  0.01907206  0.60855292  -0.01219068  1
  O  O287  1  0.01211501  0.63987995  0.51607711  1
  O  O288  1  0.50496114  0.13130888  0.02588275  1
  O  O289  1  0.51582431  0.12338421  0.50091963  1
  O  O290  1  0.51238297  0.62870743  0.01532476  1
  O  O291  1  0.49730250  0.60952296  0.50794234  1
  O  O292  1  0.50242110  0.38891365  0.49238682  1
  O  O293  1  0.49680826  0.34842819  0.97148370  1
  O  O294  1  0.49270838  0.88282760  0.49013716  1
  O  O295  1  0.50880514  0.87397277  0.98625277  1
  O  O296  1  0.99879580  0.37421508  0.48093446  1
  O  O297  1  1.00673514  0.38652009  0.98124496  1
  O  O298  1  0.98440357  0.85801153  0.48206259  1
  O  O299  1  0.98212225  0.88021773  0.99872382  1
  O  O300  1  0.50668420  0.49440867  0.38733986  1
  O  O301  1  0.47588854  0.48810266  0.86900633  1
  O  O302  1  0.46347083  0.99824363  0.33992547  1
  O  O303  1  0.48862443  0.98989960  0.87655639  1
  O  O304  1  0.98811624  0.49440266  0.36791790  1
  O  O305  1  0.99140519  0.49772050  0.87640444  1
  O  O306  1  0.98597608  0.98910717  0.38084909  1
  O  O307  1  0.98485236  0.99841112  0.87978624  1
  O  O308  1  0.01081288  -0.00697159  0.11085277  1
  O  O309  1  -0.00188879  0.00858436  0.63881294  1
  O  O310  1  0.01157557  0.49559494  0.11118803  1
  O  O311  1  0.00030165  0.51941564  0.62804721  1
  O  O312  1  0.50733598  0.01232682  0.12928080  1
  O  O313  1  0.51641898  0.01104833  0.62993692  1
  O  O314  1  0.49400411  0.51234835  0.13351338  1
  O  O315  1  0.50848843  0.50582954  0.61168073  1
  O  O316  1  0.23404493  0.36735071  0.23387145  1
  O  O317  1  0.22962575  0.36905933  0.75100717  1
  O  O318  1  0.25766830  0.87727113  0.23644533  1
  O  O319  1  0.24065735  0.88417687  0.75552085  1
  O  O320  1  0.74232561  0.38942217  0.25672774  1
  O  O321  1  0.75730636  0.38073879  0.73634153  1
  O  O322  1  0.73794117  0.87034272  0.25106521  1
  O  O323  1  0.73004806  0.88449102  0.75830161  1
  O  O324  1  0.26551937  0.11453264  0.25059757  1
  O  O325  1  0.25753663  0.11398180  0.76048107  1
  O  O326  1  0.24058131  0.64695016  0.26710186  1
  O  O327  1  0.24445339  0.63262341  0.76601278  1
  O  O328  1  0.76112690  0.12115386  0.27241123  1
  O  O329  1  0.74188584  0.11580585  0.74696297  1
  O  O330  1  0.75014730  0.61172980  0.26319696  1
  O  O331  1  0.74122822  0.62218199  0.76747476  1
  O  O332  1  0.36926640  0.13134329  0.35982750  1
  O  O333  1  0.37616938  0.11415892  0.86507243  1
  O  O334  1  0.36395313  0.62481286  0.37484615  1
  O  O335  1  0.36641310  0.62502294  0.87428455  1
  O  O336  1  0.87338810  0.11519656  0.38859466  1
  O  O337  1  0.87444621  0.10856398  0.87383555  1
  O  O338  1  0.87230954  0.61557798  0.38507790  1
  O  O339  1  0.86165186  0.61554399  0.88039171  1
  O  O340  1  0.12779330  0.38272001  0.13189206  1
  O  O341  1  0.11185015  0.38776058  0.62739288  1
  O  O342  1  0.13263195  0.88687660  0.11677046  1
  O  O343  1  0.11185989  0.88953543  0.64740767  1
  O  O344  1  0.61656251  0.37622797  0.13727440  1
  O  O345  1  0.64086316  0.37435189  0.62824657  1
  O  O346  1  0.61979743  0.86929008  0.13921657  1
  O  O347  1  0.61458185  0.88364416  0.63714011  1
  O  O348  1  0.11731535  0.25663158  0.23187754  1
  O  O349  1  0.10865394  0.26575940  0.73761194  1
  O  O350  1  0.09370076  0.75822048  0.22572886  1
  O  O351  1  0.11161278  0.76167536  0.74987040  1
  O  O352  1  0.64047782  0.26766222  0.25241844  1
  O  O353  1  0.63473559  0.26543432  0.74843205  1
  O  O354  1  0.61910180  0.75519580  0.26011892  1
  O  O355  1  0.62781720  0.76070997  0.75668271  1
  O  O356  1  0.37313777  0.24589087  0.24209652  1
  O  O357  1  0.37376875  0.23063556  0.74968667  1
  O  O358  1  0.39192229  0.75217421  0.25975927  1
  O  O359  1  0.39044228  0.77392504  0.74585296  1
  O  O360  1  0.86829946  0.23414473  0.24661721  1
  O  O361  1  0.88525135  0.25367878  0.73656009  1
  O  O362  1  0.88258377  0.74925263  0.24604324  1
  O  O363  1  0.88354198  0.75986067  0.74325517  1
  O  O364  1  0.38298623  0.49537400  0.50146758  1
  O  O365  1  0.38143004  0.48697122  0.99356880  1
  O  O366  1  0.37048514  0.99337614  0.50394574  1
  O  O367  1  0.37071232  1.00844093  0.98815821  1
  O  O368  1  0.87692645  0.48640743  0.48628618  1
  O  O369  1  0.89238607  0.49484003  0.99636359  1
  O  O370  1  0.87876860  0.98458652  0.50405944  1
  O  O371  1  0.87756686  0.99763124  0.98958231  1
  O  O372  1  0.11514941  0.00299517  0.00135575  1
  O  O373  1  0.11632717  -0.01201015  0.52295563  1
  O  O374  1  0.11776475  0.50072752  0.00537256  1
  O  O375  1  0.12131340  0.51468252  0.51191220  1
  O  O376  1  0.65113888  0.00382351  0.02018253  1
  O  O377  1  0.63046628  -0.01002826  0.51237877  1
  O  O378  1  0.62661696  0.50940666  -0.00505406  1
  O  O379  1  0.62187712  0.49264303  0.51322897  1
  O  O380  1  0.35901485  0.38051188  0.13323339  1
  O  O381  1  0.36704209  0.35597759  0.64022373  1
  O  O382  1  0.36657913  0.88603863  0.12156419  1
  O  O383  1  0.38879259  0.87162005  0.60762164  1
  O  O384  1  0.90976289  0.35566184  0.12111995  1
  O  O385  1  0.86735346  0.38239065  0.61226545  1
  O  O386  1  0.86542957  0.89308697  0.10617837  1
  O  O387  1  0.88045129  0.86318071  0.61566380  1
  O  O388  1  0.13190112  0.12725544  0.36537181  1
  O  O389  1  0.13993432  0.11518043  0.88977360  1
  O  O390  1  0.11647844  0.62694283  0.39324277  1
  O  O391  1  0.13751270  0.62106483  0.88665612  1
  O  O392  1  0.63701822  0.12084857  0.38488928  1
  O  O393  1  0.57059041  0.14807581  0.88411159  1
  O  O394  1  0.63575699  0.63037385  0.37536289  1
  O  O395  1  0.62754474  0.62451312  0.88104234  1
