# generated using pymatgen
data_V35Zn35O128
_symmetry_space_group_name_H-M   'P 1'
_cell_length_a   16.83936223
_cell_length_b   16.82123328
_cell_length_c   16.84535860
_cell_angle_alpha   90.11675114
_cell_angle_beta   90.04273338
_cell_angle_gamma   89.99328356
_symmetry_Int_Tables_number   1
_chemical_formula_structural   V35Zn35O128
_chemical_formula_sum   'V70 Zn70 O256'
_cell_volume   4771.58547881
_cell_formula_units_Z   2
loop_
 _symmetry_equiv_pos_site_id
 _symmetry_equiv_pos_as_xyz
  1  'x, y, z'
loop_
 _atom_site_type_symbol
 _atom_site_label
 _atom_site_symmetry_multiplicity
 _atom_site_fract_x
 _atom_site_fract_y
 _atom_site_fract_z
 _atom_site_occupancy
  V  V0  1  0.37537527  -0.01051225  0.37088292  1
  V  V1  1  0.49587743  -0.01847445  0.50337812  1
  V  V2  1  0.52783789  0.12500623  0.13429086  1
  V  V3  1  0.00477482  0.13278575  0.13128746  1
  V  V4  1  0.00330293  0.62647189  0.10143147  1
  V  V5  1  -0.00529232  0.50449954  0.49028110  1
  V  V6  1  0.13394384  0.38316487  0.73844706  1
  V  V7  1  0.60950237  0.11661128  0.50355091  1
  V  V8  1  0.63067228  0.48792516  0.13003381  1
  V  V9  1  0.88204086  0.49869260  0.88103315  1
  V  V10  1  0.87855107  0.37893082  0.48722336  1
  V  V11  1  0.75490160  0.24003428  0.49486419  1
  V  V12  1  0.74655777  0.74338619  0.49462406  1
  V  V13  1  -0.00655612  0.25409188  0.74986897  1
  V  V14  1  0.13267692  0.62218678  0.50882770  1
  V  V15  1  0.86411919  0.12510676  0.24911902  1
  V  V16  1  0.36697911  0.12734477  0.24231981  1
  V  V17  1  0.48319150  0.37150169  0.87617430  1
  V  V18  1  0.86144389  0.12617509  0.75187836  1
  V  V19  1  0.27125354  0.74762461  0.00076853  1
  V  V20  1  0.12342761  0.74556963  0.37158019  1
  V  V21  1  -0.00234715  0.00116197  0.00570591  1
  V  V22  1  0.75075304  0.50314580  0.75294789  1
  V  V23  1  0.75160206  0.74498292  0.01557365  1
  V  V24  1  0.61843208  0.51199259  0.62063263  1
  V  V25  1  0.61591808  0.86730966  0.77483861  1
  V  V26  1  -0.00215475  0.11666673  0.62579568  1
  V  V27  1  0.88304738  0.87902695  0.50042624  1
  V  V28  1  0.49677928  0.26476354  0.24780078  1
  V  V29  1  0.89780091  0.62419416  0.24568053  1
  V  V30  1  0.61581016  0.25961712  0.37449080  1
  V  V31  1  0.00421471  0.87508402  0.86175767  1
  V  V32  1  0.11905803  0.50062470  0.10742141  1
  V  V33  1  0.25907179  0.25118403  0.00199984  1
  V  V34  1  0.00854608  0.88018360  0.36112552  1
  V  V35  1  0.86430169  0.00313106  0.37249223  1
  V  V36  1  0.26681392  0.87636859  0.12307990  1
  V  V37  1  0.75238356  0.89313454  0.13820563  1
  V  V38  1  0.25975392  0.37569195  0.12492779  1
  V  V39  1  0.87121079  0.87297610  0.00383207  1
  V  V40  1  0.37800050  0.12085514  0.75102387  1
  V  V41  1  0.12765775  0.12034460  -0.00693174  1
  V  V42  1  0.34336514  0.50468279  0.36320943  1
  V  V43  1  0.13129857  -0.01153643  0.63537112  1
  V  V44  1  0.11721133  0.25867043  0.87768107  1
  V  V45  1  0.74859142  0.63472407  0.86989927  1
  V  V46  1  0.48580204  0.49709084  0.00025738  1
  V  V47  1  0.49639441  -0.00238839  -0.00346706  1
  V  V48  1  0.87555247  0.74747578  0.63673344  1
  V  V49  1  0.61658799  0.36446089  0.75702810  1
  V  V50  1  0.48930214  0.49680943  0.49360879  1
  V  V51  1  0.89463086  0.37404434  0.00286942  1
  V  V52  1  -0.00713903  0.62100523  0.63995586  1
  V  V53  1  0.85975675  0.00555371  0.87323178  1
  V  V54  1  0.24926550  0.77447410  0.51465138  1
  V  V55  1  0.61735212  0.74698247  0.36466992  1
  V  V56  1  0.25305863  0.13139075  0.38740333  1
  V  V57  1  0.48545748  0.74117607  0.74791137  1
  V  V58  1  0.61171818  0.88648010  0.25312464  1
  V  V59  1  0.00134556  0.25575288  0.26217869  1
  V  V60  1  0.61713651  0.62475835  0.00532375  1
  V  V61  1  0.36818347  0.60602016  0.73065202  1
  V  V62  1  0.12879327  0.38144525  0.25765743  1
  V  V63  1  0.12476090  0.74309038  0.87201720  1
  V  V64  1  0.76196422  0.61729694  0.36352778  1
  V  V65  1  0.73516301  0.88595964  0.62607243  1
  V  V66  1  0.74224769  0.26181616  -0.00675783  1
  V  V67  1  0.63463779  0.12805236  -0.02411256  1
  V  V68  1  0.26132990  0.61133322  0.87589418  1
  V  V69  1  0.75876475  0.36930104  0.63070745  1
  Zn  Zn70  1  0.76205588  0.37441924  0.13219313  1
  Zn  Zn71  1  0.13135548  0.91702959  0.21338608  1
  Zn  Zn72  1  0.12937993  0.25669894  0.38694275  1
  Zn  Zn73  1  0.24445213  0.25511973  0.53090228  1
  Zn  Zn74  1  0.11542949  0.12545927  0.50430798  1
  Zn  Zn75  1  0.42710237  0.81038664  0.43444589  1
  Zn  Zn76  1  0.18537602  0.18608700  0.18790216  1
  Zn  Zn77  1  0.18319838  0.17472989  0.69874617  1
  Zn  Zn78  1  0.14455493  0.73022842  0.15724895  1
  Zn  Zn79  1  0.18281919  0.68433071  0.69078239  1
  Zn  Zn80  1  0.70004780  0.22485130  0.19405061  1
  Zn  Zn81  1  0.68235322  0.18669539  0.68219743  1
  Zn  Zn82  1  0.68687943  0.68351060  0.18979774  1
  Zn  Zn83  1  0.68654937  0.69541195  0.68741953  1
  Zn  Zn84  1  0.31562537  0.31600918  0.31635637  1
  Zn  Zn85  1  0.30506318  0.30863347  0.81419052  1
  Zn  Zn86  1  0.29339207  0.80541391  0.30818659  1
  Zn  Zn87  1  0.28058894  0.78740086  0.78427752  1
  Zn  Zn88  1  0.81221527  0.31338254  0.31297991  1
  Zn  Zn89  1  0.81186717  0.31464212  0.82093772  1
  Zn  Zn90  1  0.82266789  0.80555076  0.30900902  1
  Zn  Zn91  1  0.80261773  0.82228052  0.81349474  1
  Zn  Zn92  1  0.18850640  0.44541054  0.44432710  1
  Zn  Zn93  1  0.18836082  0.43007461  0.93638663  1
  Zn  Zn94  1  0.18225662  0.94928451  0.44576888  1
  Zn  Zn95  1  0.18077236  0.92239472  0.95745119  1
  Zn  Zn96  1  0.69139832  0.43422667  0.44635882  1
  Zn  Zn97  1  0.68433739  0.44282669  0.93642368  1
  Zn  Zn98  1  0.68554565  0.93151646  0.43724744  1
  Zn  Zn99  1  0.68171500  0.94144911  0.95141539  1
  Zn  Zn100  1  0.30984817  0.05854804  0.06325413  1
  Zn  Zn101  1  0.31193150  0.05038463  0.55980255  1
  Zn  Zn102  1  0.30038256  0.56783510  0.07041853  1
  Zn  Zn103  1  0.37107977  0.62841716  0.51771615  1
  Zn  Zn104  1  0.80930906  0.07382159  0.06544915  1
  Zn  Zn105  1  0.81586496  0.06142696  0.56486444  1
  Zn  Zn106  1  0.81725576  0.55792014  0.06884622  1
  Zn  Zn107  1  0.81079256  0.56144106  0.56439670  1
  Zn  Zn108  1  0.44123705  0.45844643  0.19198847  1
  Zn  Zn109  1  0.43669578  0.43766254  0.68354723  1
  Zn  Zn110  1  0.43913159  0.94535296  0.18310463  1
  Zn  Zn111  1  0.47536964  0.94448558  0.70656708  1
  Zn  Zn112  1  0.93824094  0.44502941  0.19089190  1
  Zn  Zn113  1  0.93993982  0.43947740  0.69312641  1
  Zn  Zn114  1  0.93603727  0.94042189  0.18831209  1
  Zn  Zn115  1  0.92945708  0.94024097  0.68629867  1
  Zn  Zn116  1  0.06377353  0.06008197  0.32162932  1
  Zn  Zn117  1  0.05514560  0.06079849  0.81260946  1
  Zn  Zn118  1  0.07185904  0.56226267  0.31579156  1
  Zn  Zn119  1  0.06617011  0.55969215  0.81404380  1
  Zn  Zn120  1  0.56410280  0.06883346  0.32054802  1
  Zn  Zn121  1  0.56857677  0.05564879  0.81122392  1
  Zn  Zn122  1  0.61514586  0.52561527  0.33638805  1
  Zn  Zn123  1  0.55599473  0.56582799  0.81499062  1
  Zn  Zn124  1  0.44366391  0.17916468  0.42858424  1
  Zn  Zn125  1  0.44774167  0.18482789  0.94359526  1
  Zn  Zn126  1  0.48084605  0.63112580  0.39534773  1
  Zn  Zn127  1  0.44012320  0.68733526  0.92324864  1
  Zn  Zn128  1  0.93365234  0.18794169  0.43780448  1
  Zn  Zn129  1  0.93310150  0.19047182  0.93852090  1
  Zn  Zn130  1  0.93856608  0.69209784  0.43751546  1
  Zn  Zn131  1  0.93366923  0.68998984  0.92525526  1
  Zn  Zn132  1  0.06565040  0.31033651  0.07020384  1
  Zn  Zn133  1  0.05719711  0.30891157  0.56592113  1
  Zn  Zn134  1  0.05929957  0.81146138  0.04730857  1
  Zn  Zn135  1  0.06311698  0.80844780  0.56844843  1
  Zn  Zn136  1  0.55655111  0.31196648  0.05844536  1
  Zn  Zn137  1  0.57561120  0.32510905  0.55639094  1
  Zn  Zn138  1  0.57521739  0.82074294  0.06081308  1
  Zn  Zn139  1  0.55950478  0.79648238  0.56367686  1
  O  O140  1  0.11098270  0.12909984  0.11280315  1
  O  O141  1  0.10700712  0.12016807  0.63165818  1
  O  O142  1  0.12058535  0.60780506  0.12358985  1
  O  O143  1  0.10396900  0.63491469  0.61730949  1
  O  O144  1  0.62595346  0.13105618  0.14278207  1
  O  O145  1  0.63017858  0.12493001  0.60316319  1
  O  O146  1  0.63150793  0.61811662  0.11065162  1
  O  O147  1  0.63148338  0.61096274  0.63400093  1
  O  O148  1  0.35808597  0.40051884  0.37581504  1
  O  O149  1  0.38357388  0.37597619  0.86371872  1
  O  O150  1  0.36808541  0.88365433  0.36284360  1
  O  O151  1  0.31519971  0.89933208  0.84809006  1
  O  O152  1  0.87263790  0.37631358  0.38784998  1
  O  O153  1  0.87316574  0.38955699  0.88535090  1
  O  O154  1  0.88494123  0.88025123  0.38133868  1
  O  O155  1  0.87785787  0.88497309  0.88194407  1
  O  O156  1  0.26547586  0.01432914  0.38562196  1
  O  O157  1  0.26171452  -0.04885694  0.85958185  1
  O  O158  1  0.24109649  0.51237721  0.36788469  1
  O  O159  1  0.23950152  0.51331618  0.88071364  1
  O  O160  1  0.76539004  -0.00794827  0.37512923  1
  O  O161  1  0.76146174  -0.00464587  0.88263595  1
  O  O162  1  0.73119622  0.51729128  0.37628972  1
  O  O163  1  0.75481838  0.50935668  0.86922683  1
  O  O164  1  0.23521685  0.48469091  0.11991690  1
  O  O165  1  0.29062048  0.41826504  0.58369236  1
  O  O166  1  0.24590275  0.97566112  0.10765918  1
  O  O167  1  0.23353591  1.00525951  0.62541727  1
  O  O168  1  0.73715844  0.49538214  0.12210636  1
  O  O169  1  0.74560762  0.49161519  0.63351134  1
  O  O170  1  0.75192044  0.99195136  0.12558449  1
  O  O171  1  0.75077568  0.98490204  0.61909374  1
  O  O172  1  0.00726579  0.36183018  0.24679484  1
  O  O173  1  0.00360360  0.35868794  0.74830424  1
  O  O174  1  0.00496895  0.87814690  0.25844875  1
  O  O175  1  -0.01003479  0.87981594  0.76382959  1
  O  O176  1  0.49262521  0.36305070  0.24164492  1
  O  O177  1  0.50798114  0.38164568  0.75931587  1
  O  O178  1  0.51295840  0.87571307  0.24099251  1
  O  O179  1  0.50168513  0.85311211  0.76934289  1
  O  O180  1  0.49275124  0.13042229  0.24283764  1
  O  O181  1  0.48434114  0.12818176  0.74714389  1
  O  O182  1  0.50504297  0.70347822  0.17329902  1
  O  O183  1  0.47925100  0.62121644  0.74540365  1
  O  O184  1  1.00125502  0.13237957  0.24213653  1
  O  O185  1  0.98773798  0.13235401  0.74638714  1
  O  O186  1  1.00071667  0.62301991  0.24893760  1
  O  O187  1  1.00049443  0.62531110  0.73871138  1
  O  O188  1  0.35666008  0.23456675  -0.00407786  1
  O  O189  1  0.40349965  0.24612071  0.52651630  1
  O  O190  1  0.37204592  0.74388898  -0.00459995  1
  O  O191  1  0.35186471  0.74867659  0.49628830  1
  O  O192  1  0.86893736  0.26918125  -0.00858439  1
  O  O193  1  0.86324012  0.26204095  0.49645324  1
  O  O194  1  0.86265096  0.76245199  -0.00859627  1
  O  O195  1  0.86564127  0.76230905  0.50262044  1
  O  O196  1  0.12872886  0.24423410  0.50331128  1
  O  O197  1  0.12091105  0.24050188  0.99158961  1
  O  O198  1  0.13020163  0.74111131  0.49958597  1
  O  O199  1  0.13652494  0.75838308  0.97624968  1
  O  O200  1  0.63086279  0.24240383  0.49589460  1
  O  O201  1  0.63200621  0.24079179  1.00043043  1
  O  O202  1  0.64055779  0.75473061  0.48641588  1
  O  O203  1  0.63847868  0.73906775  1.00679779  1
  O  O204  1  0.50566989  0.24003409  0.13901679  1
  O  O205  1  0.45477760  0.26074343  0.58017933  1
  O  O206  1  0.48373943  0.74998232  0.12001765  1
  O  O207  1  0.49826851  0.74922931  0.64334187  1
  O  O208  1  0.99842880  0.23813830  0.13633433  1
  O  O209  1  0.99932747  0.23853006  0.64454834  1
  O  O210  1  1.02397814  0.72703547  0.12093434  1
  O  O211  1  0.98172880  0.74145116  0.62068550  1
  O  O212  1  0.00842818  0.24256057  0.36605311  1
  O  O213  1  0.00920490  0.24327746  0.86705375  1
  O  O214  1  0.01093302  0.76730091  0.38420725  1
  O  O215  1  0.01054459  0.76115627  0.87363838  1
  O  O216  1  0.50641185  0.25503764  0.36890348  1
  O  O217  1  0.49895254  0.27158047  0.88765201  1
  O  O218  1  0.51264596  0.74196080  0.37969923  1
  O  O219  1  0.51540113  0.72345365  0.84956901  1
  O  O220  1  0.26538871  0.13504730  0.49308485  1
  O  O221  1  0.23221220  0.13279295  1.00958023  1
  O  O222  1  0.23041018  0.61811918  0.51289903  1
  O  O223  1  0.25290485  0.63353090  0.98782794  1
  O  O224  1  0.75361474  0.13801650  0.50414656  1
  O  O225  1  0.73943000  0.13258190  0.99680921  1
  O  O226  1  0.76045294  0.63816560  0.49062422  1
  O  O227  1  0.75031119  0.63606419  0.99790137  1
  O  O228  1  0.24962646  0.36221214  0.01004996  1
  O  O229  1  0.25011563  0.37616267  0.51998317  1
  O  O230  1  0.25962738  0.85837593  0.00530324  1
  O  O231  1  0.24643236  0.87406227  0.50870516  1
  O  O232  1  0.74621431  0.36878938  0.00129160  1
  O  O233  1  0.76253052  0.37187929  0.51236735  1
  O  O234  1  0.75042680  0.86568468  0.01427749  1
  O  O235  1  0.75837095  0.86528573  0.50516383  1
  O  O236  1  0.12001216  0.48395386  0.24641181  1
  O  O237  1  0.11895755  0.48273993  0.75228418  1
  O  O238  1  0.13115353  1.02012687  0.24473696  1
  O  O239  1  0.12082907  1.00719951  0.73855709  1
  O  O240  1  0.61213312  0.50707038  0.22734118  1
  O  O241  1  0.63470369  0.49426881  0.74474295  1
  O  O242  1  0.62387232  0.98558001  0.26642135  1
  O  O243  1  0.59390915  0.96907860  0.74283361  1
  O  O244  1  0.37850454  0.01486068  0.26100360  1
  O  O245  1  0.38661549  0.01589897  0.75216837  1
  O  O246  1  0.37584400  0.51314276  0.26517442  1
  O  O247  1  0.36689214  0.50540607  0.74154382  1
  O  O248  1  0.87839573  0.01125206  0.26135295  1
  O  O249  1  0.87203717  0.01016493  0.76415405  1
  O  O250  1  0.87706285  0.51998244  0.24975527  1
  O  O251  1  0.85970789  0.49224412  0.76260831  1
  O  O252  1  0.13514035  0.37443991  0.36235182  1
  O  O253  1  0.11920966  0.36192651  0.86945689  1
  O  O254  1  0.11354032  0.87340713  0.37974300  1
  O  O255  1  0.10702280  0.87899467  0.87700752  1
  O  O256  1  0.62977513  0.36026375  0.38254572  1
  O  O257  1  0.62330290  0.37841252  0.85963628  1
  O  O258  1  0.63248505  0.85973567  0.36218585  1
  O  O259  1  0.63678310  0.87066670  0.87276460  1
  O  O260  1  0.36838147  0.12505810  0.14137149  1
  O  O261  1  0.37226229  0.11986301  0.64685469  1
  O  O262  1  0.36117995  0.62768066  0.15732630  1
  O  O263  1  0.35605698  0.61986551  0.63271726  1
  O  O264  1  0.88824033  0.11742172  0.14059361  1
  O  O265  1  0.88052138  0.11726051  0.64394147  1
  O  O266  1  0.89577002  0.62047660  0.12959140  1
  O  O267  1  0.87703091  0.63808372  0.62575599  1
  O  O268  1  0.24020500  0.26011548  0.11234873  1
  O  O269  1  0.25927879  0.23120498  0.64002501  1
  O  O270  1  0.24963216  0.74609456  0.10501709  1
  O  O271  1  0.23775223  0.75176934  0.61340375  1
  O  O272  1  0.75987854  0.24790570  0.09897424  1
  O  O273  1  0.74324761  0.26440163  0.61290612  1
  O  O274  1  0.75646995  0.75013345  0.11657416  1
  O  O275  1  0.75808505  0.75421060  0.61170602  1
  O  O276  1  0.25578928  0.24104516  0.38451079  1
  O  O277  1  0.23275083  0.25230732  0.89199181  1
  O  O278  1  0.22832807  0.76130892  0.39442779  1
  O  O279  1  0.24868894  0.73787498  0.88709598  1
  O  O280  1  0.74024954  0.25244522  0.39145418  1
  O  O281  1  0.75200473  0.25001573  0.89084449  1
  O  O282  1  0.75150999  0.74321234  0.38282642  1
  O  O283  1  0.75369091  0.73866005  0.88143019  1
  O  O284  1  0.00184769  0.12145762  0.01017495  1
  O  O285  1  -0.01135666  0.13489849  0.52299800  1
  O  O286  1  -0.00548525  0.62623250  0.00221545  1
  O  O287  1  -0.00521860  0.61435695  0.50758925  1
  O  O288  1  0.52028739  0.13095863  0.01612468  1
  O  O289  1  0.50529612  0.11360862  0.50262484  1
  O  O290  1  0.51360234  0.61973595  -0.00610119  1
  O  O291  1  0.49223239  0.60849751  0.51269437  1
  O  O292  1  0.51069483  0.39501000  0.49940363  1
  O  O293  1  0.49494279  0.38655770  0.99101169  1
  O  O294  1  0.50272608  0.87594927  0.49366980  1
  O  O295  1  0.50992067  0.89752090  1.01568140  1
  O  O296  1  0.98522659  0.38531398  0.51059333  1
  O  O297  1  0.99388022  0.36927836  0.99987607  1
  O  O298  1  0.98411433  0.87179100  0.50146576  1
  O  O299  1  0.98716693  0.88208277  0.99265050  1
  O  O300  1  0.51528190  0.51605118  0.38769785  1
  O  O301  1  0.50423446  0.49237919  0.89081064  1
  O  O302  1  0.48263276  1.00343083  0.38111105  1
  O  O303  1  0.50746553  1.00611284  0.89534712  1
  O  O304  1  0.99967576  0.50212808  0.39153231  1
  O  O305  1  0.98038491  0.51083450  0.87052747  1
  O  O306  1  0.99137554  0.98579800  0.37806799  1
  O  O307  1  0.98903015  0.99146352  0.88525826  1
  O  O308  1  -0.00320771  0.00756397  0.11241139  1
  O  O309  1  -0.00047251  0.01184928  0.63044911  1
  O  O310  1  0.01217814  0.50852255  0.12423840  1
  O  O311  1  -0.01351796  0.51639253  0.62123581  1
  O  O312  1  0.50346257  0.02227830  0.12277813  1
  O  O313  1  0.49280818  -0.01181429  0.60286870  1
  O  O314  1  0.51125258  0.49679684  0.10774838  1
  O  O315  1  0.51319785  0.49480101  0.61856653  1
  O  O316  1  0.23484753  0.36040787  0.23572431  1
  O  O317  1  0.23330801  0.36820257  0.75295936  1
  O  O318  1  0.24185071  0.86516936  0.22781496  1
  O  O319  1  0.30444527  0.87758669  0.68718759  1
  O  O320  1  0.73941196  0.33108536  0.23397370  1
  O  O321  1  0.74349167  0.37801906  0.74352922  1
  O  O322  1  0.76268515  0.87512913  0.23875983  1
  O  O323  1  0.73146030  0.87200044  0.73572405  1
  O  O324  1  0.26267170  0.13790367  0.26165214  1
  O  O325  1  0.27342050  0.11297217  0.76175691  1
  O  O326  1  0.31732443  0.66437016  0.21258219  1
  O  O327  1  0.25824509  0.62913622  0.76229978  1
  O  O328  1  0.76671377  0.13652199  0.24616726  1
  O  O329  1  0.76231633  0.13565460  0.74684300  1
  O  O330  1  0.75846621  0.62640956  0.26078521  1
  O  O331  1  0.74293056  0.62144983  0.76373522  1
  O  O332  1  0.36787553  0.11890446  0.36732472  1
  O  O333  1  0.38755960  0.12482950  0.85708984  1
  O  O334  1  0.36763306  0.60890967  0.39610168  1
  O  O335  1  0.36394486  0.61525083  0.86790553  1
  O  O336  1  0.87992960  0.11095573  0.36816077  1
  O  O337  1  0.87691679  0.11297280  0.86964162  1
  O  O338  1  0.86802016  0.62390919  0.36992064  1
  O  O339  1  0.85805533  0.61406493  0.88161899  1
  O  O340  1  0.12611140  0.38421301  0.13427970  1
  O  O341  1  0.12182388  0.36879096  0.63891641  1
  O  O342  1  0.13485410  0.85107948  0.12274469  1
  O  O343  1  0.11353353  0.88808863  0.62813994  1
  O  O344  1  0.62516047  0.38523088  0.11765550  1
  O  O345  1  0.63560261  0.38536645  0.63713079  1
  O  O346  1  0.64310929  0.86975830  0.14324831  1
  O  O347  1  0.63676249  0.87269147  0.61062394  1
  O  O348  1  0.11370327  0.25634541  0.25208248  1
  O  O349  1  0.11565080  0.24725099  0.76462141  1
  O  O350  1  0.13288943  0.73500922  0.27284334  1
  O  O351  1  0.16017016  0.76993479  0.77258956  1
  O  O352  1  0.60885483  0.24382154  0.26694465  1
  O  O353  1  0.62311488  0.26519736  0.74132583  1
  O  O354  1  0.62965725  0.75759797  0.25947752  1
  O  O355  1  0.61771757  0.76396547  0.74380977  1
  O  O356  1  0.38920200  0.23953065  0.26050411  1
  O  O357  1  0.37055339  0.22681982  0.75244855  1
  O  O358  1  0.35986630  0.71468077  0.25775117  1
  O  O359  1  0.37979994  0.73853381  0.75389950  1
  O  O360  1  0.89166424  0.23464315  0.26398201  1
  O  O361  1  0.88455897  0.23953679  0.76472625  1
  O  O362  1  0.87915929  0.72739329  0.25201199  1
  O  O363  1  0.86518278  0.75974815  0.73500055  1
  O  O364  1  0.38716109  0.49452265  0.48739251  1
  O  O365  1  0.38849705  0.51530216  1.01211249  1
  O  O366  1  0.38569955  0.99744339  0.48746383  1
  O  O367  1  0.39575531  1.01808264  1.00344525  1
  O  O368  1  0.87943845  0.48897705  0.50249279  1
  O  O369  1  0.86987228  0.49040125  0.98893645  1
  O  O370  1  0.87084654  0.98769060  0.48995345  1
  O  O371  1  0.87816260  0.99697031  0.99189775  1
  O  O372  1  0.11485151  0.01201706  -0.00790349  1
  O  O373  1  0.12132925  0.01179995  0.51931774  1
  O  O374  1  0.11947643  0.49018553  0.00843715  1
  O  O375  1  0.10836462  0.51132032  0.50440016  1
  O  O376  1  0.62133394  0.02351219  0.00307850  1
  O  O377  1  0.61027161  0.00687377  0.48478380  1
  O  O378  1  0.62078722  0.51099189  0.00788002  1
  O  O379  1  0.63148474  0.50142201  0.51846769  1
  O  O380  1  0.35749326  0.38400437  0.13549847  1
  O  O381  1  0.34818310  0.37632810  0.61317450  1
  O  O382  1  0.36791497  0.87211462  0.13191104  1
  O  O383  1  0.36899101  0.88539855  0.65157198  1
  O  O384  1  0.87785317  0.38846637  0.10732748  1
  O  O385  1  0.86127319  0.37693960  0.62762059  1
  O  O386  1  0.86674829  0.88219710  0.11325643  1
  O  O387  1  0.86616465  0.86858055  0.61580846  1
  O  O388  1  0.14363552  0.12568498  0.38224081  1
  O  O389  1  0.11846163  0.13143533  0.88857176  1
  O  O390  1  0.11321174  0.63734930  0.39568797  1
  O  O391  1  0.13066135  0.63897147  0.86548277  1
  O  O392  1  0.62130975  0.14104002  0.39213834  1
  O  O393  1  0.62578859  0.12952566  0.87620260  1
  O  O394  1  0.64140458  0.64333252  0.36656227  1
  O  O395  1  0.64211058  0.61633223  0.89231355  1
