# generated using pymatgen
data_V35Zn35O128
_symmetry_space_group_name_H-M   'P 1'
_cell_length_a   16.84423141
_cell_length_b   16.84997221
_cell_length_c   16.81844642
_cell_angle_alpha   90.04456823
_cell_angle_beta   89.98937336
_cell_angle_gamma   90.04834004
_symmetry_Int_Tables_number   1
_chemical_formula_structural   V35Zn35O128
_chemical_formula_sum   'V70 Zn70 O256'
_cell_volume   4773.48948832
_cell_formula_units_Z   2
loop_
 _symmetry_equiv_pos_site_id
 _symmetry_equiv_pos_as_xyz
  1  'x, y, z'
loop_
 _atom_site_type_symbol
 _atom_site_label
 _atom_site_symmetry_multiplicity
 _atom_site_fract_x
 _atom_site_fract_y
 _atom_site_fract_z
 _atom_site_occupancy
  V  V0  1  0.24346022  0.13619737  0.37991930  1
  V  V1  1  0.24761994  -0.01122643  0.25215567  1
  V  V2  1  -0.01106660  0.36922582  0.88557661  1
  V  V3  1  0.37310315  0.74982849  0.60768055  1
  V  V4  1  0.13067466  -0.01324603  0.12944739  1
  V  V5  1  0.25060899  0.61904100  0.38835862  1
  V  V6  1  0.37210340  0.61376625  0.74993961  1
  V  V7  1  0.74938719  0.23785843  0.01086228  1
  V  V8  1  0.12703319  0.00770182  0.62224039  1
  V  V9  1  0.26204569  0.00431798  0.75621469  1
  V  V10  1  0.12100812  0.35107061  0.75444178  1
  V  V11  1  0.87155982  0.87354320  0.51787703  1
  V  V12  1  0.49205290  0.86733614  0.37302224  1
  V  V13  1  0.25354132  0.86852322  0.61203225  1
  V  V14  1  0.49685837  0.75463487  0.74666057  1
  V  V15  1  0.88718121  0.46582491  0.40170556  1
  V  V16  1  0.84513751  0.63712665  0.24610630  1
  V  V17  1  0.10482977  0.24834488  0.37959251  1
  V  V18  1  0.37961442  0.62163490  0.25319874  1
  V  V19  1  0.63828487  0.00414115  0.62439165  1
  V  V20  1  0.49294576  0.61872063  0.10341981  1
  V  V21  1  0.63794992  0.88098002  0.74542751  1
  V  V22  1  0.62127830  0.23911085  0.87819046  1
  V  V23  1  0.36774256  0.37474542  0.48428186  1
  V  V24  1  0.51147105  0.62456297  0.61400997  1
  V  V25  1  0.62804162  0.74424877  0.88411775  1
  V  V26  1  0.13613865  0.73893144  0.87953829  1
  V  V27  1  0.76444990  0.49487343  0.75701191  1
  V  V28  1  0.11264722  0.51493620  0.64549805  1
  V  V29  1  0.75158827  0.75236616  0.51730304  1
  V  V30  1  -0.00031093  0.00256301  0.50489004  1
  V  V31  1  0.00908606  0.13219141  0.14392640  1
  V  V32  1  0.76447806  0.36800266  0.61401971  1
  V  V33  1  0.26040679  0.12744868  0.88459910  1
  V  V34  1  0.47767740  -0.00031761  0.00006737  1
  V  V35  1  0.49036903  0.38122173  0.83896720  1
  V  V36  1  -0.01733152  0.74300635  0.75091033  1
  V  V37  1  0.50300408  0.00587610  0.50203456  1
  V  V38  1  -0.00760240  0.87764395  0.36922525  1
  V  V39  1  0.86277811  0.00016952  0.87571347  1
  V  V40  1  0.26341464  0.35731345  0.12275310  1
  V  V41  1  -0.00002357  0.74133208  0.24293661  1
  V  V42  1  0.85733480  0.10869009  0.25264279  1
  V  V43  1  0.61338339  0.49070663  0.12723621  1
  V  V44  1  0.00916096  0.01606023  0.00186414  1
  V  V45  1  0.12825436  0.75693861  0.37981465  1
  V  V46  1  0.88150492  0.24898734  0.60398966  1
  V  V47  1  0.73407615  0.12145062  0.39546983  1
  V  V48  1  0.37497955  0.76026167  0.12858821  1
  V  V49  1  0.48851411  0.13822976  0.63232996  1
  V  V50  1  0.63045817  0.00827280  0.11390272  1
  V  V51  1  0.50161154  0.24750540  0.27053453  1
  V  V52  1  0.63143834  0.49230970  0.61963485  1
  V  V53  1  0.48280571  0.13112637  0.12590347  1
  V  V54  1  0.12661669  0.51270020  0.11906921  1
  V  V55  1  0.12457499  0.23718372  0.90119197  1
  V  V56  1  -0.01197268  0.49823114  0.00833782  1
  V  V57  1  0.24310020  0.37361510  0.62286653  1
  V  V58  1  0.11159862  0.36165677  0.24814109  1
  V  V59  1  0.48148729  0.88093264  0.87671003  1
  V  V60  1  0.12667569  0.87194700  0.75038584  1
  V  V61  1  0.87375573  0.13516304  0.75810473  1
  V  V62  1  0.09381767  0.62548771  0.50633885  1
  V  V63  1  0.00861437  0.88013842  0.88895536  1
  V  V64  1  0.64018883  0.75585033  0.36604411  1
  V  V65  1  0.24719341  0.49655097  0.25655592  1
  V  V66  1  0.37752176  0.01270208  0.37440728  1
  V  V67  1  0.63320253  0.88563565  0.24163639  1
  V  V68  1  0.25776432  0.75515526  0.00691787  1
  V  V69  1  0.52783632  0.40740575  0.37854944  1
  Zn  Zn70  1  0.01759204  0.14822111  0.63443748  1
  Zn  Zn71  1  0.25564997  0.61103337  0.87414669  1
  Zn  Zn72  1  0.63445450  0.62362366  0.48446116  1
  Zn  Zn73  1  0.88290727  0.24931706  0.12926152  1
  Zn  Zn74  1  0.62516543  0.35897881  0.74310412  1
  Zn  Zn75  1  0.88807093  0.76600381  0.08852108  1
  Zn  Zn76  1  0.19571857  0.17729294  0.19582045  1
  Zn  Zn77  1  0.21536892  0.19373954  0.68182661  1
  Zn  Zn78  1  0.18869779  0.69057270  0.19556160  1
  Zn  Zn79  1  0.18804461  0.68592782  0.68914882  1
  Zn  Zn80  1  0.70761191  0.21662280  0.23340304  1
  Zn  Zn81  1  0.69129435  0.17948976  0.68895481  1
  Zn  Zn82  1  0.66604401  0.69412823  0.17953270  1
  Zn  Zn83  1  0.68994999  0.69337273  0.69688140  1
  Zn  Zn84  1  0.31969169  0.31175568  0.30731281  1
  Zn  Zn85  1  0.30693752  0.30405656  0.80114654  1
  Zn  Zn86  1  0.31170399  0.80694662  0.31559908  1
  Zn  Zn87  1  0.31088585  0.80820144  0.80117823  1
  Zn  Zn88  1  0.84033774  0.28042334  0.33875669  1
  Zn  Zn89  1  0.80287796  0.31053474  0.81286339  1
  Zn  Zn90  1  0.81691983  0.82675216  0.30562376  1
  Zn  Zn91  1  0.83546225  0.79084160  0.87616891  1
  Zn  Zn92  1  0.16478193  0.43020650  0.44719187  1
  Zn  Zn93  1  0.18710027  0.41949430  0.94558129  1
  Zn  Zn94  1  0.18829965  0.94090939  0.43727562  1
  Zn  Zn95  1  0.19441486  0.94018396  0.94132398  1
  Zn  Zn96  1  0.71064120  0.44620172  0.43160141  1
  Zn  Zn97  1  0.68161526  0.42602005  0.93454779  1
  Zn  Zn98  1  0.68983661  0.94165509  0.43473523  1
  Zn  Zn99  1  0.66349534  0.94909258  0.92512946  1
  Zn  Zn100  1  0.30853032  0.06041101  0.06469095  1
  Zn  Zn101  1  0.31401024  0.06067722  0.55624683  1
  Zn  Zn102  1  0.29988825  0.56783266  0.06209042  1
  Zn  Zn103  1  0.31276939  0.54476475  0.57214985  1
  Zn  Zn104  1  0.81988853  0.06240127  0.06044816  1
  Zn  Zn105  1  0.81700342  0.06852445  0.56180213  1
  Zn  Zn106  1  0.82738001  0.56412321  0.09106504  1
  Zn  Zn107  1  0.81772995  0.56414422  0.56523676  1
  Zn  Zn108  1  0.44101328  0.43367691  0.19968784  1
  Zn  Zn109  1  0.43155196  0.43297214  0.65900459  1
  Zn  Zn110  1  0.44159974  0.94237368  0.19510809  1
  Zn  Zn111  1  0.43793638  0.93733955  0.68214247  1
  Zn  Zn112  1  0.95131074  0.47122399  0.22120843  1
  Zn  Zn113  1  0.94384163  0.43291363  0.69250865  1
  Zn  Zn114  1  0.93143221  0.93559128  0.18137110  1
  Zn  Zn115  1  0.93668474  0.93544989  0.69809923  1
  Zn  Zn116  1  0.06591268  0.05898084  0.31454397  1
  Zn  Zn117  1  0.06385769  0.06812031  0.80549001  1
  Zn  Zn118  1  0.06191729  0.56294514  0.31855289  1
  Zn  Zn119  1  0.04696490  0.56052614  0.82444110  1
  Zn  Zn120  1  0.56526715  0.06655085  0.30429421  1
  Zn  Zn121  1  0.55332723  0.06295284  0.80509051  1
  Zn  Zn122  1  0.57893325  0.56899604  0.30137268  1
  Zn  Zn123  1  0.56442658  0.55906594  0.80754263  1
  Zn  Zn124  1  0.43531639  0.19137100  0.45064423  1
  Zn  Zn125  1  0.45289005  0.18395633  0.92256620  1
  Zn  Zn126  1  0.44146383  0.68349057  0.43110401  1
  Zn  Zn127  1  0.43448446  0.69182778  0.93346504  1
  Zn  Zn128  1  0.93697617  0.17197256  0.43234027  1
  Zn  Zn129  1  0.92966547  0.19106345  0.94443607  1
  Zn  Zn130  1  0.92305518  0.69163792  0.42685393  1
  Zn  Zn131  1  0.96346554  0.68563140  0.94493462  1
  Zn  Zn132  1  0.06899300  0.31643036  0.06990302  1
  Zn  Zn133  1  0.06922060  0.32265598  0.56213388  1
  Zn  Zn134  1  0.07658113  0.81005228  0.06445297  1
  Zn  Zn135  1  0.05625705  0.80809805  0.56651456  1
  Zn  Zn136  1  0.60618859  0.27619963  0.10310755  1
  Zn  Zn137  1  0.56669130  0.30400332  0.53792713  1
  Zn  Zn138  1  0.55002977  0.81447522  0.06158024  1
  Zn  Zn139  1  0.56553250  0.82059843  0.55547308  1
  O  O140  1  0.11461771  0.11216608  0.13750923  1
  O  O141  1  0.13181298  0.11013342  0.63013225  1
  O  O142  1  0.13133074  0.61227233  0.12988536  1
  O  O143  1  0.12350177  0.62605707  0.61517196  1
  O  O144  1  0.60485683  0.10627878  0.11773051  1
  O  O145  1  0.61405120  0.10761661  0.63313267  1
  O  O146  1  0.59681989  0.62533276  0.12241730  1
  O  O147  1  0.61581676  0.63460837  0.62196699  1
  O  O148  1  0.36226406  0.39171831  0.38446093  1
  O  O149  1  0.38957838  0.36348246  0.84816558  1
  O  O150  1  0.38763143  0.87545889  0.37148629  1
  O  O151  1  0.38274822  0.87208911  0.86495985  1
  O  O152  1  0.88903771  0.36304592  0.39529633  1
  O  O153  1  0.89115510  0.36247552  0.87504788  1
  O  O154  1  0.88997660  0.87678645  0.38427874  1
  O  O155  1  0.90158773  0.89275695  0.87830534  1
  O  O156  1  0.25974713  0.00167037  0.37175737  1
  O  O157  1  0.24702186  0.00820131  0.86388831  1
  O  O158  1  0.23300869  0.51080697  0.36721682  1
  O  O159  1  0.27801507  0.49412762  0.90893843  1
  O  O160  1  0.75360752  0.01858356  0.38256323  1
  O  O161  1  0.76580672  -0.01481155  0.89495441  1
  O  O162  1  0.79302379  0.48609653  0.36534868  1
  O  O163  1  0.73509088  0.49529009  0.85326404  1
  O  O164  1  0.24142549  0.49778086  0.13900136  1
  O  O165  1  0.22514497  0.48701271  0.62453044  1
  O  O166  1  0.24138926  1.00341323  0.14008018  1
  O  O167  1  0.24325359  0.98974100  0.62930926  1
  O  O168  1  0.71757145  0.51081467  0.08362834  1
  O  O169  1  0.75216082  0.48441291  0.63083461  1
  O  O170  1  0.72992114  1.00271470  0.10153232  1
  O  O171  1  0.73735285  1.00423735  0.61868617  1
  O  O172  1  0.01270721  0.37274636  0.23599531  1
  O  O173  1  0.01457235  0.38224822  0.77386029  1
  O  O174  1  -0.00087870  0.87472012  0.26635599  1
  O  O175  1  0.01344502  0.87208369  0.76306992  1
  O  O176  1  0.49714413  0.37198359  0.28067993  1
  O  O177  1  0.50459433  0.37853486  0.73460097  1
  O  O178  1  0.51034328  0.88319724  0.26781033  1
  O  O179  1  0.49711905  0.86863939  0.75464831  1
  O  O180  1  0.50014954  0.13482359  0.23607328  1
  O  O181  1  0.48888264  0.12340253  0.73302940  1
  O  O182  1  0.48023022  0.62157679  0.25376894  1
  O  O183  1  0.49469543  0.63664407  0.73384109  1
  O  O184  1  0.99756241  0.12227583  0.24590036  1
  O  O185  1  0.98370255  0.11111939  0.73847817  1
  O  O186  1  1.00136810  0.64030185  0.24922357  1
  O  O187  1  0.98781270  0.64402484  0.77558240  1
  O  O188  1  0.39985998  0.29618504  0.00192697  1
  O  O189  1  0.37476718  0.27385255  0.49955823  1
  O  O190  1  0.36821453  0.75216000  0.01288323  1
  O  O191  1  0.37716944  0.74677622  0.50886512  1
  O  O192  1  0.86192787  0.24767709  0.01690979  1
  O  O193  1  0.87587335  0.24235488  0.50556349  1
  O  O194  1  0.88168855  0.75208147  -0.02582063  1
  O  O195  1  0.86468688  0.76300134  0.49941993  1
  O  O196  1  0.11493941  0.25256799  0.47870527  1
  O  O197  1  0.13065347  0.24309210  0.99984383  1
  O  O198  1  0.11701255  0.73788146  0.49164066  1
  O  O199  1  0.13488543  0.74868575  0.98705550  1
  O  O200  1  0.65501213  0.26740681  0.48033970  1
  O  O201  1  0.63250738  0.24826765  0.98858973  1
  O  O202  1  0.64030028  0.76001608  0.48808315  1
  O  O203  1  0.60780918  0.75296834  0.98353319  1
  O  O204  1  0.49698344  0.22837349  0.10323702  1
  O  O205  1  0.51345327  0.23552460  0.61221007  1
  O  O206  1  0.48148289  0.73399970  0.11953988  1
  O  O207  1  0.49138917  0.74894744  0.62455233  1
  O  O208  1  1.00496022  0.23434767  0.12279533  1
  O  O209  1  0.98881926  0.25882920  0.61630739  1
  O  O210  1  1.00765528  0.76023448  0.14030161  1
  O  O211  1  0.99943258  0.75407486  0.65040362  1
  O  O212  1  0.00569648  0.23852530  0.36756015  1
  O  O213  1  0.01285167  0.25720529  0.89067719  1
  O  O214  1  0.00760677  0.76119044  0.36963050  1
  O  O215  1  0.02033939  0.76430198  0.87269777  1
  O  O216  1  0.50970453  0.23344992  0.36988838  1
  O  O217  1  0.51173661  0.26679698  0.87594740  1
  O  O218  1  0.50979227  0.76463514  0.38282207  1
  O  O219  1  0.50109259  0.76189754  0.86408731  1
  O  O220  1  0.24788930  0.11609458  0.48039505  1
  O  O221  1  0.24925451  0.11301106  0.98369701  1
  O  O222  1  0.26306277  0.61255187  0.48763662  1
  O  O223  1  0.25813523  0.64434181  0.98736357  1
  O  O224  1  0.75082715  0.13346057  0.49563535  1
  O  O225  1  0.75605840  0.13696931  0.99742853  1
  O  O226  1  0.75463394  0.64739514  0.50597107  1
  O  O227  1  0.77966209  0.61635970  0.95764964  1
  O  O228  1  0.25050526  0.36388770  0.02222816  1
  O  O229  1  0.25727795  0.38779278  0.50898673  1
  O  O230  1  0.24790361  0.85643740  -0.00304343  1
  O  O231  1  0.24890578  0.87680643  0.51354632  1
  O  O232  1  0.75208510  0.35290283  -0.01511374  1
  O  O233  1  0.75424815  0.37420323  0.51503849  1
  O  O234  1  0.74014497  0.83194009  0.07081480  1
  O  O235  1  0.76608455  0.87340389  0.49670615  1
  O  O236  1  0.13025720  0.49268997  0.24487470  1
  O  O237  1  0.12463662  0.52245192  0.74639060  1
  O  O238  1  0.13595774  0.99553332  0.24591147  1
  O  O239  1  0.13017418  0.98928166  0.73758692  1
  O  O240  1  0.63476301  0.50445327  0.22591698  1
  O  O241  1  0.64306612  0.51527851  0.72633478  1
  O  O242  1  0.61887333  0.99299552  0.23123761  1
  O  O243  1  0.61904691  0.99034246  0.74035429  1
  O  O244  1  0.36586131  -0.00304941  0.26561810  1
  O  O245  1  0.36054996  -0.00252788  0.74341862  1
  O  O246  1  0.35848856  0.51210679  0.25147073  1
  O  O247  1  0.38343486  0.51669502  0.73006662  1
  O  O248  1  0.88611102  0.00995998  0.25257413  1
  O  O249  1  0.87621168  -0.00005806  0.77119287  1
  O  O250  1  0.86029945  0.53724049  0.20696245  1
  O  O251  1  0.86526838  0.48965961  0.75557162  1
  O  O252  1  0.12911672  0.35954710  0.35696771  1
  O  O253  1  0.12619807  0.35435189  0.87148768  1
  O  O254  1  0.11966112  0.86062848  0.38771075  1
  O  O255  1  0.12528486  0.87210335  0.86803337  1
  O  O256  1  0.62695443  0.38997938  0.38029758  1
  O  O257  1  0.60861015  0.36830348  0.86470963  1
  O  O258  1  0.62038925  0.87378526  0.36480346  1
  O  O259  1  0.60865524  0.87128429  0.85946637  1
  O  O260  1  0.38222256  0.12034236  0.12615665  1
  O  O261  1  0.38917107  0.12780266  0.60724694  1
  O  O262  1  0.37897784  0.62363297  0.13458722  1
  O  O263  1  0.38393039  0.63529919  0.62519956  1
  O  O264  1  0.89503006  0.11536602  0.13359739  1
  O  O265  1  0.87885280  0.14255319  0.63086719  1
  O  O266  1  0.85491265  0.66702193  0.13240038  1
  O  O267  1  0.83421653  0.62449462  0.66901244  1
  O  O268  1  0.25673636  0.25821654  0.14381441  1
  O  O269  1  0.19995989  0.28038830  0.60752913  1
  O  O270  1  0.25744237  0.74416444  0.11603822  1
  O  O271  1  0.26051481  0.75827750  0.62621418  1
  O  O272  1  0.72691583  0.24790866  0.11523989  1
  O  O273  1  0.76360856  0.26062998  0.63059752  1
  O  O274  1  0.72935801  0.75955858  0.08401415  1
  O  O275  1  0.74138037  0.76137580  0.61559193  1
  O  O276  1  0.25083924  0.23777272  0.36732523  1
  O  O277  1  0.23494409  0.23663289  0.87418252  1
  O  O278  1  0.23557873  0.73651186  0.37410757  1
  O  O279  1  0.24363924  0.75167313  0.87810341  1
  O  O280  1  0.73962930  0.22560746  0.34627463  1
  O  O281  1  0.73766322  0.25708910  0.89050036  1
  O  O282  1  0.74159514  0.76383147  0.37606908  1
  O  O283  1  0.72706806  0.76393969  0.87567954  1
  O  O284  1  0.00730239  0.11721489  0.00856176  1
  O  O285  1  -0.00176534  0.10522259  0.50721311  1
  O  O286  1  0.00723895  0.59840331  -0.00692536  1
  O  O287  1  -0.00498721  0.63064258  0.49689542  1
  O  O288  1  0.48598820  0.10606435  0.00132894  1
  O  O289  1  0.50390072  0.10988358  0.50071205  1
  O  O290  1  0.48369592  0.61455770  0.00456320  1
  O  O291  1  0.50709676  0.63197408  0.51050945  1
  O  O292  1  0.49322293  0.37127093  0.47398655  1
  O  O293  1  0.43415495  0.36033885  0.99769789  1
  O  O294  1  0.50571258  0.89053047  0.48262758  1
  O  O295  1  0.49052600  0.87825381  0.98303876  1
  O  O296  1  1.05551927  0.40523836  0.48552869  1
  O  O297  1  1.00620010  0.38064251  0.99621427  1
  O  O298  1  0.98975234  0.87691807  0.49663286  1
  O  O299  1  1.01562288  0.88150608  0.99174941  1
  O  O300  1  0.51576035  0.50766809  0.37713345  1
  O  O301  1  0.50181715  0.48098680  0.86263087  1
  O  O302  1  0.48973574  1.00024276  0.37796478  1
  O  O303  1  0.49781466  0.98971438  0.88279000  1
  O  O304  1  0.96876472  0.49917525  0.33875521  1
  O  O305  1  1.00547454  0.48098436  0.89475116  1
  O  O306  1  1.01690057  0.98584947  0.39365351  1
  O  O307  1  1.02014253  0.99338882  0.88948821  1
  O  O308  1  0.01248924  0.00372397  0.11727419  1
  O  O309  1  0.01636720  -0.01067420  0.61931083  1
  O  O310  1  0.01752949  0.49204283  0.11931360  1
  O  O311  1  0.01200295  0.50513477  0.63441696  1
  O  O312  1  0.49514235  0.00281292  0.11297865  1
  O  O313  1  0.49756888  0.00492189  0.61071097  1
  O  O314  1  0.49944558  0.51102189  0.12894266  1
  O  O315  1  0.52252217  0.51549396  0.62515144  1
  O  O316  1  0.24611390  0.38841745  0.25023820  1
  O  O317  1  0.22410695  0.37592484  0.74859727  1
  O  O318  1  0.25155986  0.88813340  0.26031190  1
  O  O319  1  0.24339893  0.88438973  0.74251483  1
  O  O320  1  0.78068443  0.38943347  0.17607665  1
  O  O321  1  0.74619367  0.38286653  0.73827633  1
  O  O322  1  0.73420717  0.87956381  0.24654560  1
  O  O323  1  0.73348502  0.87616940  0.75150825  1
  O  O324  1  0.24978054  0.10541294  0.26920415  1
  O  O325  1  0.24183329  0.10720884  0.75682768  1
  O  O326  1  0.25099563  0.61392718  0.26161362  1
  O  O327  1  0.26638663  0.62742693  0.75044926  1
  O  O328  1  0.75751454  0.10579425  0.23490846  1
  O  O329  1  0.77446183  0.11768447  0.74272612  1
  O  O330  1  0.74464655  0.64769871  0.24590875  1
  O  O331  1  0.77206077  0.61196641  0.72205995  1
  O  O332  1  0.36849833  0.11587288  0.37910249  1
  O  O333  1  0.35998838  0.13909510  0.87401165  1
  O  O334  1  0.36067590  0.63369425  0.36451699  1
  O  O335  1  0.38159625  0.62734318  0.85375632  1
  O  O336  1  0.86021242  0.12846682  0.36054574  1
  O  O337  1  0.88263782  0.11234952  0.86974909  1
  O  O338  1  0.86813178  0.63320586  0.34727559  1
  O  O339  1  0.82712384  0.61651277  0.90157394  1
  O  O340  1  0.14135838  0.37925288  0.13898698  1
  O  O341  1  0.11348775  0.39364575  0.65031358  1
  O  O342  1  0.12788712  0.88731384  0.13181126  1
  O  O343  1  0.13830126  0.87291824  0.63152573  1
  O  O344  1  0.60080950  0.39332195  0.11055562  1
  O  O345  1  0.63209044  0.38610979  0.62038084  1
  O  O346  1  0.60971239  0.87746237  0.13755097  1
  O  O347  1  0.61693289  0.88768440  0.63574822  1
  O  O348  1  0.12550519  0.25799116  0.25168173  1
  O  O349  1  0.11830199  0.25133012  0.74741494  1
  O  O350  1  0.11548745  0.74609637  0.26885692  1
  O  O351  1  0.12700980  0.75771407  0.76100180  1
  O  O352  1  0.59873551  0.25983637  0.22411509  1
  O  O353  1  0.64218560  0.24661868  0.76795127  1
  O  O354  1  0.62280158  0.76735717  0.25902934  1
  O  O355  1  0.61383191  0.76372871  0.74950619  1
  O  O356  1  0.40151562  0.25797739  0.24928711  1
  O  O357  1  0.31985276  0.22705080  0.71855744  1
  O  O358  1  0.35938083  0.73269180  0.23742023  1
  O  O359  1  0.38332610  0.74239502  0.73579080  1
  O  O360  1  0.86280917  0.22800667  0.23773063  1
  O  O361  1  0.87772238  0.23763393  0.75889029  1
  O  O362  1  0.89145346  0.75184796  0.25394931  1
  O  O363  1  0.88691360  0.76677767  0.77271494  1
  O  O364  1  0.39091179  0.46242485  0.54792088  1
  O  O365  1  0.33372177  0.49582200  0.96637296  1
  O  O366  1  0.38657100  0.99605772  0.48491167  1
  O  O367  1  0.37832822  0.98790076  1.00408700  1
  O  O368  1  0.88540185  0.50242946  0.49840176  1
  O  O369  1  0.88848198  0.49524027  1.02134303  1
  O  O370  1  0.89134550  0.98986716  0.51051620  1
  O  O371  1  0.90018460  1.00601787  0.98808307  1
  O  O372  1  0.12330334  -0.00192862  0.01731546  1
  O  O373  1  0.11829548  -0.00874481  0.51543359  1
  O  O374  1  0.13218871  0.49455518  0.01687748  1
  O  O375  1  0.12061220  0.52508303  0.50859001  1
  O  O376  1  0.60111086  -0.01603101  0.01052133  1
  O  O377  1  0.61469417  -0.00736979  0.51380855  1
  O  O378  1  0.66018438  0.51512002  0.01929885  1
  O  O379  1  0.65030284  0.51257702  0.51626900  1
  O  O380  1  0.36094006  0.38421282  0.13742296  1
  O  O381  1  0.33928631  0.35508728  0.64889016  1
  O  O382  1  0.38129120  0.85807139  0.13973448  1
  O  O383  1  0.36452124  0.86268688  0.62579214  1
  O  O384  1  0.84918237  0.37899821  0.14971387  1
  O  O385  1  0.87251627  0.36298688  0.62817590  1
  O  O386  1  0.87165335  0.87284793  0.11411544  1
  O  O387  1  0.87815446  0.87664446  0.61748359  1
  O  O388  1  0.13262033  0.13758637  0.36897474  1
  O  O389  1  0.12678928  0.13483873  0.87505068  1
  O  O390  1  0.12891589  0.63065563  0.39106734  1
  O  O391  1  0.13206561  0.63736162  0.86823779  1
  O  O392  1  0.63216404  0.11514615  0.37960466  1
  O  O393  1  0.60701971  0.13769843  0.87431474  1
  O  O394  1  0.62115189  0.65065886  0.37092690  1
  O  O395  1  0.61860827  0.64524714  0.85955741  1
