# generated using pymatgen
data_V35Zn35O128
_symmetry_space_group_name_H-M   'P 1'
_cell_length_a   16.82447634
_cell_length_b   16.82462007
_cell_length_c   16.84836813
_cell_angle_alpha   90.00909442
_cell_angle_beta   90.07011556
_cell_angle_gamma   90.03025111
_symmetry_Int_Tables_number   1
_chemical_formula_structural   V35Zn35O128
_chemical_formula_sum   'V70 Zn70 O256'
_cell_volume   4769.18614287
_cell_formula_units_Z   2
loop_
 _symmetry_equiv_pos_site_id
 _symmetry_equiv_pos_as_xyz
  1  'x, y, z'
loop_
 _atom_site_type_symbol
 _atom_site_label
 _atom_site_symmetry_multiplicity
 _atom_site_fract_x
 _atom_site_fract_y
 _atom_site_fract_z
 _atom_site_occupancy
  V  V0  1  0.49903504  0.24944691  0.25413206  1
  V  V1  1  -0.03571888  0.63627991  0.12299785  1
  V  V2  1  0.86604462  0.11663717  0.75917345  1
  V  V3  1  0.24833450  0.00648753  0.74320060  1
  V  V4  1  -0.01106168  0.48569516  0.00171356  1
  V  V5  1  0.23041879  0.37132366  0.12867590  1
  V  V6  1  0.87473190  0.49225254  0.86264901  1
  V  V7  1  0.71757991  0.87779115  0.14951073  1
  V  V8  1  0.36567405  0.12089829  0.25658128  1
  V  V9  1  0.00722863  0.62707548  0.63455861  1
  V  V10  1  0.88306400  0.24843764  0.64167983  1
  V  V11  1  0.01442800  0.00303697  0.01215448  1
  V  V12  1  0.63274971  0.37876203  0.25913720  1
  V  V13  1  0.24566168  0.12577789  0.88282095  1
  V  V14  1  0.37006663  0.48953843  0.89378905  1
  V  V15  1  0.64147212  0.24518552  0.38193258  1
  V  V16  1  0.88392606  0.74961198  0.63220336  1
  V  V17  1  0.12341660  0.74243801  0.87055020  1
  V  V18  1  0.62969826  0.15820434  -0.00914386  1
  V  V19  1  0.11796735  0.63200145  0.49271242  1
  V  V20  1  0.12316094  0.77384259  0.36901831  1
  V  V21  1  0.37190764  0.60316514  0.74644824  1
  V  V22  1  0.10559716  0.25681178  0.86603182  1
  V  V23  1  0.48091742  0.37823080  0.38698290  1
  V  V24  1  0.37760301  0.25996049  0.11207286  1
  V  V25  1  0.50975957  -0.00758899  -0.00183605  1
  V  V26  1  0.38039815  0.76024570  0.63488793  1
  V  V27  1  0.87200577  0.23977359  0.11036607  1
  V  V28  1  0.36970595  0.88560999  0.49837984  1
  V  V29  1  0.38605504  0.73631849  0.14091425  1
  V  V30  1  0.36779887  0.87085795  0.00110341  1
  V  V31  1  0.64412033  0.74919858  0.38662927  1
  V  V32  1  0.75428737  0.37014293  0.12130771  1
  V  V33  1  0.25000879  0.52398546  0.25023837  1
  V  V34  1  0.25920012  0.35498789  0.61829713  1
  V  V35  1  0.85936935  -0.00125414  0.87979160  1
  V  V36  1  0.62120953  0.73347021  0.88412267  1
  V  V37  1  0.49082051  0.24791269  0.74869744  1
  V  V38  1  0.61920852  0.85263786  0.74739333  1
  V  V39  1  0.63460795  0.61241483  0.50507825  1
  V  V40  1  0.88463986  0.52605535  0.37906076  1
  V  V41  1  0.87796298  0.01085015  0.37595574  1
  V  V42  1  0.48236932  0.12917400  0.62585109  1
  V  V43  1  0.25564505  -0.02058939  0.24378887  1
  V  V44  1  0.49604164  0.60760839  0.61529702  1
  V  V45  1  0.50175893  0.37840442  0.87854434  1
  V  V46  1  0.50422586  0.86926712  0.37044639  1
  V  V47  1  0.23980249  0.25715792  -0.00483194  1
  V  V48  1  0.90089961  0.88518878  0.49682999  1
  V  V49  1  -0.02899476  0.75759863  0.25055971  1
  V  V50  1  0.50348730  0.12346873  0.12002699  1
  V  V51  1  0.75253209  0.37919571  0.63197951  1
  V  V52  1  0.00714390  0.10236589  0.63145845  1
  V  V53  1  0.75098033  0.86805318  0.61722428  1
  V  V54  1  0.12356373  0.39160190  0.73962018  1
  V  V55  1  0.76219076  0.50673020  0.26101671  1
  V  V56  1  0.86196825  0.85892104  0.00406936  1
  V  V57  1  0.87429189  0.35466801  0.49076061  1
  V  V58  1  0.75328723  0.61726466  0.83729316  1
  V  V59  1  0.13040066  0.88116590  0.74374704  1
  V  V60  1  0.25084788  0.73820379  -0.00545763  1
  V  V61  1  0.89665413  0.12490586  0.24491441  1
  V  V62  1  0.00138198  0.87508780  0.87335646  1
  V  V63  1  0.25180601  0.75010986  0.50035384  1
  V  V64  1  0.63547020  0.00612458  0.63802560  1
  V  V65  1  0.38034445  0.00275016  0.87189558  1
  V  V66  1  0.50259168  0.00137287  0.49643842  1
  V  V67  1  0.64362380  0.12760431  0.50144559  1
  V  V68  1  0.12039247  0.52692890  0.11959257  1
  V  V69  1  0.62295706  0.38226292  0.73930656  1
  Zn  Zn70  1  0.24204856  0.61001472  0.86362290  1
  Zn  Zn71  1  0.11477384  0.12341775  0.50276258  1
  Zn  Zn72  1  0.56062011  0.79524986  0.21704687  1
  Zn  Zn73  1  0.01805298  0.48419815  0.49516139  1
  Zn  Zn74  1  0.09438839  0.91198740  0.17955499  1
  Zn  Zn75  1  0.02787544  0.36051682  0.35810724  1
  Zn  Zn76  1  0.16424694  0.09621096  0.15756300  1
  Zn  Zn77  1  0.18737370  0.18829283  0.69162760  1
  Zn  Zn78  1  0.18133962  0.72512129  0.17063717  1
  Zn  Zn79  1  0.19294580  0.69512728  0.68458409  1
  Zn  Zn80  1  0.68319519  0.19162242  0.18151353  1
  Zn  Zn81  1  0.68962535  0.19905883  0.69421749  1
  Zn  Zn82  1  0.73881826  0.71083723  0.21422261  1
  Zn  Zn83  1  0.69056753  0.68067715  0.66844022  1
  Zn  Zn84  1  0.30396689  0.30772246  0.30554646  1
  Zn  Zn85  1  0.31083172  0.31507287  0.80350906  1
  Zn  Zn86  1  0.31506485  0.81173760  0.31565768  1
  Zn  Zn87  1  0.31249635  0.81866475  0.81620877  1
  Zn  Zn88  1  0.82164496  0.30591789  0.31033762  1
  Zn  Zn89  1  0.81722583  0.30398737  0.81430485  1
  Zn  Zn90  1  0.80648614  0.83603160  0.32672515  1
  Zn  Zn91  1  0.80125330  0.81339193  0.81012954  1
  Zn  Zn92  1  0.19186634  0.44144050  0.43756884  1
  Zn  Zn93  1  0.17785450  0.43524766  0.94053774  1
  Zn  Zn94  1  0.18992354  0.95453055  0.43579848  1
  Zn  Zn95  1  0.18840353  0.93422491  0.93794927  1
  Zn  Zn96  1  0.69819226  0.43379173  0.44188538  1
  Zn  Zn97  1  0.71461676  0.40097654  0.91146245  1
  Zn  Zn98  1  0.68979175  0.94300336  0.43396682  1
  Zn  Zn99  1  0.68323582  0.92481012  0.92942723  1
  Zn  Zn100  1  0.31765665  0.06413398  0.06307375  1
  Zn  Zn101  1  0.29639535  0.06544189  0.54826275  1
  Zn  Zn102  1  0.31580085  0.56180619  0.06691579  1
  Zn  Zn103  1  0.30472608  0.56635147  0.56370385  1
  Zn  Zn104  1  0.79944049  0.05468080  0.06225808  1
  Zn  Zn105  1  0.81925387  0.06061966  0.56807420  1
  Zn  Zn106  1  0.80581911  0.54209707  0.06623119  1
  Zn  Zn107  1  0.82277269  0.55977335  0.56383739  1
  Zn  Zn108  1  0.43277046  0.44700062  0.18659296  1
  Zn  Zn109  1  0.42897674  0.42662223  0.67561244  1
  Zn  Zn110  1  0.43685329  0.93594107  0.17949468  1
  Zn  Zn111  1  0.44076374  0.94232173  0.68821506  1
  Zn  Zn112  1  0.94305844  0.42825107  0.19355508  1
  Zn  Zn113  1  0.94595004  0.44122665  0.67980729  1
  Zn  Zn114  1  0.92001871  0.93911228  0.18334572  1
  Zn  Zn115  1  0.93489187  0.93375408  0.69651267  1
  Zn  Zn116  1  0.06482532  0.05348986  0.30946417  1
  Zn  Zn117  1  0.05821290  0.06436861  0.81648280  1
  Zn  Zn118  1  0.06479570  0.57749152  0.30537558  1
  Zn  Zn119  1  0.05668777  0.55428954  0.81262918  1
  Zn  Zn120  1  0.55946552  0.06704612  0.31529725  1
  Zn  Zn121  1  0.56651211  0.07353333  0.81574825  1
  Zn  Zn122  1  0.57314436  0.55289456  0.33980556  1
  Zn  Zn123  1  0.55684887  0.56097661  0.80534726  1
  Zn  Zn124  1  0.44655524  0.18276622  0.43362078  1
  Zn  Zn125  1  0.44232735  0.18642149  0.93150571  1
  Zn  Zn126  1  0.44847413  0.69767550  0.44735691  1
  Zn  Zn127  1  0.44223696  0.67648487  0.93439564  1
  Zn  Zn128  1  0.93579949  0.17543606  0.44708759  1
  Zn  Zn129  1  0.93788129  0.18249366  0.94685135  1
  Zn  Zn130  1  0.93887092  0.70648809  0.44010496  1
  Zn  Zn131  1  0.93471957  0.67754746  0.92944950  1
  Zn  Zn132  1  0.05949704  0.27792326  0.18348624  1
  Zn  Zn133  1  0.07067923  0.32442302  0.55170605  1
  Zn  Zn134  1  0.04830502  0.79980606  0.05213526  1
  Zn  Zn135  1  0.06622258  0.81479559  0.56704765  1
  Zn  Zn136  1  0.55539414  0.34275452  0.07505226  1
  Zn  Zn137  1  0.56208238  0.31213675  0.56231864  1
  Zn  Zn138  1  0.55980966  0.80753236  0.05088412  1
  Zn  Zn139  1  0.56106847  0.81036900  0.56266420  1
  O  O140  1  0.13086002  0.19702441  0.16710971  1
  O  O141  1  0.10860536  0.12722296  0.63104755  1
  O  O142  1  0.12834305  0.62571766  0.11502891  1
  O  O143  1  0.11381172  0.64605365  0.61470897  1
  O  O144  1  0.60756356  0.13503900  0.11427505  1
  O  O145  1  0.62728282  0.11794618  0.61682008  1
  O  O146  1  0.55556512  0.58437877  0.16163674  1
  O  O147  1  0.60479245  0.62133330  0.61761243  1
  O  O148  1  0.38167693  0.36061975  0.37062413  1
  O  O149  1  0.38237069  0.38447658  0.86632963  1
  O  O150  1  0.38989744  0.87182049  0.39004505  1
  O  O151  1  0.37257054  0.89271845  0.88475353  1
  O  O152  1  0.89081775  0.35655242  0.38842864  1
  O  O153  1  0.87135979  0.39166600  0.87109897  1
  O  O154  1  0.88709041  0.88507757  0.39111594  1
  O  O155  1  0.87969744  0.88362161  0.87234499  1
  O  O156  1  0.25247123  -0.00862507  0.34392009  1
  O  O157  1  0.25674924  0.01327019  0.87828351  1
  O  O158  1  0.22980859  0.49886076  0.34745026  1
  O  O159  1  0.26296312  0.49538864  0.88381093  1
  O  O160  1  0.77344595  -0.00804548  0.37628518  1
  O  O161  1  0.76023030  -0.00283865  0.87850853  1
  O  O162  1  0.76970192  0.49383110  0.36992792  1
  O  O163  1  0.75958130  0.50799295  0.87450046  1
  O  O164  1  0.23364633  0.49122429  0.12071537  1
  O  O165  1  0.26040911  0.47535268  0.60650652  1
  O  O166  1  0.24175658  1.01737736  0.13277426  1
  O  O167  1  0.25907389  1.00791171  0.64600093  1
  O  O168  1  0.76045692  0.48044813  0.15318009  1
  O  O169  1  0.76958686  0.47884148  0.62877038  1
  O  O170  1  0.73982910  0.96965867  0.10870459  1
  O  O171  1  0.73901538  0.99447626  0.62570597  1
  O  O172  1  0.00875867  0.35374701  0.24979370  1
  O  O173  1  0.02137876  0.38130315  0.74242770  1
  O  O174  1  -0.00587525  0.85864968  0.23551985  1
  O  O175  1  0.01605834  0.88281802  0.76283006  1
  O  O176  1  0.51509713  0.36356501  0.26325592  1
  O  O177  1  0.50444699  0.36324928  0.73983735  1
  O  O178  1  0.49725094  0.88531687  0.26705092  1
  O  O179  1  0.52188144  0.88228628  0.74200042  1
  O  O180  1  0.49802532  0.13141982  0.24085925  1
  O  O181  1  0.50342463  0.13362412  0.73581249  1
  O  O182  1  0.52463464  0.60440086  0.22570299  1
  O  O183  1  0.48194484  0.61891144  0.73187414  1
  O  O184  1  0.99602126  0.12953305  0.24397441  1
  O  O185  1  0.98639333  0.11762272  0.74232644  1
  O  O186  1  1.00029470  0.64580381  0.23361441  1
  O  O187  1  1.00772479  0.62515851  0.73413676  1
  O  O188  1  0.37857882  0.24861374  0.00976095  1
  O  O189  1  0.34913540  0.23469254  0.48758066  1
  O  O190  1  0.37156149  0.76203373  -0.01846556  1
  O  O191  1  0.36570507  0.76083616  0.50293639  1
  O  O192  1  0.85802416  0.23194760  0.01058749  1
  O  O193  1  0.87268619  0.25219508  0.51432413  1
  O  O194  1  0.88098368  0.76141840  -0.01267855  1
  O  O195  1  0.88270443  0.77756369  0.51190626  1
  O  O196  1  0.08701358  0.23700548  0.47379752  1
  O  O197  1  0.14056054  0.25170439  0.98184630  1
  O  O198  1  0.13685823  0.75702349  0.49559441  1
  O  O199  1  0.14165983  0.74902047  0.98298744  1
  O  O200  1  0.62638213  0.23769008  0.49376711  1
  O  O201  1  0.61400912  0.25612982  1.01085134  1
  O  O202  1  0.61899626  0.73884239  0.49408292  1
  O  O203  1  0.62719820  0.74483471  0.98372771  1
  O  O204  1  0.49159675  0.25083244  0.13435740  1
  O  O205  1  0.49879988  0.23475205  0.62553977  1
  O  O206  1  0.49187570  0.75377916  0.13090325  1
  O  O207  1  0.48254526  0.74006684  0.61501165  1
  O  O208  1  0.97124421  0.24674871  0.11530978  1
  O  O209  1  0.98315043  0.24654768  0.62521708  1
  O  O210  1  0.97662098  0.74263840  0.13202046  1
  O  O211  1  0.99126487  0.74914608  0.62701972  1
  O  O212  1  0.02792669  0.24307218  0.41355636  1
  O  O213  1  0.00767223  0.24617427  0.88188300  1
  O  O214  1  0.00904030  0.75399685  0.35663254  1
  O  O215  1  0.01594115  0.75543613  0.88032482  1
  O  O216  1  0.50916836  0.25443102  0.36859256  1
  O  O217  1  0.49390698  0.26232953  0.85882800  1
  O  O218  1  0.50447173  0.76371542  0.37273158  1
  O  O219  1  0.52114720  0.72848745  0.86696674  1
  O  O220  1  0.29115190  0.18654709  0.49441808  1
  O  O221  1  0.25453296  0.13790636  0.99098129  1
  O  O222  1  0.23963718  0.64551320  0.50500129  1
  O  O223  1  0.26227278  0.63530466  0.98668235  1
  O  O224  1  0.74212733  0.12157409  0.50289173  1
  O  O225  1  0.72448829  0.12703042  1.01214105  1
  O  O226  1  0.73279635  0.62437428  0.52756950  1
  O  O227  1  0.69731680  0.60174759  1.04111202  1
  O  O228  1  0.24877571  0.36420003  0.00714410  1
  O  O229  1  0.25338117  0.38456221  0.51337428  1
  O  O230  1  0.26259399  0.86617084  -0.00442167  1
  O  O231  1  0.26626868  0.87768263  0.49837030  1
  O  O232  1  0.73425602  0.39756962  0.02696724  1
  O  O233  1  0.76882335  0.37443202  0.51370080  1
  O  O234  1  0.76181614  0.86496023  -0.01546464  1
  O  O235  1  0.74790750  0.88230600  0.51612180  1
  O  O236  1  0.12545738  0.50976640  0.22578988  1
  O  O237  1  0.13537569  0.49143957  0.75905770  1
  O  O238  1  0.13721082  1.00123864  0.23721720  1
  O  O239  1  0.13734314  0.99418959  0.75982018  1
  O  O240  1  0.64172343  0.48344083  0.27190826  1
  O  O241  1  0.61012453  0.48222187  0.73436673  1
  O  O242  1  0.65715467  1.03647087  0.25001428  1
  O  O243  1  0.62351240  1.00617845  0.73857096  1
  O  O244  1  0.36703715  0.01135003  0.23403921  1
  O  O245  1  0.36578719  -0.00710459  0.76443645  1
  O  O246  1  0.35089621  0.50391377  0.23421588  1
  O  O247  1  0.36521450  0.50346314  0.74089271  1
  O  O248  1  0.87552136  0.01497472  0.25751797  1
  O  O249  1  0.87347386  0.00513751  0.76512214  1
  O  O250  1  0.87261284  0.49446151  0.26682450  1
  O  O251  1  0.89113148  0.50290691  0.76394800  1
  O  O252  1  0.08753397  0.39454540  0.44605217  1
  O  O253  1  0.12978784  0.36228355  0.86340441  1
  O  O254  1  0.12311714  0.87376412  0.38761397  1
  O  O255  1  0.11839848  0.86710740  0.87176138  1
  O  O256  1  0.62656307  0.35900417  0.37625630  1
  O  O257  1  0.60860817  0.38520300  0.85479369  1
  O  O258  1  0.61462314  0.86378281  0.38752820  1
  O  O259  1  0.63501996  0.84707373  0.85642904  1
  O  O260  1  0.38662856  0.13806369  0.12906499  1
  O  O261  1  0.38447810  0.11621170  0.61711794  1
  O  O262  1  0.38490004  0.63598694  0.12025082  1
  O  O263  1  0.37727390  0.63456414  0.62870733  1
  O  O264  1  0.86086016  0.12512074  0.13782630  1
  O  O265  1  0.88148403  0.12749147  0.63917213  1
  O  O266  1  0.86512101  0.62310402  0.12794660  1
  O  O267  1  0.88683092  0.64387861  0.61549261  1
  O  O268  1  0.26125919  0.25744608  0.10858057  1
  O  O269  1  0.23133039  0.25453394  0.61099284  1
  O  O270  1  0.27455476  0.74355606  0.10029515  1
  O  O271  1  0.26514467  0.75709222  0.61172667  1
  O  O272  1  0.75446785  0.26101155  0.12911354  1
  O  O273  1  0.76708685  0.25816247  0.63096010  1
  O  O274  1  0.74269149  0.77779683  0.12634919  1
  O  O275  1  0.76160289  0.76222841  0.62027706  1
  O  O276  1  0.21510187  0.24986540  0.36845238  1
  O  O277  1  0.26125934  0.24130782  0.88380548  1
  O  O278  1  0.24256591  0.76216876  0.39151889  1
  O  O279  1  0.24436948  0.74857246  0.87990666  1
  O  O280  1  0.73971979  0.24576175  0.37438919  1
  O  O281  1  0.73956938  0.29119383  0.89155981  1
  O  O282  1  0.74325993  0.76075923  0.39098765  1
  O  O283  1  0.73996538  0.72525321  0.85725364  1
  O  O284  1  -0.00282641  0.10195279  0.00468086  1
  O  O285  1  -0.00459956  0.11444347  0.52409292  1
  O  O286  1  -0.01002039  0.62909871  0.02167096  1
  O  O287  1  0.01228484  0.64146437  0.50575068  1
  O  O288  1  0.50805685  0.11760840  0.00230739  1
  O  O289  1  0.50649616  0.11951970  0.51095873  1
  O  O290  1  0.48552391  0.61269238  0.01499452  1
  O  O291  1  0.50390453  0.62123912  0.50890998  1
  O  O292  1  0.49603841  0.36323380  0.48662712  1
  O  O293  1  0.50272064  0.37082340  0.97588079  1
  O  O294  1  0.49473322  0.88382927  0.49434581  1
  O  O295  1  0.49071231  0.88733528  0.99529536  1
  O  O296  1  0.96431063  0.38184990  0.53461748  1
  O  O297  1  0.99155496  0.38998741  1.00577540  1
  O  O298  1  0.99965663  0.88941473  0.50972457  1
  O  O299  1  0.98863724  0.87906139  0.98884347  1
  O  O300  1  0.49505208  0.47819546  0.36906459  1
  O  O301  1  0.48492142  0.48794835  0.86476484  1
  O  O302  1  0.51272759  0.99062685  0.38797427  1
  O  O303  1  0.48734268  1.01131769  0.88306383  1
  O  O304  1  0.99103488  0.50990297  0.37234004  1
  O  O305  1  0.98736125  0.51315621  0.89314196  1
  O  O306  1  0.98441174  1.00792831  0.37443667  1
  O  O307  1  0.99706448  0.98976109  0.88687569  1
  O  O308  1  0.00808133  -0.01995536  0.11572448  1
  O  O309  1  0.00234473  0.00195189  0.63357826  1
  O  O310  1  0.00143961  0.51369515  0.12150432  1
  O  O311  1  -0.00733333  0.52448495  0.61020933  1
  O  O312  1  0.49417201  0.00934817  0.10678102  1
  O  O313  1  0.51194238  0.01117948  0.61796814  1
  O  O314  1  0.51895314  0.44634451  0.11950318  1
  O  O315  1  0.48137365  0.50818790  0.61349867  1
  O  O316  1  0.24387198  0.37165299  0.23050242  1
  O  O317  1  0.23768305  0.36357984  0.73235334  1
  O  O318  1  0.26516921  0.87967188  0.23455092  1
  O  O319  1  0.24051867  0.89302006  0.76137943  1
  O  O320  1  0.74431429  0.37552601  0.25792719  1
  O  O321  1  0.73307174  0.37076684  0.74310487  1
  O  O322  1  0.74011360  0.88406756  0.24895100  1
  O  O323  1  0.73233072  0.87347821  0.73258520  1
  O  O324  1  0.26767283  0.12939752  0.24812202  1
  O  O325  1  0.24887703  0.11535352  0.76513368  1
  O  O326  1  0.24060299  0.62286782  0.23726291  1
  O  O327  1  0.26873530  0.63354027  0.74727514  1
  O  O328  1  0.71107428  0.09186837  0.24609992  1
  O  O329  1  0.76606191  0.12710861  0.74874067  1
  O  O330  1  0.74858124  0.60510120  0.25071041  1
  O  O331  1  0.75348661  0.61272160  0.73763567  1
  O  O332  1  0.38527161  0.12342111  0.35657906  1
  O  O333  1  0.36518844  0.11225946  0.88017495  1
  O  O334  1  0.37328752  0.60509971  0.40023401  1
  O  O335  1  0.37910990  0.60492133  0.85903690  1
  O  O336  1  0.87549322  0.12147148  0.36270999  1
  O  O337  1  0.87973749  0.11066223  0.86917718  1
  O  O338  1  0.87623983  0.62505934  0.38440458  1
  O  O339  1  0.85605480  0.61926109  0.87041305  1
  O  O340  1  0.13147358  0.36800796  0.12157501  1
  O  O341  1  0.13172071  0.37855756  0.63230923  1
  O  O342  1  0.13038934  0.82282877  0.12487421  1
  O  O343  1  0.12671716  0.87391594  0.64470135  1
  O  O344  1  0.64131367  0.36169518  0.15449006  1
  O  O345  1  0.64143102  0.36899843  0.62455115  1
  O  O346  1  0.61083756  0.86925263  0.13788893  1
  O  O347  1  0.63082443  0.88619249  0.62648128  1
  O  O348  1  0.16128974  0.20537034  0.32912351  1
  O  O349  1  0.12116470  0.25037729  0.76445587  1
  O  O350  1  0.13924376  0.76099769  0.27126292  1
  O  O351  1  0.13974382  0.76790574  0.76289373  1
  O  O352  1  0.62051687  0.24961002  0.26619477  1
  O  O353  1  0.60807875  0.26262084  0.74163241  1
  O  O354  1  0.63689307  0.73789995  0.27685112  1
  O  O355  1  0.61938132  0.75275821  0.73095901  1
  O  O356  1  0.38276711  0.24086175  0.24182907  1
  O  O357  1  0.38991477  0.24839755  0.74708983  1
  O  O358  1  0.37202284  0.74578147  0.23974899  1
  O  O359  1  0.37339376  0.76022306  0.73613189  1
  O  O360  1  0.86385204  0.22590322  0.24375566  1
  O  O361  1  0.88054391  0.23425210  0.75048522  1
  O  O362  1  0.87098091  0.75494428  0.26418612  1
  O  O363  1  0.87375414  0.76326093  0.73138283  1
  O  O364  1  0.36195158  0.54737740  0.44792148  1
  O  O365  1  0.37769868  0.49488958  0.99292340  1
  O  O366  1  0.38471889  0.99181649  0.50570791  1
  O  O367  1  0.37931270  0.99077500  0.99262595  1
  O  O368  1  0.87651364  0.49509273  0.48126486  1
  O  O369  1  0.88146786  0.50349520  0.99367632  1
  O  O370  1  0.87567716  0.99449604  0.49350504  1
  O  O371  1  0.87894081  0.99134332  0.98846928  1
  O  O372  1  0.11499841  -0.00546372  -0.00002698  1
  O  O373  1  0.19538428  0.04636710  0.49857876  1
  O  O374  1  0.10837309  0.49799738  0.01200652  1
  O  O375  1  0.13216471  0.53248744  0.49859191  1
  O  O376  1  0.60934301  -0.00813796  -0.01363921  1
  O  O377  1  0.62132832  0.01242260  0.50739494  1
  O  O378  1  0.63566034  0.56331335  0.02491627  1
  O  O379  1  0.62792804  0.51195910  0.48756868  1
  O  O380  1  0.36848875  0.36083677  0.12917696  1
  O  O381  1  0.36063940  0.35065873  0.62973132  1
  O  O382  1  0.38129608  0.86183777  0.10647549  1
  O  O383  1  0.38670778  0.86860245  0.61189935  1
  O  O384  1  0.86252344  0.35891979  0.13245261  1
  O  O385  1  0.86632322  0.35968243  0.64617890  1
  O  O386  1  0.86798143  0.87401228  0.10531213  1
  O  O387  1  0.86567761  0.87832729  0.61913872  1
  O  O388  1  0.14467291  0.13471875  0.36528111  1
  O  O389  1  0.13889780  0.13755126  0.87409707  1
  O  O390  1  0.11908147  0.64881380  0.38746962  1
  O  O391  1  0.12606278  0.63900378  0.86087409  1
  O  O392  1  0.62130985  0.13329078  0.39099373  1
  O  O393  1  0.61693346  0.13923912  0.89036503  1
  O  O394  1  0.62629643  0.63635393  0.39349435  1
  O  O395  1  0.63993676  0.62219512  0.86137760  1
