# generated using pymatgen
data_V35Zn35O128
_symmetry_space_group_name_H-M   'P 1'
_cell_length_a   16.83245916
_cell_length_b   16.86261002
_cell_length_c   16.79011536
_cell_angle_alpha   90.03597260
_cell_angle_beta   89.88833263
_cell_angle_gamma   89.79315682
_symmetry_Int_Tables_number   1
_chemical_formula_structural   V35Zn35O128
_chemical_formula_sum   'V70 Zn70 O256'
_cell_volume   4765.65175268
_cell_formula_units_Z   2
loop_
 _symmetry_equiv_pos_site_id
 _symmetry_equiv_pos_as_xyz
  1  'x, y, z'
loop_
 _atom_site_type_symbol
 _atom_site_label
 _atom_site_symmetry_multiplicity
 _atom_site_fract_x
 _atom_site_fract_y
 _atom_site_fract_z
 _atom_site_occupancy
  V  V0  1  0.13215204  0.51150360  0.62550779  1
  V  V1  1  0.10875911  0.50605853  0.13171969  1
  V  V2  1  0.11719395  0.25275583  0.37595582  1
  V  V3  1  0.23813376  0.61787775  0.37014820  1
  V  V4  1  0.13310309  0.61926514  -0.00219911  1
  V  V5  1  0.74340861  0.87549739  0.12387992  1
  V  V6  1  0.25161705  0.62390727  0.86081227  1
  V  V7  1  0.36234030  0.12331555  0.75327575  1
  V  V8  1  0.38935803  0.63501323  0.25224724  1
  V  V9  1  0.37135181  0.37810865  0.50703711  1
  V  V10  1  0.26095457  0.86580653  0.11625219  1
  V  V11  1  0.00371862  0.74364886  0.74688171  1
  V  V12  1  0.76661094  0.49289052  0.76202993  1
  V  V13  1  0.51453099  0.25111818  0.25023504  1
  V  V14  1  0.14395524  0.87296382  0.25624271  1
  V  V15  1  0.86265422  0.51284421  0.36771904  1
  V  V16  1  0.48721363  0.87530764  0.89559810  1
  V  V17  1  0.74695942  0.86701494  0.63352249  1
  V  V18  1  0.23954547  0.24753720  -0.00441316  1
  V  V19  1  0.88824736  0.87536576  -0.00867815  1
  V  V20  1  0.62404910  0.23308223  0.88327929  1
  V  V21  1  -0.00911624  0.51985150  0.51125926  1
  V  V22  1  0.61861505  0.13422349  0.49437533  1
  V  V23  1  0.37848554  0.49644616  0.36642711  1
  V  V24  1  0.76475397  0.25016121  0.50966393  1
  V  V25  1  -0.00630766  0.88239513  0.36683287  1
  V  V26  1  0.25444677  -0.00876443  0.71570476  1
  V  V27  1  0.51087272  0.37388229  0.37130280  1
  V  V28  1  0.77507618  0.62585469  0.87972460  1
  V  V29  1  0.50433313  0.38053994  0.88078332  1
  V  V30  1  0.37412959  0.38722144  0.00325138  1
  V  V31  1  0.39048529  0.75103413  0.11840152  1
  V  V32  1  0.61186172  0.49188536  0.12566578  1
  V  V33  1  0.60554999  0.61880925  -0.00512816  1
  V  V34  1  0.48344207  0.61154638  0.62468176  1
  V  V35  1  0.37025774  0.50178913  0.85859639  1
  V  V36  1  0.86695743  0.87809383  0.49990465  1
  V  V37  1  0.13778661  0.00181410  0.11899980  1
  V  V38  1  0.62633914  0.00350017  0.10664755  1
  V  V39  1  0.10859863  0.37813396  0.25559201  1
  V  V40  1  0.63781773  0.50079388  0.61510437  1
  V  V41  1  0.00632877  0.11509430  0.10196709  1
  V  V42  1  0.50042366  0.12295941  0.11353963  1
  V  V43  1  0.25138685  0.25064584  0.50825753  1
  V  V44  1  0.01655337  -0.00558341  0.51533420  1
  V  V45  1  0.11545233  0.74610279  0.37668121  1
  V  V46  1  0.74221712  0.00345331  0.75983955  1
  V  V47  1  0.36824226  0.24300993  0.13347205  1
  V  V48  1  0.87359293  0.76045333  0.13323125  1
  V  V49  1  0.88677216  0.25466007  0.12907959  1
  V  V50  1  0.63766362  0.74450288  0.37222064  1
  V  V51  1  0.13358630  0.36667825  0.74752963  1
  V  V52  1  0.87246837  0.13883172  0.74266661  1
  V  V53  1  0.89803513  0.10811717  0.25705026  1
  V  V54  1  0.48970522  0.24713791  0.74110273  1
  V  V55  1  0.62947272  0.37412058  0.74590180  1
  V  V56  1  0.13396671  0.77392614  0.88503971  1
  V  V57  1  0.75079893  0.11348067  0.36879396  1
  V  V58  1  -0.00223771  0.64364031  0.13089547  1
  V  V59  1  0.89798721  0.00522309  0.87444572  1
  V  V60  1  0.75062405  0.24422282  0.01117884  1
  V  V61  1  0.12626512  0.87757057  0.72391636  1
  V  V62  1  0.26335352  0.75568847  0.50202819  1
  V  V63  1  0.25268539  0.39294344  0.13574491  1
  V  V64  1  0.01161287  0.39869189  0.88486525  1
  V  V65  1  0.49272618  0.74615642  0.74163036  1
  V  V66  1  0.39115349  -0.00813234  0.37097826  1
  V  V67  1  0.25469784  0.12684947  0.35914483  1
  V  V68  1  0.00557586  0.13509136  0.62157023  1
  V  V69  1  0.61974502  -0.00198060  0.61803251  1
  Zn  Zn70  1  0.63056718  0.75010808  0.87431651  1
  Zn  Zn71  1  0.49306070  0.12164530  0.61649892  1
  Zn  Zn72  1  0.62223242  0.61587214  0.49470687  1
  Zn  Zn73  1  0.88436054  0.75042253  0.62884378  1
  Zn  Zn74  1  0.51049586  0.86205069  0.35185648  1
  Zn  Zn75  1  -0.02522947  0.37268106  0.38042296  1
  Zn  Zn76  1  0.17998840  0.19540314  0.18371538  1
  Zn  Zn77  1  0.18308837  0.18741811  0.68703407  1
  Zn  Zn78  1  0.19455829  0.68867044  0.19441926  1
  Zn  Zn79  1  0.18710160  0.68977973  0.68164983  1
  Zn  Zn80  1  0.69004930  0.18608421  0.18704018  1
  Zn  Zn81  1  0.68522609  0.18602218  0.68624695  1
  Zn  Zn82  1  0.57285649  0.68460787  0.18398075  1
  Zn  Zn83  1  0.68724793  0.67927736  0.70336356  1
  Zn  Zn84  1  0.30630837  0.31297430  0.31338473  1
  Zn  Zn85  1  0.30816626  0.31449763  0.81135887  1
  Zn  Zn86  1  0.31891557  0.80868993  0.32726869  1
  Zn  Zn87  1  0.31578589  0.80782352  0.80206758  1
  Zn  Zn88  1  0.81825426  0.28812190  0.31485286  1
  Zn  Zn89  1  0.80192972  0.31255980  0.84003050  1
  Zn  Zn90  1  0.80504664  0.82397539  0.30908348  1
  Zn  Zn91  1  0.81508019  0.81371475  0.81507187  1
  Zn  Zn92  1  0.18410806  0.44171832  0.44559532  1
  Zn  Zn93  1  0.19075605  0.43646922  0.94095208  1
  Zn  Zn94  1  0.22263829  0.96236492  0.46763427  1
  Zn  Zn95  1  0.21817089  0.94643782  0.94130338  1
  Zn  Zn96  1  0.72389952  0.40087251  0.37943664  1
  Zn  Zn97  1  0.73065567  0.44708066  0.98630753  1
  Zn  Zn98  1  0.68338918  0.93526502  0.43655950  1
  Zn  Zn99  1  0.68676240  0.92912516  0.94097072  1
  Zn  Zn100  1  0.31165413  0.05740803  0.05300480  1
  Zn  Zn101  1  0.32315899  0.07577645  0.55206565  1
  Zn  Zn102  1  0.31550513  0.57299815  0.06384227  1
  Zn  Zn103  1  0.30667739  0.56311788  0.54990954  1
  Zn  Zn104  1  0.81242115  0.06243216  0.05707742  1
  Zn  Zn105  1  0.81081358  0.05872773  0.56263814  1
  Zn  Zn106  1  0.79552026  0.58701903  0.08032157  1
  Zn  Zn107  1  0.81025825  0.43177799  0.55111960  1
  Zn  Zn108  1  0.44012779  0.43988131  0.19238960  1
  Zn  Zn109  1  0.44450902  0.43987249  0.68582402  1
  Zn  Zn110  1  0.43071734  0.94936671  0.18916961  1
  Zn  Zn111  1  0.45777380  0.95022531  0.73240786  1
  Zn  Zn112  1  0.79778483  0.42983391  0.19312757  1
  Zn  Zn113  1  0.95714794  0.42909925  0.68638527  1
  Zn  Zn114  1  0.94200368  0.94255960  0.18134799  1
  Zn  Zn115  1  0.93301068  0.93645320  0.69143396  1
  Zn  Zn116  1  0.08802530  0.04905923  0.32394358  1
  Zn  Zn117  1  0.05975824  0.05531887  0.78106432  1
  Zn  Zn118  1  0.04024088  0.55774377  0.31498550  1
  Zn  Zn119  1  0.06230427  0.55530633  0.80794838  1
  Zn  Zn120  1  0.55787191  0.06824673  0.30764620  1
  Zn  Zn121  1  0.55938377  0.05880237  0.81532091  1
  Zn  Zn122  1  0.57641880  0.55649817  0.31378263  1
  Zn  Zn123  1  0.56656574  0.56434011  0.81022704  1
  Zn  Zn124  1  0.43187992  0.19076116  0.43162489  1
  Zn  Zn125  1  0.42549175  0.19596881  0.93540230  1
  Zn  Zn126  1  0.44956830  0.68347627  0.44138523  1
  Zn  Zn127  1  0.43656014  0.68968327  0.92807691  1
  Zn  Zn128  1  0.93996673  0.17875035  0.43900876  1
  Zn  Zn129  1  0.93075895  0.18492550  0.93767641  1
  Zn  Zn130  1  0.92437409  0.69247806  0.43577056  1
  Zn  Zn131  1  0.95401636  0.69508954  0.93796930  1
  Zn  Zn132  1  0.05631939  0.31459655  0.06438597  1
  Zn  Zn133  1  0.06655899  0.31985859  0.56372827  1
  Zn  Zn134  1  0.06686957  0.82102758  0.06032186  1
  Zn  Zn135  1  0.06117313  0.80366245  0.55373867  1
  Zn  Zn136  1  0.56286393  0.31509027  0.06415719  1
  Zn  Zn137  1  0.56243320  0.31667794  0.55473380  1
  Zn  Zn138  1  0.56519643  0.81401517  0.04549494  1
  Zn  Zn139  1  0.57921385  0.78951805  0.57033764  1
  O  O140  1  0.11933101  0.11179349  0.13073768  1
  O  O141  1  0.10528272  0.11880820  0.63747919  1
  O  O142  1  0.12458793  0.62202707  0.12356080  1
  O  O143  1  0.12450819  0.61294266  0.62461774  1
  O  O144  1  0.61187513  0.11365971  0.13035760  1
  O  O145  1  0.62084435  0.11532852  0.61461050  1
  O  O146  1  0.62504190  0.61433605  0.10812140  1
  O  O147  1  0.64068116  0.60637054  0.62284459  1
  O  O148  1  0.37573967  0.38709183  0.37052588  1
  O  O149  1  0.37816319  0.38690121  0.88158464  1
  O  O150  1  0.39677488  0.88270988  0.36649000  1
  O  O151  1  0.38659635  0.86518453  0.87055841  1
  O  O152  1  0.86267395  0.38132806  0.37384801  1
  O  O153  1  0.91189326  0.33764338  0.87675953  1
  O  O154  1  0.88509586  0.87024970  0.38589832  1
  O  O155  1  0.87338532  0.88999765  0.88282694  1
  O  O156  1  0.21213689  0.03197339  0.37228259  1
  O  O157  1  0.17891456  0.09366444  0.89452554  1
  O  O158  1  0.25513953  0.51169190  0.37593616  1
  O  O159  1  0.26152617  0.50973381  0.87978569  1
  O  O160  1  0.75193790  0.01294514  0.38848874  1
  O  O161  1  0.74027375  -0.00254756  0.86123153  1
  O  O162  1  0.76262911  0.50933380  0.39030588  1
  O  O163  1  0.76278438  0.50301339  0.86978690  1
  O  O164  1  0.24525618  0.49490040  0.12570991  1
  O  O165  1  0.23089888  0.49761618  0.60366205  1
  O  O166  1  0.24691052  0.98611274  0.12846893  1
  O  O167  1  0.25514502  0.99565936  0.61681433  1
  O  O168  1  0.77711117  0.59944547  0.22310156  1
  O  O169  1  0.74228720  0.47890976  0.64111571  1
  O  O170  1  0.73112147  1.00352699  0.12172193  1
  O  O171  1  0.73994961  0.99019279  0.63282027  1
  O  O172  1  0.01082226  0.37596157  0.25463697  1
  O  O173  1  0.01738566  0.38046402  0.76799778  1
  O  O174  1  -0.00395912  0.88001980  0.26466386  1
  O  O175  1  0.02311411  0.87776564  0.74521981  1
  O  O176  1  0.49692327  0.36455268  0.25923988  1
  O  O177  1  0.50375031  0.36565713  0.75839054  1
  O  O178  1  0.53374280  0.91619613  0.24072923  1
  O  O179  1  0.49586794  0.84615796  0.72082882  1
  O  O180  1  0.49992271  0.14366273  0.23789455  1
  O  O181  1  0.49288810  0.13803204  0.74832297  1
  O  O182  1  0.49191686  0.62026906  0.25139744  1
  O  O183  1  0.50100461  0.62169392  0.73583135  1
  O  O184  1  0.99872282  0.11042906  0.25974578  1
  O  O185  1  0.98514695  0.12796760  0.73602750  1
  O  O186  1  1.00347433  0.62893602  0.22997637  1
  O  O187  1  1.01104999  0.64498560  0.75808847  1
  O  O188  1  0.36876352  0.26759298  0.01537879  1
  O  O189  1  0.36274613  0.26384505  0.49285864  1
  O  O190  1  0.38128022  0.73947732  0.01997148  1
  O  O191  1  0.36377376  0.74501171  0.48596792  1
  O  O192  1  0.86907765  0.23997322  0.02050192  1
  O  O193  1  0.86471222  0.23590658  0.50366107  1
  O  O194  1  0.88374086  0.77084934  -0.00252219  1
  O  O195  1  0.88688246  0.76973777  0.51137427  1
  O  O196  1  0.13968361  0.27258744  0.48393644  1
  O  O197  1  0.13972965  0.25803892  1.01020720  1
  O  O198  1  0.13091071  0.74755413  0.47990697  1
  O  O199  1  0.12876590  0.74937464  0.98772486  1
  O  O200  1  0.63134045  0.23696861  0.50279441  1
  O  O201  1  0.63443380  0.25458961  0.99176972  1
  O  O202  1  0.63490676  0.73180806  0.49238897  1
  O  O203  1  0.62168850  0.72625247  0.99776179  1
  O  O204  1  0.48840612  0.25139103  0.13280097  1
  O  O205  1  0.50428629  0.25414726  0.63983142  1
  O  O206  1  0.49453542  0.75833183  0.13043149  1
  O  O207  1  0.50473237  0.72307753  0.62973617  1
  O  O208  1  0.99624349  0.23183248  0.12317790  1
  O  O209  1  1.00136934  0.23299790  0.60578118  1
  O  O210  1  0.99528961  0.75092174  0.12332230  1
  O  O211  1  1.00732019  0.75058792  0.63999986  1
  O  O212  1  0.01195779  0.26191763  0.39158672  1
  O  O213  1  -0.03074115  0.27548370  0.87239173  1
  O  O214  1  0.01006025  0.76088628  0.37902253  1
  O  O215  1  0.02756800  0.75740619  0.86529478  1
  O  O216  1  0.49400938  0.25837892  0.35843787  1
  O  O217  1  0.49887609  0.26243300  0.86634657  1
  O  O218  1  0.51751852  0.74847504  0.37942816  1
  O  O219  1  0.49895605  0.76182287  0.86517004  1
  O  O220  1  0.25146270  0.14621337  0.48774721  1
  O  O221  1  0.25470825  0.15007615  1.01886396  1
  O  O222  1  0.25207775  0.63347333  0.47575048  1
  O  O223  1  0.23842440  0.63147566  0.99840143  1
  O  O224  1  0.73920024  0.12779764  0.49814896  1
  O  O225  1  0.75405986  0.14311198  0.99689270  1
  O  O226  1  0.81039337  0.62157368  0.54744687  1
  O  O227  1  0.75404430  0.62310182  0.98104651  1
  O  O228  1  0.25493146  0.37246904  0.01584758  1
  O  O229  1  0.26343192  0.36854288  0.49153495  1
  O  O230  1  0.25874496  0.86258724  0.01801738  1
  O  O231  1  0.24745691  0.85499482  0.48712399  1
  O  O232  1  0.76698788  0.34064594  -0.04018797  1
  O  O233  1  0.74740753  0.35495883  0.49043840  1
  O  O234  1  0.77108224  0.89269175  0.01394989  1
  O  O235  1  0.76167205  0.87947134  0.51216948  1
  O  O236  1  0.11679644  0.49547838  0.23974290  1
  O  O237  1  0.12499965  0.49727142  0.73322106  1
  O  O238  1  0.12149220  0.97765867  0.23754825  1
  O  O239  1  0.14582389  0.98826823  0.74731605  1
  O  O240  1  0.63458746  0.50882052  0.22695017  1
  O  O241  1  0.63266551  0.48266023  0.75180579  1
  O  O242  1  0.59113488  0.97791521  0.23471135  1
  O  O243  1  0.63751660  1.01217064  0.73827807  1
  O  O244  1  0.36859082  0.00244379  0.27077343  1
  O  O245  1  0.35807328  0.00718755  0.74775293  1
  O  O246  1  0.37405030  0.51057283  0.25926405  1
  O  O247  1  0.37061427  0.49354705  0.76020438  1
  O  O248  1  0.87196940  0.01192932  0.24129394  1
  O  O249  1  0.86516226  0.00156254  0.76275275  1
  O  O250  1  0.86768842  0.49407253  0.26467922  1
  O  O251  1  0.86177315  0.47052895  0.74354681  1
  O  O252  1  0.12965199  0.37669730  0.36150565  1
  O  O253  1  0.12040336  0.38938905  0.86640504  1
  O  O254  1  0.11580277  0.86499941  0.36396719  1
  O  O255  1  0.14955304  0.87368429  0.88138546  1
  O  O256  1  0.60816723  0.37861559  0.38051296  1
  O  O257  1  0.60769999  0.36784450  0.86845442  1
  O  O258  1  0.61823042  0.85847918  0.39077130  1
  O  O259  1  0.60662158  0.86256049  0.89834337  1
  O  O260  1  0.37978901  0.13835906  0.12311197  1
  O  O261  1  0.38073184  0.12118519  0.63914529  1
  O  O262  1  0.37215611  0.63894854  0.14089301  1
  O  O263  1  0.38393019  0.60092900  0.62465034  1
  O  O264  1  0.89801397  0.11605971  0.12843898  1
  O  O265  1  0.88197742  0.11720361  0.63603734  1
  O  O266  1  0.88842277  0.64797408  0.11120285  1
  O  O267  1  0.84308673  0.63129231  0.61361428  1
  O  O268  1  0.25857771  0.26451874  0.12481620  1
  O  O269  1  0.24269443  0.24818948  0.60793679  1
  O  O270  1  0.26597914  0.76070292  0.13705677  1
  O  O271  1  0.24939872  0.73957654  0.60264617  1
  O  O272  1  0.75603989  0.25104515  0.11684391  1
  O  O273  1  0.74650997  0.24622138  0.61159175  1
  O  O274  1  0.76709235  0.76832303  0.11590498  1
  O  O275  1  0.74876822  0.76467732  0.64387670  1
  O  O276  1  0.24022995  0.24458445  0.37735349  1
  O  O277  1  0.25834503  0.25560359  0.89529673  1
  O  O278  1  0.23800922  0.73955109  0.37644606  1
  O  O279  1  0.23949626  0.73598145  0.86789424  1
  O  O280  1  0.75359532  0.22491029  0.39081815  1
  O  O281  1  0.72386949  0.22843214  0.86607102  1
  O  O282  1  0.74096273  0.76079467  0.37607812  1
  O  O283  1  0.74946043  0.72875371  0.85401052  1
  O  O284  1  0.00757578  0.12340866  0.00284318  1
  O  O285  1  -0.00516263  0.10364031  0.50971344  1
  O  O286  1  0.02430793  0.63712566  0.01254069  1
  O  O287  1  -0.00378079  0.61842917  0.49468445  1
  O  O288  1  0.49443809  0.14405698  0.01549481  1
  O  O289  1  0.51124667  0.13647466  0.49898564  1
  O  O290  1  0.50519795  0.61499846  -0.01308232  1
  O  O291  1  0.50362876  0.61522954  0.51838206  1
  O  O292  1  0.48393238  0.36201231  0.48056124  1
  O  O293  1  0.49027622  0.36925574  0.98633837  1
  O  O294  1  0.47961955  0.86978495  0.52336512  1
  O  O295  1  0.48364528  0.88279950  0.99689228  1
  O  O296  1  0.97197211  0.38400321  0.52735407  1
  O  O297  1  1.01480149  0.38447452  0.98735414  1
  O  O298  1  0.99533040  0.88222450  0.49546915  1
  O  O299  1  0.98846182  0.88610858  1.00571671  1
  O  O300  1  0.48995284  0.48598603  0.36693808  1
  O  O301  1  0.48717940  0.48734310  0.86718276  1
  O  O302  1  0.49020147  1.01089306  0.38351995  1
  O  O303  1  0.49890836  0.96959822  0.84335671  1
  O  O304  1  0.98962796  0.48889693  0.39037293  1
  O  O305  1  0.99138204  0.49821041  0.87792806  1
  O  O306  1  1.00981291  0.98486012  0.38794896  1
  O  O307  1  0.99674183  1.00007836  0.86379370  1
  O  O308  1  0.01684504  0.00825483  0.12162611  1
  O  O309  1  0.00096308  -0.00206944  0.61925594  1
  O  O310  1  0.01094565  0.51913532  0.11904230  1
  O  O311  1  -0.00178303  0.51389062  0.61748264  1
  O  O312  1  0.49411947  0.01871629  0.11672616  1
  O  O313  1  0.51747815  -0.00181817  0.64009130  1
  O  O314  1  0.50971847  0.49555208  0.12371429  1
  O  O315  1  0.52260208  0.50545453  0.63261937  1
  O  O316  1  0.24336799  0.37848796  0.23750025  1
  O  O317  1  0.23602256  0.38025049  0.75600472  1
  O  O318  1  0.24498215  0.87426325  0.25702707  1
  O  O319  1  0.24932613  0.88599814  0.74198835  1
  O  O320  1  0.74470203  0.36361672  0.26927463  1
  O  O321  1  0.73365922  0.37401130  0.76603298  1
  O  O322  1  0.75631000  0.88511895  0.22410605  1
  O  O323  1  0.75449167  0.88900091  0.74110094  1
  O  O324  1  0.24570196  0.13824382  0.25906517  1
  O  O325  1  0.25535059  0.11045312  0.74077534  1
  O  O326  1  0.26656259  0.62927646  0.26514603  1
  O  O327  1  0.24295079  0.62229764  0.76256503  1
  O  O328  1  0.74035584  0.11992742  0.26621815  1
  O  O329  1  0.76063388  0.11048371  0.74101713  1
  O  O330  1  0.75429693  0.65084193  0.26910744  1
  O  O331  1  0.75588980  0.59984492  0.75865325  1
  O  O332  1  0.35956611  0.11956469  0.37324597  1
  O  O333  1  0.37683952  0.12906504  0.85398718  1
  O  O334  1  0.37644912  0.61253598  0.36790808  1
  O  O335  1  0.36265854  0.61291744  0.87867130  1
  O  O336  1  0.86981229  0.12172073  0.36193099  1
  O  O337  1  0.88186877  0.11383170  0.85935144  1
  O  O338  1  0.88417201  0.61425839  0.36646404  1
  O  O339  1  0.87519711  0.63276665  0.88024185  1
  O  O340  1  0.12933945  0.38946020  0.13364401  1
  O  O341  1  0.11660318  0.38520407  0.64067387  1
  O  O342  1  0.14164475  0.87395523  0.13533605  1
  O  O343  1  0.13085522  0.86915969  0.62585894  1
  O  O344  1  0.62996580  0.38972090  0.11408350  1
  O  O345  1  0.61760860  0.37734302  0.64085474  1
  O  O346  1  0.63598946  0.88529694  0.10968542  1
  O  O347  1  0.63755409  0.88344326  0.61514712  1
  O  O348  1  0.12595606  0.26827611  0.25978514  1
  O  O349  1  0.12838272  0.26437546  0.74982829  1
  O  O350  1  0.12729024  0.76299886  0.25724032  1
  O  O351  1  0.12861583  0.76771078  0.75577138  1
  O  O352  1  0.61348343  0.25474803  0.24139121  1
  O  O353  1  0.61279590  0.25576780  0.75965511  1
  O  O354  1  0.62706596  0.73954965  0.26738472  1
  O  O355  1  0.60581353  0.73476577  0.75889210  1
  O  O356  1  0.37651037  0.25822405  0.23509902  1
  O  O357  1  0.38119295  0.24395420  0.74938469  1
  O  O358  1  0.38345846  0.73862168  0.25455537  1
  O  O359  1  0.39017166  0.73400805  0.75470023  1
  O  O360  1  0.86836911  0.21932556  0.23261489  1
  O  O361  1  0.85645624  0.23568520  0.75417882  1
  O  O362  1  0.87410994  0.76136436  0.23262251  1
  O  O363  1  0.89969202  0.76354005  0.75130475  1
  O  O364  1  0.37111826  0.48749059  0.48079454  1
  O  O365  1  0.37068954  0.49102988  0.99929511  1
  O  O366  1  0.33871102  0.99786141  0.46759965  1
  O  O367  1  0.31255861  1.00339370  0.95378485  1
  O  O368  1  0.88267370  0.50390534  0.49416693  1
  O  O369  1  0.76248263  0.48269416  1.09768145  1
  O  O370  1  0.88563239  0.98263432  0.50663959  1
  O  O371  1  0.87814988  1.00385577  0.97998249  1
  O  O372  1  0.13477403  -0.01239758  0.01960052  1
  O  O373  1  0.11577692  -0.00970392  0.50789463  1
  O  O374  1  0.13312097  0.51347866  0.01569884  1
  O  O375  1  0.10042883  0.48533454  0.51120311  1
  O  O376  1  0.61945349  0.00593352  0.00795068  1
  O  O377  1  0.62471513  0.00918855  0.51323416  1
  O  O378  1  0.63233185  0.50954347  0.00752432  1
  O  O379  1  0.63779123  0.49350801  0.51560675  1
  O  O380  1  0.36406938  0.37708289  0.12419419  1
  O  O381  1  0.38236379  0.38612766  0.60589464  1
  O  O382  1  0.37019724  0.86442329  0.13831381  1
  O  O383  1  0.41767794  0.88417967  0.56023913  1
  O  O384  1  0.88505227  0.35174017  0.14092448  1
  O  O385  1  0.91302603  0.37261895  0.58735032  1
  O  O386  1  0.87559518  0.87370834  0.11476273  1
  O  O387  1  0.86248296  0.87423614  0.62082563  1
  O  O388  1  0.12215282  0.15123894  0.37025551  1
  O  O389  1  0.12226877  0.13024615  0.86328205  1
  O  O390  1  0.12936082  0.63332279  0.35817003  1
  O  O391  1  0.13685217  0.61710404  0.88699974  1
  O  O392  1  0.63140213  0.11634536  0.38756348  1
  O  O393  1  0.59942434  0.13677603  0.88455513  1
  O  O394  1  0.63107745  0.62917497  0.38039392  1
  O  O395  1  0.63345637  0.61749553  0.88545051  1
