# generated using pymatgen
data_V35Zn35O128
_symmetry_space_group_name_H-M   'P 1'
_cell_length_a   16.95514619
_cell_length_b   16.86277695
_cell_length_c   16.87684559
_cell_angle_alpha   90.14858693
_cell_angle_beta   89.70781218
_cell_angle_gamma   90.03554218
_symmetry_Int_Tables_number   1
_chemical_formula_structural   V35Zn35O128
_chemical_formula_sum   'V70 Zn70 O256'
_cell_volume   4825.19338050
_cell_formula_units_Z   2
loop_
 _symmetry_equiv_pos_site_id
 _symmetry_equiv_pos_as_xyz
  1  'x, y, z'
loop_
 _atom_site_type_symbol
 _atom_site_label
 _atom_site_symmetry_multiplicity
 _atom_site_fract_x
 _atom_site_fract_y
 _atom_site_fract_z
 _atom_site_occupancy
  V  V0  1  0.38518595  0.87063422  -0.00542473  1
  V  V1  1  0.87453293  0.24194794  0.12684802  1
  V  V2  1  0.11558239  -0.01437463  0.62630728  1
  V  V3  1  0.73691332  0.75366007  0.49539355  1
  V  V4  1  0.76431908  0.01353761  0.25442549  1
  V  V5  1  0.13224829  0.23266413  0.36706250  1
  V  V6  1  0.74283783  0.63503910  0.87462676  1
  V  V7  1  0.75011475  0.50304248  0.25023959  1
  V  V8  1  0.36889007  0.51204277  0.36643210  1
  V  V9  1  0.12968984  0.64048516  0.50514974  1
  V  V10  1  0.88092318  0.38147320  -0.00490705  1
  V  V11  1  0.37284686  0.01462315  0.87402779  1
  V  V12  1  0.90143070  0.13588957  0.74906497  1
  V  V13  1  -0.00295805  0.23133483  0.24196678  1
  V  V14  1  0.87280547  0.49726378  0.37715673  1
  V  V15  1  0.50503755  0.86808010  0.86695674  1
  V  V16  1  0.25196218  0.23989336  -0.00864139  1
  V  V17  1  0.62318167  0.63575938  -0.00037536  1
  V  V18  1  0.49910250  0.86159583  0.37342704  1
  V  V19  1  0.25227979  0.74162087  -0.01374428  1
  V  V20  1  0.12268861  0.38588461  0.24420342  1
  V  V21  1  0.10631349  0.25249883  0.87432213  1
  V  V22  1  0.75180053  0.01816976  0.75563989  1
  V  V23  1  0.24953303  0.38087982  0.12840114  1
  V  V24  1  0.24461998  0.87367701  0.12436631  1
  V  V25  1  0.38459269  0.50040197  0.85502207  1
  V  V26  1  0.49536030  0.24600856  0.25278743  1
  V  V27  1  0.74008598  0.50119241  0.74285115  1
  V  V28  1  0.37666436  0.24584763  0.12747157  1
  V  V29  1  0.87940339  0.87379364  0.48098218  1
  V  V30  1  0.51564117  0.36587113  0.87325461  1
  V  V31  1  0.48915694  0.38120745  0.37920066  1
  V  V32  1  0.87264494  0.03046629  0.37516955  1
  V  V33  1  0.63812390  0.00092089  0.13083601  1
  V  V34  1  0.75408188  0.88056961  0.62442567  1
  V  V35  1  0.76180744  0.76571834  0.00967301  1
  V  V36  1  0.01027996  0.50014408  0.50344543  1
  V  V37  1  0.50098694  0.50115597  0.51419589  1
  V  V38  1  -0.00433464  0.00668568  0.49984313  1
  V  V39  1  0.37271262  0.65120355  0.73652740  1
  V  V40  1  0.88799729  0.63843853  0.24092343  1
  V  V41  1  0.38589376  0.74819979  0.13694256  1
  V  V42  1  0.50970262  -0.00096196  -0.00101352  1
  V  V43  1  0.25527700  0.01497899  0.25170254  1
  V  V44  1  -0.00512345  0.37387629  0.37525867  1
  V  V45  1  0.89016407  -0.00341677  0.87893056  1
  V  V46  1  0.37977363  0.37965864  -0.00059726  1
  V  V47  1  0.62606961  0.87138737  0.75077004  1
  V  V48  1  0.62986111  0.36522285  0.73636250  1
  V  V49  1  0.74526312  0.64112047  0.37787022  1
  V  V50  1  0.13400737  0.12409471  0.50848233  1
  V  V51  1  0.90561146  0.25799586  0.62012130  1
  V  V52  1  0.62872585  0.13110732  -0.01786051  1
  V  V53  1  0.51272902  0.65062498  0.62724420  1
  V  V54  1  0.74640899  0.25179282  -0.01537917  1
  V  V55  1  0.48741271  0.01827358  0.49295906  1
  V  V56  1  0.37009691  0.87083873  0.51566924  1
  V  V57  1  0.62473399  0.38007535  0.24850823  1
  V  V58  1  0.11870701  0.51211582  0.10041087  1
  V  V59  1  0.09981293  0.11379004  0.00109713  1
  V  V60  1  0.24799162  0.65201112  0.37097390  1
  V  V61  1  0.50318631  0.62305595  0.14160529  1
  V  V62  1  0.74747377  0.38329231  0.12424038  1
  V  V63  1  0.63240089  0.24309030  0.38084610  1
  V  V64  1  0.89219630  0.75397786  0.62780789  1
  V  V65  1  0.31751509  0.26557424  0.60432733  1
  V  V66  1  0.88085175  0.50789092  0.87703313  1
  V  V67  1  0.62960244  0.01919267  0.61169571  1
  V  V68  1  0.51104755  0.50403132  0.00362322  1
  V  V69  1  0.24191525  -0.00451692  0.74845514  1
  Zn  Zn70  1  0.87381163  0.62606676  0.73039136  1
  Zn  Zn71  1  0.50432126  0.12472462  0.12623886  1
  Zn  Zn72  1  0.25531492  0.62036681  0.87308702  1
  Zn  Zn73  1  0.12366889  -0.00469961  0.11347876  1
  Zn  Zn74  1  0.43353750  0.17009264  0.68397350  1
  Zn  Zn75  1  0.76952012  0.27301079  0.48681872  1
  Zn  Zn76  1  0.18435153  0.18499235  0.17734646  1
  Zn  Zn77  1  0.20159144  0.17910081  0.70486873  1
  Zn  Zn78  1  0.20802075  0.67801517  0.17811557  1
  Zn  Zn79  1  0.18054125  0.64557935  0.69378691  1
  Zn  Zn80  1  0.68487962  0.18846529  0.18349915  1
  Zn  Zn81  1  0.68771095  0.19404273  0.68627960  1
  Zn  Zn82  1  0.69114365  0.67932414  0.18639046  1
  Zn  Zn83  1  0.69401851  0.68969759  0.68095634  1
  Zn  Zn84  1  0.31874470  0.18427410  0.31682290  1
  Zn  Zn85  1  0.28941839  0.30832219  0.77099402  1
  Zn  Zn86  1  0.31845467  0.83064952  0.31603017  1
  Zn  Zn87  1  0.25443589  0.80103757  0.77978002  1
  Zn  Zn88  1  0.81235174  0.31139856  0.30849702  1
  Zn  Zn89  1  0.81803511  0.31741789  0.80315335  1
  Zn  Zn90  1  0.63501278  0.86347415  0.27059957  1
  Zn  Zn91  1  0.81696023  0.81728079  0.81031175  1
  Zn  Zn92  1  0.17592118  0.44642190  0.40571154  1
  Zn  Zn93  1  0.22023278  0.41181416  0.90345656  1
  Zn  Zn94  1  0.19021993  0.93511396  0.43789027  1
  Zn  Zn95  1  0.19394751  0.93389948  0.92971151  1
  Zn  Zn96  1  0.67859651  0.44222135  0.43902882  1
  Zn  Zn97  1  0.69339704  0.44546784  0.93538543  1
  Zn  Zn98  1  0.68962793  0.94194408  0.43097084  1
  Zn  Zn99  1  0.69194016  0.94155797  0.93299594  1
  Zn  Zn100  1  0.31996507  0.05828550  0.06250030  1
  Zn  Zn101  1  0.30238747  0.05641226  0.56292441  1
  Zn  Zn102  1  0.31759150  0.56128999  0.06607116  1
  Zn  Zn103  1  0.32149681  0.56945982  0.54859356  1
  Zn  Zn104  1  0.81058310  0.06249360  0.05509824  1
  Zn  Zn105  1  0.81999495  0.07613132  0.57059186  1
  Zn  Zn106  1  0.81302007  0.56941097  0.06286127  1
  Zn  Zn107  1  0.81809662  0.43892222  0.56438856  1
  Zn  Zn108  1  0.43552187  0.43979093  0.18929978  1
  Zn  Zn109  1  0.44409558  0.38569009  0.67348236  1
  Zn  Zn110  1  0.44113902  0.93804500  0.18991815  1
  Zn  Zn111  1  0.44370279  0.96881513  0.68671971  1
  Zn  Zn112  1  0.94013848  0.44287442  0.18428475  1
  Zn  Zn113  1  0.93577278  0.44233205  0.68863548  1
  Zn  Zn114  1  0.79958132  0.81372313  0.21006617  1
  Zn  Zn115  1  0.94017529  0.93906936  0.69426143  1
  Zn  Zn116  1  0.07233120  0.03210117  0.30995970  1
  Zn  Zn117  1  0.07219349  0.06595688  0.81565474  1
  Zn  Zn118  1  0.06312360  0.57339531  0.32137245  1
  Zn  Zn119  1  0.05155862  0.44367721  0.93481092  1
  Zn  Zn120  1  0.55940025  0.06408219  0.31579496  1
  Zn  Zn121  1  0.55838387  0.06454106  0.80204631  1
  Zn  Zn122  1  0.56704501  0.56286148  0.32155610  1
  Zn  Zn123  1  0.55751638  0.56703654  0.80478241  1
  Zn  Zn124  1  0.40180003  0.18424909  0.48169941  1
  Zn  Zn125  1  0.44169080  0.19014526  0.93996627  1
  Zn  Zn126  1  0.43320730  0.69024895  0.44828543  1
  Zn  Zn127  1  0.44016148  0.68634279  0.93035245  1
  Zn  Zn128  1  0.95123929  0.19393199  0.44204853  1
  Zn  Zn129  1  0.93069289  0.18296023  0.93390065  1
  Zn  Zn130  1  0.89771322  0.64102897  0.49087777  1
  Zn  Zn131  1  0.93768715  0.68236957  0.95211954  1
  Zn  Zn132  1  0.06501671  0.30764129  0.06138816  1
  Zn  Zn133  1  0.10833791  0.30084744  0.57738562  1
  Zn  Zn134  1  0.06413638  0.78279439  0.06621651  1
  Zn  Zn135  1  0.07970958  0.80977047  0.69208126  1
  Zn  Zn136  1  0.56537253  0.31415273  0.06407771  1
  Zn  Zn137  1  0.54991807  0.29524508  0.56198472  1
  Zn  Zn138  1  0.59203074  0.79519089  0.10589672  1
  Zn  Zn139  1  0.55917272  0.83331097  0.56063273  1
  O  O140  1  0.12584628  0.12101073  0.10348749  1
  O  O141  1  0.13445388  0.11892843  0.61105359  1
  O  O142  1  0.13858132  0.60911490  0.12321811  1
  O  O143  1  0.13174907  0.60740291  0.60321771  1
  O  O144  1  0.62463667  0.11770357  0.11142474  1
  O  O145  1  0.62135623  0.11667844  0.63327000  1
  O  O146  1  0.61057585  0.62703453  0.11529015  1
  O  O147  1  0.61082332  0.62882435  0.63289436  1
  O  O148  1  0.39147949  0.38411416  0.36781102  1
  O  O149  1  0.39545675  0.38692157  0.88702541  1
  O  O150  1  0.39070993  0.87903752  0.38823214  1
  O  O151  1  0.39528226  0.88970012  0.88150416  1
  O  O152  1  0.88375657  0.38377880  0.36452962  1
  O  O153  1  0.86890515  0.38910086  0.88569574  1
  O  O154  1  0.87157483  0.88293501  0.38457792  1
  O  O155  1  0.87575108  0.89641950  0.86165946  1
  O  O156  1  0.24381084  -0.00609459  0.34910217  1
  O  O157  1  0.27931647  0.01108189  0.90814796  1
  O  O158  1  0.26999036  0.49232693  0.37807529  1
  O  O159  1  0.28528626  0.50763842  0.89188426  1
  O  O160  1  0.76185886  0.00653808  0.36662347  1
  O  O161  1  0.75664001  0.00162400  0.85736183  1
  O  O162  1  0.75686205  0.50677600  0.36728966  1
  O  O163  1  0.75758374  0.51363895  0.86618058  1
  O  O164  1  0.24084969  0.48739571  0.11581195  1
  O  O165  1  0.25174111  0.49219695  0.62016054  1
  O  O166  1  0.25249288  0.98111942  0.11366340  1
  O  O167  1  0.23802050  0.99742973  0.64147231  1
  O  O168  1  0.75608053  0.49236551  0.13398730  1
  O  O169  1  0.76509813  0.50598998  0.64594806  1
  O  O170  1  0.74495882  1.00767218  0.13133881  1
  O  O171  1  0.75018867  0.99916301  0.63306195  1
  O  O172  1  0.00985745  0.37029371  0.25096875  1
  O  O173  1  0.02956139  0.38847274  0.74811903  1
  O  O174  1  0.04451032  0.85672958  0.35124706  1
  O  O175  1  0.00464822  0.86891872  0.74989989  1
  O  O176  1  0.50971884  0.37442254  0.25160870  1
  O  O177  1  0.52075978  0.38114075  0.76510310  1
  O  O178  1  0.50236460  0.88354804  0.26866536  1
  O  O179  1  0.51564209  0.89008831  0.75684307  1
  O  O180  1  0.50723676  0.14395453  0.24638858  1
  O  O181  1  0.47745807  0.07701635  0.72657213  1
  O  O182  1  0.50982835  0.62185061  0.23972974  1
  O  O183  1  0.48845598  0.62711725  0.73406827  1
  O  O184  1  1.00009547  0.13431315  0.24518667  1
  O  O185  1  0.99953599  0.13114376  0.74984955  1
  O  O186  1  0.98589168  0.62464293  0.25917904  1
  O  O187  1  0.99761237  0.66251278  0.78148620  1
  O  O188  1  0.37386792  0.26106582  0.00635303  1
  O  O189  1  0.34292408  0.28516905  0.50805662  1
  O  O190  1  0.37970701  0.75951117  -0.00045209  1
  O  O191  1  0.37687764  0.76914234  0.51103835  1
  O  O192  1  0.86381236  0.26103988  0.00497724  1
  O  O193  1  0.88753576  0.25388677  0.51624586  1
  O  O194  1  0.85861002  0.75883619  -0.01364195  1
  O  O195  1  0.87304219  0.76583680  0.50577571  1
  O  O196  1  0.11605664  0.23402351  0.47836893  1
  O  O197  1  0.13671588  0.23711337  1.00022349  1
  O  O198  1  0.12099970  0.73610197  0.51033778  1
  O  O199  1  0.15497299  0.74831263  1.00069347  1
  O  O200  1  0.61934363  0.25852434  0.48077273  1
  O  O201  1  0.63648642  0.24376011  1.00253054  1
  O  O202  1  0.63989754  0.76037389  0.50406715  1
  O  O203  1  0.63743567  0.74023175  1.00730542  1
  O  O204  1  0.49476753  0.25690026  0.13645252  1
  O  O205  1  0.46922604  0.27151484  0.63594604  1
  O  O206  1  0.49196297  0.73735968  0.11951476  1
  O  O207  1  0.50875466  0.74975908  0.62183769  1
  O  O208  1  0.98666212  0.25488200  0.13163226  1
  O  O209  1  1.00506412  0.26898583  0.62221570  1
  O  O210  1  1.05362393  0.77345508  0.20054138  1
  O  O211  1  0.98987528  0.76587454  0.62637472  1
  O  O212  1  0.00032631  0.25502919  0.35554751  1
  O  O213  1  0.00620089  0.25241638  0.87870944  1
  O  O214  1  0.05900349  0.78938980  0.37786885  1
  O  O215  1  0.00556395  0.70163103  0.84551943  1
  O  O216  1  0.51111578  0.26806232  0.35901237  1
  O  O217  1  0.50229288  0.26700298  0.88051497  1
  O  O218  1  0.49862359  0.76035457  0.38208741  1
  O  O219  1  0.50049475  0.76910189  0.87183638  1
  O  O220  1  0.23003977  0.10913652  0.48484380  1
  O  O221  1  0.26281000  0.14091759  1.00420407  1
  O  O222  1  0.24114149  0.62545026  0.48666266  1
  O  O223  1  0.27232479  0.63812539  0.99480410  1
  O  O224  1  0.75258647  0.16886617  0.54461678  1
  O  O225  1  0.74125698  0.14228534  0.99713120  1
  O  O226  1  0.76073956  0.64533596  0.48771896  1
  O  O227  1  0.74311956  0.63088170  0.99149819  1
  O  O228  1  0.26522621  0.36684856  0.00618860  1
  O  O229  1  0.21277277  0.43653234  0.58171664  1
  O  O230  1  0.26722306  0.86376651  0.00030988  1
  O  O231  1  0.27046811  0.89179023  0.49986822  1
  O  O232  1  0.75296590  0.36841421  0.00575849  1
  O  O233  1  0.75362339  0.38368126  0.49443002  1
  O  O234  1  0.74255616  0.86295017  -0.00551077  1
  O  O235  1  0.75928322  0.87119733  0.50324438  1
  O  O236  1  0.12345134  0.48560864  0.25658593  1
  O  O237  1  0.08511466  0.43410711  0.76728947  1
  O  O238  1  0.14458480  1.00792335  0.22521037  1
  O  O239  1  0.11496947  0.99759928  0.72997130  1
  O  O240  1  0.64032024  0.49413500  0.25519892  1
  O  O241  1  0.63659252  0.49778269  0.75003630  1
  O  O242  1  0.62571236  1.00435680  0.23538952  1
  O  O243  1  0.64084309  0.99874175  0.73981257  1
  O  O244  1  0.35481531  -0.00025898  0.23075117  1
  O  O245  1  0.34944565  -0.00978468  0.76703269  1
  O  O246  1  0.38329367  0.50597375  0.26568277  1
  O  O247  1  0.38863952  0.48340634  0.75917228  1
  O  O248  1  0.86835240  0.01369005  0.26407411  1
  O  O249  1  0.86845304  0.01753826  0.74623854  1
  O  O250  1  0.86572617  0.50311580  0.25696726  1
  O  O251  1  0.87237791  0.50884656  0.76238975  1
  O  O252  1  0.11700249  0.35974431  0.35732248  1
  O  O253  1  0.11921316  0.35712776  0.90405522  1
  O  O254  1  0.11043197  0.91381424  0.35358110  1
  O  O255  1  0.08344011  0.86343254  0.89604941  1
  O  O256  1  0.61962009  0.37319957  0.35998758  1
  O  O257  1  0.61698176  0.38051773  0.87974912  1
  O  O258  1  0.61131842  0.87799210  0.38202550  1
  O  O259  1  0.61850893  0.88478965  0.86067653  1
  O  O260  1  0.38376057  0.14236162  0.11580822  1
  O  O261  1  0.35733625  0.15543759  0.58915230  1
  O  O262  1  0.38834337  0.63685124  0.12473828  1
  O  O263  1  0.37925117  0.62855223  0.63374929  1
  O  O264  1  0.86874551  0.14426293  0.11534929  1
  O  O265  1  0.89089255  0.14183177  0.63673658  1
  O  O266  1  0.87703959  0.61659573  0.14166777  1
  O  O267  1  0.88208301  0.64923112  0.61270253  1
  O  O268  1  0.25868721  0.26016103  0.11632731  1
  O  O269  1  0.21256617  0.25722895  0.61047760  1
  O  O270  1  0.26978245  0.75550584  0.11304680  1
  O  O271  1  0.16909108  0.75354901  0.72270371  1
  O  O272  1  0.76150990  0.26253416  0.12230747  1
  O  O273  1  0.76467271  0.23007269  0.60769959  1
  O  O274  1  0.76222995  0.75247167  0.11423998  1
  O  O275  1  0.75522226  0.76199906  0.61067270  1
  O  O276  1  0.22925299  0.24625914  0.35861475  1
  O  O277  1  0.25263306  0.25487199  0.89237767  1
  O  O278  1  0.25283183  0.75204628  0.37218288  1
  O  O279  1  0.25978433  0.74346385  0.88232179  1
  O  O280  1  0.73792842  0.25562457  0.37277568  1
  O  O281  1  0.75560910  0.25993525  0.88729353  1
  O  O282  1  0.75068578  0.74666473  0.38256751  1
  O  O283  1  0.75378746  0.73735361  0.87567144  1
  O  O284  1  0.00076886  0.12481188  0.00538970  1
  O  O285  1  0.01365868  0.11427124  0.49670200  1
  O  O286  1  0.00482588  0.69395518  0.03674804  1
  O  O287  1  0.01248493  0.60779252  0.48941210  1
  O  O288  1  0.51625884  0.12187335  0.00033173  1
  O  O289  1  0.50063503  0.11679693  0.50511884  1
  O  O290  1  0.50881791  0.62063240  -0.00172957  1
  O  O291  1  0.49144307  0.61560603  0.52299371  1
  O  O292  1  0.50309134  0.38064613  0.48266553  1
  O  O293  1  0.50099053  0.38345080  0.99682761  1
  O  O294  1  0.49078291  0.88741866  0.48963831  1
  O  O295  1  0.50379264  0.88412155  0.98510269  1
  O  O296  1  1.00838157  0.38006783  0.47698111  1
  O  O297  1  0.98235767  0.37254769  1.00327854  1
  O  O298  1  0.98023070  0.89563428  0.49728940  1
  O  O299  1  1.02836905  0.85096489  0.94399339  1
  O  O300  1  0.49436970  0.49452010  0.37702672  1
  O  O301  1  0.49751865  0.49677948  0.88412446  1
  O  O302  1  0.51074232  0.99887484  0.39211735  1
  O  O303  1  0.49926137  0.99757144  0.88489817  1
  O  O304  1  0.99113483  0.49137777  0.37475730  1
  O  O305  1  0.98047868  0.51100960  0.87979635  1
  O  O306  1  0.97857368  1.01137370  0.37912740  1
  O  O307  1  0.99030594  1.00542379  0.87002174  1
  O  O308  1  -0.00917729  -0.05013337  0.11477548  1
  O  O309  1  0.00735515  -0.00051268  0.61459703  1
  O  O310  1  0.02069279  0.49772736  0.12351024  1
  O  O311  1  -0.00453510  0.48828616  0.60265897  1
  O  O312  1  0.50923789  0.00369250  0.11253284  1
  O  O313  1  0.52741937  -0.01059253  0.59780753  1
  O  O314  1  0.49512348  0.51523166  0.11795858  1
  O  O315  1  0.48841154  0.47607596  0.61107522  1
  O  O316  1  0.22815208  0.36588413  0.23473541  1
  O  O317  1  0.23790660  0.40053689  0.79215917  1
  O  O318  1  0.25391392  0.87351146  0.22704693  1
  O  O319  1  0.21669657  0.90944826  0.80821000  1
  O  O320  1  0.74572212  0.38340231  0.24241797  1
  O  O321  1  0.74041704  0.39164002  0.75834522  1
  O  O322  1  0.74580457  0.90303058  0.24641661  1
  O  O323  1  0.74349853  0.88661102  0.74183634  1
  O  O324  1  0.25577444  0.12290298  0.24245568  1
  O  O325  1  0.22107857  0.08857708  0.77924194  1
  O  O326  1  0.24745013  0.62953697  0.27104387  1
  O  O327  1  0.27384489  0.61586569  0.75377272  1
  O  O328  1  0.74410727  0.11292719  0.24644196  1
  O  O329  1  0.75177367  0.11866424  0.74774764  1
  O  O330  1  0.75985965  0.62079358  0.25799663  1
  O  O331  1  0.75075024  0.62038905  0.76041658  1
  O  O332  1  0.39956489  0.14878662  0.37823140  1
  O  O333  1  0.39169958  0.11344618  0.87395970  1
  O  O334  1  0.36167345  0.62165683  0.38223576  1
  O  O335  1  0.39184471  0.61440475  0.85280180  1
  O  O336  1  0.86875434  0.12888082  0.38620936  1
  O  O337  1  0.87706372  0.11973443  0.85504728  1
  O  O338  1  0.86392468  0.61506143  0.36912170  1
  O  O339  1  0.86319570  0.61678649  0.88619089  1
  O  O340  1  0.12848303  0.38245086  0.12827656  1
  O  O341  1  0.14788756  0.40921130  0.61977244  1
  O  O342  1  0.14295963  0.86674395  0.10730291  1
  O  O343  1  0.12445621  0.88879716  0.61177874  1
  O  O344  1  0.63750233  0.37211931  0.13394386  1
  O  O345  1  0.62169921  0.36446107  0.63763130  1
  O  O346  1  0.62441408  0.90414377  0.10761747  1
  O  O347  1  0.63862674  0.88846880  0.63213182  1
  O  O348  1  0.10954795  0.25029865  0.24691530  1
  O  O349  1  0.13436373  0.24593044  0.77722808  1
  O  O350  1  0.11461709  0.74978241  0.23589604  1
  O  O351  1  0.10992259  0.58498799  0.78886850  1
  O  O352  1  0.61803432  0.26123537  0.25196571  1
  O  O353  1  0.64151501  0.26741051  0.75836246  1
  O  O354  1  0.63046252  0.76904417  0.21159925  1
  O  O355  1  0.63484347  0.77284049  0.74322969  1
  O  O356  1  0.38899788  0.25564109  0.24174040  1
  O  O357  1  0.31974847  0.21419617  0.72046973  1
  O  O358  1  0.37657933  0.75983290  0.23403389  1
  O  O359  1  0.35993588  0.74983453  0.74643761  1
  O  O360  1  0.88342124  0.25370404  0.23571302  1
  O  O361  1  0.87841900  0.24312121  0.74160690  1
  O  O362  1  0.87432216  0.73979878  0.24670885  1
  O  O363  1  0.86453583  0.74794615  0.73130941  1
  O  O364  1  0.39207543  0.50293034  0.48165353  1
  O  O365  1  0.39282265  0.49114624  1.00535907  1
  O  O366  1  0.38623398  1.00384516  0.50199145  1
  O  O367  1  0.39500381  0.99298321  0.99811618  1
  O  O368  1  0.88762460  0.50583638  0.48755348  1
  O  O369  1  0.86498468  0.48994340  0.99214269  1
  O  O370  1  0.87269420  1.00271609  0.49110100  1
  O  O371  1  0.86938806  1.00920229  0.97811099  1
  O  O372  1  0.12346270  0.00900554  -0.00740543  1
  O  O373  1  0.11607798  0.00686604  0.50443996  1
  O  O374  1  0.12558136  0.50241485  -0.00111387  1
  O  O375  1  0.11206615  0.49431310  0.48464257  1
  O  O376  1  0.62929436  0.01678364  0.00004347  1
  O  O377  1  0.65226229  0.01460528  0.51264229  1
  O  O378  1  0.61774965  0.51239635  -0.00174829  1
  O  O379  1  0.60063588  0.50382801  0.49357882  1
  O  O380  1  0.37024897  0.37051681  0.11972713  1
  O  O381  1  0.33541277  0.35542903  0.65586631  1
  O  O382  1  0.38069202  0.86386007  0.11182122  1
  O  O383  1  0.38754954  0.89597048  0.61476313  1
  O  O384  1  0.86677088  0.37375377  0.11211323  1
  O  O385  1  0.87252241  0.36069238  0.63794912  1
  O  O386  1  0.97040533  0.88012945  0.09760440  1
  O  O387  1  0.86449161  0.87454160  0.62138146  1
  O  O388  1  0.11705251  0.13091657  0.36750886  1
  O  O389  1  0.11910778  0.13873051  0.89490823  1
  O  O390  1  0.13994525  0.62629084  0.38465670  1
  O  O391  1  0.13122142  0.60150063  0.85923534  1
  O  O392  1  0.62212327  0.14495206  0.36823404  1
  O  O393  1  0.62078609  0.12517123  0.88299340  1
  O  O394  1  0.64692744  0.62483269  0.37184630  1
  O  O395  1  0.63657758  0.62326508  0.88025164  1
