# generated using pymatgen
data_V35Zn35O128
_symmetry_space_group_name_H-M   'P 1'
_cell_length_a   16.87578982
_cell_length_b   16.88093785
_cell_length_c   16.85249369
_cell_angle_alpha   90.14270964
_cell_angle_beta   90.06850180
_cell_angle_gamma   90.17512264
_symmetry_Int_Tables_number   1
_chemical_formula_structural   V35Zn35O128
_chemical_formula_sum   'V70 Zn70 O256'
_cell_volume   4800.88343989
_cell_formula_units_Z   2
loop_
 _symmetry_equiv_pos_site_id
 _symmetry_equiv_pos_as_xyz
  1  'x, y, z'
loop_
 _atom_site_type_symbol
 _atom_site_label
 _atom_site_symmetry_multiplicity
 _atom_site_fract_x
 _atom_site_fract_y
 _atom_site_fract_z
 _atom_site_occupancy
  V  V0  1  0.74464566  0.24713665  0.51181140  1
  V  V1  1  0.12363556  0.37182161  0.26419134  1
  V  V2  1  0.12498573  0.50974556  0.62461845  1
  V  V3  1  0.73852410  0.47688354  0.22077660  1
  V  V4  1  0.50669080  0.25036530  0.75627751  1
  V  V5  1  0.39697952  0.62950146  0.25370065  1
  V  V6  1  0.88780266  0.23186828  0.62710290  1
  V  V7  1  0.11789215  0.75982728  0.86797830  1
  V  V8  1  -0.00258371  -0.00167672  0.01092943  1
  V  V9  1  0.24630712  0.52137878  0.25784040  1
  V  V10  1  -0.01441804  0.63688107  0.63605250  1
  V  V11  1  0.36501357  -0.00111767  0.87633696  1
  V  V12  1  0.61713407  -0.02440468  0.61870689  1
  V  V13  1  0.37247978  0.25000683  0.62793393  1
  V  V14  1  0.25276582  0.50099642  0.75621911  1
  V  V15  1  0.38665883  0.74155289  0.12967739  1
  V  V16  1  0.11497094  0.37484390  0.76675516  1
  V  V17  1  0.38576583  0.63822817  0.74582397  1
  V  V18  1  0.38687760  0.13403611  0.24233034  1
  V  V19  1  0.75658970  0.76656594  -0.01235083  1
  V  V20  1  0.36530713  0.11851298  0.75307521  1
  V  V21  1  0.75682972  0.87998340  0.11926707  1
  V  V22  1  0.12513992  0.89681989  0.74355154  1
  V  V23  1  0.37513501  0.87428754  0.00800427  1
  V  V24  1  0.61761915  0.64371417  0.00190930  1
  V  V25  1  0.24463388  0.74279484  0.50108398  1
  V  V26  1  0.62274137  0.01091005  0.12443842  1
  V  V27  1  0.77501641  0.86399555  0.61865633  1
  V  V28  1  0.50038237  0.01969301  -0.00164373  1
  V  V29  1  0.38276971  0.87149025  0.49619850  1
  V  V30  1  0.87898133  0.13553180  0.25400281  1
  V  V31  1  0.24989666  0.14331427  0.89594717  1
  V  V32  1  0.50604275  0.49956207  0.01309772  1
  V  V33  1  0.62220105  0.75844531  0.36121479  1
  V  V34  1  0.87438192  0.37743809  0.50879151  1
  V  V35  1  0.25183666  0.62800322  0.88208621  1
  V  V36  1  -0.00083142  0.23849201  0.76109476  1
  V  V37  1  0.61482758  0.34762223  0.25094381  1
  V  V38  1  0.75136386  -0.00255840  0.26066517  1
  V  V39  1  0.62188466  0.37776482  0.73293044  1
  V  V40  1  0.00306818  0.50861756  0.49685340  1
  V  V41  1  0.24635808  0.24093647  0.49412845  1
  V  V42  1  0.76072527  0.74380807  0.48873208  1
  V  V43  1  0.50081675  0.86325079  0.86819453  1
  V  V44  1  0.25124442  -0.00453263  0.23945037  1
  V  V45  1  0.25769753  0.36681231  0.12757085  1
  V  V46  1  0.76111612  0.59941928  0.36609697  1
  V  V47  1  0.24617596  0.75481481  0.01656987  1
  V  V48  1  0.74706401  0.13944779  0.87223131  1
  V  V49  1  0.60927306  0.51171113  0.60968050  1
  V  V50  1  0.13397951  0.01327378  0.60006561  1
  V  V51  1  -0.01106918  0.00679898  0.49244938  1
  V  V52  1  0.38726777  0.50652030  0.38114544  1
  V  V53  1  0.50744869  0.11916014  0.61714533  1
  V  V54  1  0.24874405  0.37562894  0.62728399  1
  V  V55  1  0.75405842  -0.00261530  0.74785397  1
  V  V56  1  0.38712600  -0.00804334  0.37063136  1
  V  V57  1  -0.00515787  0.87458960  0.37176625  1
  V  V58  1  0.38334169  0.49214106  0.88583198  1
  V  V59  1  0.11043008  0.50223088  0.12654822  1
  V  V60  1  0.12721831  0.74092062  0.37312164  1
  V  V61  1  0.11180503  0.62350564  0.00836570  1
  V  V62  1  0.75315503  0.63219033  0.86460357  1
  V  V63  1  0.86610216  0.23580696  0.10227148  1
  V  V64  1  0.55455935  0.32156088  0.93014221  1
  V  V65  1  0.11826285  0.12815380  0.03674775  1
  V  V66  1  0.73794809  0.14107363  0.37852123  1
  V  V67  1  0.75827527  0.50077668  0.74395114  1
  V  V68  1  0.13042176  0.86928788  0.23609518  1
  V  V69  1  -0.00024999  0.36072885  0.37915273  1
  Zn  Zn70  1  0.50342046  0.36764579  0.38044703  1
  Zn  Zn71  1  0.88670898  0.71261356  0.13074506  1
  Zn  Zn72  1  0.88367820  0.00792981  0.86467977  1
  Zn  Zn73  1  0.25482208  0.87592950  0.62492304  1
  Zn  Zn74  1  0.37740203  0.38567357  0.50280691  1
  Zn  Zn75  1  0.09629053  0.17722401  0.42877728  1
  Zn  Zn76  1  0.18128538  0.17719196  0.23531902  1
  Zn  Zn77  1  0.17882030  0.18882159  0.68926288  1
  Zn  Zn78  1  0.05228206  0.69206654  0.19368685  1
  Zn  Zn79  1  0.19399662  0.69191959  0.68769257  1
  Zn  Zn80  1  0.69360358  0.18791809  0.18212736  1
  Zn  Zn81  1  0.69041343  0.18628691  0.68861975  1
  Zn  Zn82  1  0.70977870  0.68627903  0.19259570  1
  Zn  Zn83  1  0.69791108  0.67571992  0.66488952  1
  Zn  Zn84  1  0.31587264  0.32032773  0.30904429  1
  Zn  Zn85  1  0.31562194  0.31218307  0.81501874  1
  Zn  Zn86  1  0.31001956  0.81010479  0.31298645  1
  Zn  Zn87  1  0.30474821  0.81693618  0.81489012  1
  Zn  Zn88  1  0.84685141  0.34977571  0.27673599  1
  Zn  Zn89  1  0.81023198  0.31434542  0.80591721  1
  Zn  Zn90  1  0.81274669  0.80541831  0.29959387  1
  Zn  Zn91  1  0.67979481  0.82148715  0.80369827  1
  Zn  Zn92  1  0.19260266  0.44318084  0.43942866  1
  Zn  Zn93  1  0.19190613  0.43502417  0.94739092  1
  Zn  Zn94  1  0.19435932  0.93021260  0.42550667  1
  Zn  Zn95  1  0.17785949  0.94017360  0.94839506  1
  Zn  Zn96  1  0.68534145  0.42638615  0.43453165  1
  Zn  Zn97  1  0.68036747  0.45635130  0.92070648  1
  Zn  Zn98  1  0.67915409  0.92803787  0.44203310  1
  Zn  Zn99  1  0.67948314  0.94643557  0.93465628  1
  Zn  Zn100  1  0.31119838  0.06595681  0.07036304  1
  Zn  Zn101  1  0.31743093  0.05726610  0.55499960  1
  Zn  Zn102  1  0.30852906  0.55875014  0.07080642  1
  Zn  Zn103  1  0.31300289  0.57116278  0.56405251  1
  Zn  Zn104  1  0.81439487  0.06279705  0.05214388  1
  Zn  Zn105  1  0.80596349  0.05745644  0.56213035  1
  Zn  Zn106  1  0.76471826  0.57346210  0.07275576  1
  Zn  Zn107  1  0.81048360  0.56266967  0.56092460  1
  Zn  Zn108  1  0.44369661  0.43279857  0.19660850  1
  Zn  Zn109  1  0.43891221  0.44280210  0.69123876  1
  Zn  Zn110  1  0.44672141  0.93410288  0.19051217  1
  Zn  Zn111  1  0.43392031  0.93410515  0.68392346  1
  Zn  Zn112  1  0.91181217  0.54519752  0.19255270  1
  Zn  Zn113  1  0.94047119  0.43833935  0.68399819  1
  Zn  Zn114  1  0.93514107  0.93790448  0.19388278  1
  Zn  Zn115  1  0.94947309  0.94244975  0.68071558  1
  Zn  Zn116  1  0.06456788  0.05202895  0.30445215  1
  Zn  Zn117  1  0.07105969  0.06535445  0.81650376  1
  Zn  Zn118  1  0.05244180  0.55984832  0.31493282  1
  Zn  Zn119  1  0.06999297  0.57839115  0.80541072  1
  Zn  Zn120  1  0.56264180  0.06325649  0.31360261  1
  Zn  Zn121  1  0.56564983  0.05610920  0.80507315  1
  Zn  Zn122  1  0.57920955  0.56489178  0.31354033  1
  Zn  Zn123  1  0.56619591  0.56665592  0.81403251  1
  Zn  Zn124  1  0.43314240  0.17494810  0.42396720  1
  Zn  Zn125  1  0.62699638  0.14997618  0.99064124  1
  Zn  Zn126  1  0.44180387  0.69171025  0.44309405  1
  Zn  Zn127  1  0.43701211  0.68336081  0.93930848  1
  Zn  Zn128  1  0.92460526  0.18228573  0.43575447  1
  Zn  Zn129  1  0.94869268  0.15792515  0.92920132  1
  Zn  Zn130  1  0.93523933  0.69073134  0.42865828  1
  Zn  Zn131  1  0.93465516  0.68894831  0.93693397  1
  Zn  Zn132  1  0.10139555  0.28235640  0.10682612  1
  Zn  Zn133  1  0.06514480  0.31505422  0.56813847  1
  Zn  Zn134  1  0.04516872  0.82155729  0.05504303  1
  Zn  Zn135  1  0.06067104  0.81952353  0.55739950  1
  Zn  Zn136  1  0.70061924  0.34970921  0.07519279  1
  Zn  Zn137  1  0.53920762  0.28752953  0.53364150  1
  Zn  Zn138  1  0.55830294  0.82324174  0.08217606  1
  Zn  Zn139  1  0.55968548  0.78512433  0.54870765  1
  O  O140  1  0.12962478  0.12838425  0.13644590  1
  O  O141  1  0.12872545  0.11208924  0.62272745  1
  O  O142  1  0.11986959  0.61774470  0.11679893  1
  O  O143  1  0.12257199  0.61186928  0.63439789  1
  O  O144  1  0.63807497  0.11529956  0.10754226  1
  O  O145  1  0.60853181  0.12843158  0.62680663  1
  O  O146  1  0.65384038  0.62463977  0.10000010  1
  O  O147  1  0.61721498  0.61312040  0.61914225  1
  O  O148  1  0.37852542  0.39769942  0.37167412  1
  O  O149  1  0.36928715  0.39322664  0.87518872  1
  O  O150  1  0.37575853  0.87868397  0.37994619  1
  O  O151  1  0.37625485  0.88163071  0.88585103  1
  O  O152  1  0.89355271  0.36626590  0.38812156  1
  O  O153  1  0.86957125  0.36883049  0.90110335  1
  O  O154  1  0.89555113  0.86483623  0.35239938  1
  O  O155  1  0.89949594  0.86922428  0.87544676  1
  O  O156  1  0.26627205  -0.01422644  0.35325083  1
  O  O157  1  0.26330933  0.00341829  0.88888618  1
  O  O158  1  0.25732764  0.50240978  0.36365489  1
  O  O159  1  0.25585777  0.50800482  0.87481980  1
  O  O160  1  0.74280227  -0.00408893  0.36165166  1
  O  O161  1  0.75154181  -0.01652080  0.85290732  1
  O  O162  1  0.76078802  0.50178306  0.38910101  1
  O  O163  1  0.75056452  0.52059835  0.86050192  1
  O  O164  1  0.24365571  0.49589601  0.14386616  1
  O  O165  1  0.24591821  0.49546200  0.63630048  1
  O  O166  1  0.26335844  0.98541670  0.13755890  1
  O  O167  1  0.23825142  0.99782626  0.61445877  1
  O  O168  1  0.73873843  0.46903221  0.11634427  1
  O  O169  1  0.73806277  0.51207084  0.64024310  1
  O  O170  1  0.74285445  0.99617959  0.11893844  1
  O  O171  1  0.74338481  0.98389274  0.62754701  1
  O  O172  1  0.01097077  0.38491805  0.27637434  1
  O  O173  1  0.01209384  0.37913807  0.75331635  1
  O  O174  1  0.01610657  0.88749615  0.25909414  1
  O  O175  1  0.02356329  0.88177658  0.74761685  1
  O  O176  1  0.50739708  0.36732663  0.26156776  1
  O  O177  1  0.50983524  0.36393983  0.74302213  1
  O  O178  1  0.52760028  0.85791636  0.19207746  1
  O  O179  1  0.48425195  0.87973407  0.76924371  1
  O  O180  1  0.48819901  0.12490999  0.25528883  1
  O  O181  1  0.49122853  0.13359765  0.74668411  1
  O  O182  1  0.49393973  0.61801828  0.24510559  1
  O  O183  1  0.48469444  0.62471375  0.76038517  1
  O  O184  1  0.97593911  0.11393885  0.25647960  1
  O  O185  1  1.01116226  0.14112677  0.74682572  1
  O  O186  1  0.98593972  0.61485068  0.24489064  1
  O  O187  1  0.99502600  0.62371463  0.73766720  1
  O  O188  1  0.41082854  0.25262795  0.05681349  1
  O  O189  1  0.36394099  0.25392853  0.52150030  1
  O  O190  1  0.36315944  0.75061126  0.00825642  1
  O  O191  1  0.35662879  0.76181276  0.48487184  1
  O  O192  1  0.87897223  0.22444894  0.00493797  1
  O  O193  1  0.87550719  0.25513469  0.51323276  1
  O  O194  1  0.85644051  0.75296532  -0.00356092  1
  O  O195  1  0.86184123  0.75576786  0.49066512  1
  O  O196  1  0.13992640  0.25157889  0.50721158  1
  O  O197  1  0.11866781  0.22821754  1.00924294  1
  O  O198  1  0.13457148  0.75879917  0.48577238  1
  O  O199  1  0.13478092  0.74126381  0.99729052  1
  O  O200  1  0.64810216  0.25696515  0.52470845  1
  O  O201  1  0.61553913  0.26888367  0.99345821  1
  O  O202  1  0.64676204  0.75216897  0.48317469  1
  O  O203  1  0.61484310  0.74569402  1.00330441  1
  O  O204  1  0.46616586  0.25712228  0.10285401  1
  O  O205  1  0.48988341  0.23882171  0.63279756  1
  O  O206  1  0.48304294  0.73496627  0.11215046  1
  O  O207  1  0.54556198  0.75780509  0.69659281  1
  O  O208  1  0.97433235  0.27419445  0.12848216  1
  O  O209  1  0.99229707  0.25191615  0.63142785  1
  O  O210  1  0.99086891  0.74872278  0.11706614  1
  O  O211  1  1.01123808  0.73242900  0.61440598  1
  O  O212  1  0.00850958  0.25911137  0.39011809  1
  O  O213  1  -0.01117544  0.24591528  0.86052137  1
  O  O214  1  0.01283169  0.76361502  0.38383425  1
  O  O215  1  0.01975522  0.74950333  0.88692586  1
  O  O216  1  0.50337916  0.25924313  0.42446993  1
  O  O217  1  0.50032742  0.25749512  0.86654459  1
  O  O218  1  0.52473894  0.72934660  0.37459221  1
  O  O219  1  0.49118364  0.76390679  0.87903013  1
  O  O220  1  0.25839508  0.14176892  0.50177355  1
  O  O221  1  0.23944222  0.12380202  0.99993658  1
  O  O222  1  0.25090740  0.64148354  0.49980886  1
  O  O223  1  0.24570684  0.63388350  0.99784848  1
  O  O224  1  0.75861369  0.13643931  0.49123596  1
  O  O225  1  0.74433488  0.12111612  0.97848224  1
  O  O226  1  0.75885017  0.63486398  0.48744777  1
  O  O227  1  0.73918082  0.64561118  0.98155080  1
  O  O228  1  0.24951107  0.38158514  0.02630155  1
  O  O229  1  0.25507061  0.37564585  0.51673005  1
  O  O230  1  0.25620331  0.86110326  -0.00374695  1
  O  O231  1  0.25692711  0.86538019  0.49929198  1
  O  O232  1  0.74913988  0.37073633  -0.03260149  1
  O  O233  1  0.76933211  0.36002442  0.49400141  1
  O  O234  1  0.74848451  0.87330651  -0.00558934  1
  O  O235  1  0.75250165  0.87075479  0.51420441  1
  O  O236  1  0.13119904  0.50056426  0.24610807  1
  O  O237  1  0.13330900  0.49362291  0.74867388  1
  O  O238  1  0.14198511  0.98489344  0.24702051  1
  O  O239  1  0.13132585  0.99860312  0.74445089  1
  O  O240  1  0.63595463  0.48672777  0.25006003  1
  O  O241  1  0.62219473  0.49071007  0.74252326  1
  O  O242  1  0.63616358  1.01231548  0.23122376  1
  O  O243  1  0.63645015  0.99566807  0.73095958  1
  O  O244  1  0.37443619  -0.00673317  0.25311451  1
  O  O245  1  0.37700706  0.01269738  0.75852392  1
  O  O246  1  0.36706129  0.51689872  0.25707029  1
  O  O247  1  0.36591975  0.50620735  0.76327316  1
  O  O248  1  0.85472164  0.01267365  0.24202856  1
  O  O249  1  0.86109817  -0.00971318  0.74351111  1
  O  O250  1  0.84824852  0.46187329  0.23849981  1
  O  O251  1  0.85736940  0.49084256  0.74294888  1
  O  O252  1  0.12238573  0.37613432  0.37153152  1
  O  O253  1  0.12884234  0.38397217  0.86560731  1
  O  O254  1  0.11782138  0.86564299  0.36203740  1
  O  O255  1  0.13638630  0.86561950  0.86313355  1
  O  O256  1  0.61954618  0.37212880  0.36374623  1
  O  O257  1  0.61214316  0.37829722  0.86642022  1
  O  O258  1  0.62287929  0.86153883  0.37023734  1
  O  O259  1  0.60652477  0.87825464  0.87216908  1
  O  O260  1  0.37998580  0.12227667  0.13990065  1
  O  O261  1  0.38009741  0.12711846  0.63829104  1
  O  O262  1  0.36763475  0.63363498  0.13933073  1
  O  O263  1  0.36932568  0.61991251  0.64747466  1
  O  O264  1  0.86224165  0.13318411  0.13700535  1
  O  O265  1  0.88016056  0.13290297  0.62217767  1
  O  O266  1  0.86798802  0.60224506  0.10261211  1
  O  O267  1  0.88609471  0.62610601  0.62213988  1
  O  O268  1  0.23256181  0.26919378  0.14208868  1
  O  O269  1  0.25308936  0.25951844  0.62710100  1
  O  O270  1  0.25537638  0.74839261  0.11414394  1
  O  O271  1  0.24007983  0.75496655  0.60743612  1
  O  O272  1  0.76309055  0.26058601  0.11684476  1
  O  O273  1  0.76882752  0.24158620  0.61941203  1
  O  O274  1  0.73386793  0.77365863  0.09812704  1
  O  O275  1  0.75235618  0.75729225  0.61108796  1
  O  O276  1  0.26041217  0.26396359  0.39772237  1
  O  O277  1  0.26470896  0.24230587  0.88768823  1
  O  O278  1  0.23503520  0.75099405  0.37959228  1
  O  O279  1  0.24127803  0.74016229  0.88584451  1
  O  O280  1  0.74327369  0.24207667  0.39237137  1
  O  O281  1  0.74257759  0.23834515  0.85628698  1
  O  O282  1  0.74789250  0.75611455  0.38105844  1
  O  O283  1  0.73439737  0.75066738  0.87880684  1
  O  O284  1  0.01156428  0.11910854  0.02337759  1
  O  O285  1  0.00826984  0.11235418  0.47607086  1
  O  O286  1  0.01403224  0.62479765  -0.00658059  1
  O  O287  1  -0.00715411  0.60992132  0.50228446  1
  O  O288  1  0.49973047  0.11730905  -0.00724364  1
  O  O289  1  0.48620530  0.12327163  0.52008429  1
  O  O290  1  0.51023452  0.61568311  -0.00033624  1
  O  O291  1  0.49347786  0.69181909  0.54445783  1
  O  O292  1  0.49113335  0.38297410  0.49880494  1
  O  O293  1  0.50057424  0.38899745  0.98811814  1
  O  O294  1  0.48189960  0.86041248  0.50009164  1
  O  O295  1  0.48663468  0.87839141  0.99269173  1
  O  O296  1  0.99569691  0.38079262  0.49752763  1
  O  O297  1  0.98985903  0.47016176  0.93543146  1
  O  O298  1  1.00331828  0.88921785  0.48329874  1
  O  O299  1  1.02141574  0.90118577  0.98143346  1
  O  O300  1  0.48869359  0.50953965  0.37200805  1
  O  O301  1  0.48579286  0.50510056  0.88076162  1
  O  O302  1  0.48893045  0.99072046  0.36454733  1
  O  O303  1  0.48779729  0.99535735  0.88527501  1
  O  O304  1  1.00737319  0.48887373  0.39481178  1
  O  O305  1  0.97521536  0.50903594  0.87458505  1
  O  O306  1  1.00513475  0.98749054  0.38080381  1
  O  O307  1  0.99173156  1.04283931  0.89019668  1
  O  O308  1  -0.00646022  -0.00814979  0.11185737  1
  O  O309  1  0.01522648  -0.00236706  0.60051046  1
  O  O310  1  0.01368156  0.49441886  0.12904804  1
  O  O311  1  0.00718471  0.50912848  0.61822627  1
  O  O312  1  0.51234274  0.00387358  0.11113688  1
  O  O313  1  0.50975412  0.00937556  0.63396125  1
  O  O314  1  0.49035582  0.49513340  0.11089513  1
  O  O315  1  0.50812249  0.49488737  0.61962862  1
  O  O316  1  0.23353504  0.38535960  0.25356065  1
  O  O317  1  0.24169336  0.38287527  0.74825776  1
  O  O318  1  0.23835604  0.87299844  0.24646792  1
  O  O319  1  0.23274498  0.86550209  0.74167768  1
  O  O320  1  0.73215417  0.37404345  0.25627263  1
  O  O321  1  0.73398556  0.39139884  0.75976263  1
  O  O322  1  0.74801183  0.89204395  0.23297991  1
  O  O323  1  0.74195019  0.87649593  0.72563559  1
  O  O324  1  0.26749600  0.10128979  0.24521908  1
  O  O325  1  0.26558536  0.13550430  0.75001357  1
  O  O326  1  0.24971435  0.61815229  0.25278189  1
  O  O327  1  0.24994792  0.61469977  0.76268260  1
  O  O328  1  0.75131017  0.11892318  0.26208055  1
  O  O329  1  0.74488410  0.10545958  0.75206144  1
  O  O330  1  0.75373345  0.58408644  0.25190503  1
  O  O331  1  0.73935420  0.62084645  0.75690726  1
  O  O332  1  0.37367085  0.10210405  0.36437813  1
  O  O333  1  0.36197324  0.11815839  0.86511181  1
  O  O334  1  0.38191731  0.62426472  0.36188443  1
  O  O335  1  0.36449580  0.61758522  0.87125616  1
  O  O336  1  0.85559765  0.12828162  0.36232528  1
  O  O337  1  0.85100556  0.12218599  0.86617975  1
  O  O338  1  0.85966867  0.63058520  0.36651414  1
  O  O339  1  0.85330341  0.64124984  0.87176610  1
  O  O340  1  0.12974581  0.39226290  0.13932788  1
  O  O341  1  0.13306197  0.38669151  0.63757527  1
  O  O342  1  0.11898957  0.86262038  0.13705020  1
  O  O343  1  0.12599607  0.89067006  0.63059311  1
  O  O344  1  0.61540016  0.36288597  0.14767992  1
  O  O345  1  0.62885344  0.38433137  0.63465952  1
  O  O346  1  0.63993341  0.90132016  0.10950967  1
  O  O347  1  0.60677365  0.87574416  0.61543547  1
  O  O348  1  0.11322985  0.27445210  0.23828186  1
  O  O349  1  0.11292112  0.26682329  0.74736662  1
  O  O350  1  0.12176797  0.75865691  0.26003807  1
  O  O351  1  0.12605437  0.74011274  0.76834341  1
  O  O352  1  0.62658789  0.24692450  0.25370277  1
  O  O353  1  0.61787332  0.26339091  0.74094893  1
  O  O354  1  0.63839604  0.74322672  0.25974060  1
  O  O355  1  0.60850293  0.74085538  0.73513256  1
  O  O356  1  0.36739732  0.23217342  0.26133873  1
  O  O357  1  0.38399416  0.24268830  0.74616939  1
  O  O358  1  0.37650479  0.74118971  0.24083148  1
  O  O359  1  0.36532745  0.73650575  0.75908673  1
  O  O360  1  0.87076989  0.23975718  0.24524466  1
  O  O361  1  0.88752690  0.26039337  0.73665344  1
  O  O362  1  0.81653592  0.73226466  0.21575319  1
  O  O363  1  0.88101734  0.82261396  0.82205012  1
  O  O364  1  0.36797038  0.51034525  0.48408275  1
  O  O365  1  0.38346223  0.51085014  0.99229746  1
  O  O366  1  0.37203833  0.98720859  0.48152760  1
  O  O367  1  0.38367037  0.99479683  0.99875638  1
  O  O368  1  0.88733970  0.48495722  0.50926338  1
  O  O369  1  0.83476202  0.39211006  0.96541205  1
  O  O370  1  0.88960224  1.00725071  0.50028918  1
  O  O371  1  0.88947964  1.00251118  0.99014592  1
  O  O372  1  0.11687633  0.02151094  -0.00188164  1
  O  O373  1  0.12818362  0.00373466  0.49709110  1
  O  O374  1  0.13076742  0.51283713  0.01473997  1
  O  O375  1  0.11419434  0.49360036  0.51239697  1
  O  O376  1  0.60802473  0.00554919  0.00010790  1
  O  O377  1  0.63248561  -0.00009262  0.52110581  1
  O  O378  1  0.61005714  0.50419014  -0.00070984  1
  O  O379  1  0.63420587  0.49003118  0.51425220  1
  O  O380  1  0.35598947  0.37618641  0.15105877  1
  O  O381  1  0.36334574  0.36792505  0.63683088  1
  O  O382  1  0.37914662  0.85793534  0.11523928  1
  O  O383  1  0.37067856  0.88510585  0.60536518  1
  O  O384  1  0.91949872  0.33573323  0.12081762  1
  O  O385  1  0.88064433  0.36647676  0.61182456  1
  O  O386  1  0.85728846  0.88155780  0.12246302  1
  O  O387  1  0.87361665  0.87100075  0.62472513  1
  O  O388  1  0.13404158  0.13637275  0.33379511  1
  O  O389  1  0.15606930  0.12877116  0.86297206  1
  O  O390  1  0.11396729  0.64126865  0.37091051  1
  O  O391  1  0.13354597  0.62737778  0.88905386  1
  O  O392  1  0.64014815  0.11686255  0.37832041  1
  O  O393  1  0.63723251  0.11614545  0.87169600  1
  O  O394  1  0.65647448  0.63121707  0.36802676  1
  O  O395  1  0.63227555  0.62341314  0.88983547  1
