# generated using pymatgen
data_V35Zn35O128
_symmetry_space_group_name_H-M   'P 1'
_cell_length_a   16.87843203
_cell_length_b   16.86794791
_cell_length_c   16.90291105
_cell_angle_alpha   90.04561984
_cell_angle_beta   89.85473465
_cell_angle_gamma   89.78283160
_symmetry_Int_Tables_number   1
_chemical_formula_structural   V35Zn35O128
_chemical_formula_sum   'V70 Zn70 O256'
_cell_volume   4812.28345028
_cell_formula_units_Z   2
loop_
 _symmetry_equiv_pos_site_id
 _symmetry_equiv_pos_as_xyz
  1  'x, y, z'
loop_
 _atom_site_type_symbol
 _atom_site_label
 _atom_site_symmetry_multiplicity
 _atom_site_fract_x
 _atom_site_fract_y
 _atom_site_fract_z
 _atom_site_occupancy
  V  V0  1  0.25282764  0.49963955  0.75179882  1
  V  V1  1  0.62840440  0.12984193  0.52107392  1
  V  V2  1  0.74323112  0.37145643  0.13067488  1
  V  V3  1  0.49895617  0.77422184  0.76042601  1
  V  V4  1  0.85917005  0.36930314  0.49486340  1
  V  V5  1  0.12466056  0.39211009  0.23895017  1
  V  V6  1  0.78900734  0.75228186  -0.02017859  1
  V  V7  1  0.00069673  0.11870307  0.62457477  1
  V  V8  1  0.76138061  0.88634244  0.59648929  1
  V  V9  1  0.89465093  0.25196467  0.13090368  1
  V  V10  1  0.74496172  0.14051147  0.36972882  1
  V  V11  1  0.24593734  0.87457114  0.61497488  1
  V  V12  1  0.25669022  0.00290342  0.27069547  1
  V  V13  1  0.63631034  0.50938817  0.12707529  1
  V  V14  1  -0.00101307  0.50088743  0.49703702  1
  V  V15  1  0.50458897  0.48840566  0.00062750  1
  V  V16  1  0.26260582  0.37668302  0.12795513  1
  V  V17  1  0.50689534  0.63462163  0.11464253  1
  V  V18  1  0.50075544  0.49808398  0.51244647  1
  V  V19  1  0.00818075  0.49931329  -0.02951845  1
  V  V20  1  0.22829645  0.75163645  0.00384359  1
  V  V21  1  0.11526875  0.11845002  0.50194338  1
  V  V22  1  0.00232882  0.37706756  0.37051838  1
  V  V23  1  0.37437450  0.49026611  0.89272387  1
  V  V24  1  0.74212270  0.13023543  0.87423742  1
  V  V25  1  0.74357843  -0.01263978  0.74946621  1
  V  V26  1  0.25327959  0.37025742  0.62354535  1
  V  V27  1  0.37035283  0.37653481  0.48696431  1
  V  V28  1  0.38301974  0.62540051  0.74984598  1
  V  V29  1  0.62555380  0.11122641  0.01335206  1
  V  V30  1  0.60901945  0.75253455  0.89828063  1
  V  V31  1  0.37217726  0.74873471  0.12982335  1
  V  V32  1  0.12276790  0.24316706  0.36620616  1
  V  V33  1  0.11618823  0.37220243  0.75109476  1
  V  V34  1  0.52785188  0.36998379  0.36540686  1
  V  V35  1  0.50514335  0.25226249  0.23568346  1
  V  V36  1  0.48392169  0.24874052  0.76366950  1
  V  V37  1  0.38595964  0.87765464  -0.00222953  1
  V  V38  1  0.47052258  0.12312783  0.63416209  1
  V  V39  1  -0.01485325  0.75758674  0.74606529  1
  V  V40  1  0.17545190  0.57859290  0.44142876  1
  V  V41  1  0.88072342  0.13281666  0.75234719  1
  V  V42  1  0.11658199  0.13075688  0.00851348  1
  V  V43  1  0.86241341  0.52310269  0.37305195  1
  V  V44  1  0.62933869  0.36762274  0.76630911  1
  V  V45  1  0.50913403  0.89017820  0.39891884  1
  V  V46  1  0.12229354  0.75869663  0.85491742  1
  V  V47  1  0.24384821  0.89168804  0.12234416  1
  V  V48  1  0.23610134  -0.01317812  0.75212764  1
  V  V49  1  0.37808695  0.75541765  0.61391597  1
  V  V50  1  0.87047535  0.25771930  0.62422001  1
  V  V51  1  0.11642505  0.88270963  0.24895364  1
  V  V52  1  0.11491841  0.25315658  0.86821612  1
  V  V53  1  0.24177300  0.62328111  0.88743243  1
  V  V54  1  0.26676733  0.24853340  0.00644340  1
  V  V55  1  -0.01760773  0.62632549  0.62850771  1
  V  V56  1  0.88608326  0.11494029  0.24274182  1
  V  V57  1  0.88638512  -0.01195844  0.86819400  1
  V  V58  1  0.00817101  -0.00000432  0.00178806  1
  V  V59  1  0.25042892  0.24242161  0.50019557  1
  V  V60  1  0.88272899  0.37455843  -0.01210975  1
  V  V61  1  -0.00764842  0.87946889  0.40353611  1
  V  V62  1  0.38624993  -0.00327423  0.87225532  1
  V  V63  1  0.87523772  0.00623279  0.40101610  1
  V  V64  1  0.12949839  0.50768843  0.62342807  1
  V  V65  1  0.14164206  0.76707764  0.39669861  1
  V  V66  1  0.64164957  0.87958225  0.25710338  1
  V  V67  1  0.49948529  0.08217642  0.12588790  1
  V  V68  1  0.25425313  0.12453557  0.86587341  1
  V  V69  1  0.63149983  0.49384015  0.63572694  1
  Zn  Zn70  1  0.37227606  0.11864354  0.23462137  1
  Zn  Zn71  1  0.68048870  0.62163767  0.34901180  1
  Zn  Zn72  1  0.73919253  0.61893691  0.85281769  1
  Zn  Zn73  1  0.87921137  0.87938360  0.02812120  1
  Zn  Zn74  1  0.74315617  0.25444021  -0.00332577  1
  Zn  Zn75  1  0.55689043  0.72010988  0.28387028  1
  Zn  Zn76  1  0.18972596  0.18331878  0.18552139  1
  Zn  Zn77  1  0.18931032  0.18379637  0.68692464  1
  Zn  Zn78  1  0.19649211  0.71109582  0.21168094  1
  Zn  Zn79  1  0.19718850  0.68821797  0.68286776  1
  Zn  Zn80  1  0.69037547  0.18136996  0.19070714  1
  Zn  Zn81  1  0.68985475  0.19495853  0.69550038  1
  Zn  Zn82  1  0.69287076  0.72078154  0.15785599  1
  Zn  Zn83  1  0.66022593  0.67351894  0.68907808  1
  Zn  Zn84  1  0.31607834  0.29634539  0.30136855  1
  Zn  Zn85  1  0.30717934  0.31095388  0.81640171  1
  Zn  Zn86  1  0.35060252  0.76119247  0.34814154  1
  Zn  Zn87  1  0.31103575  0.81166964  0.81718303  1
  Zn  Zn88  1  0.81057597  0.31478144  0.30663147  1
  Zn  Zn89  1  0.81054045  0.31306116  0.80815871  1
  Zn  Zn90  1  0.78108059  0.83129100  0.38756387  1
  Zn  Zn91  1  0.77234021  0.77481472  0.77609484  1
  Zn  Zn92  1  0.22452971  0.40971715  0.39688368  1
  Zn  Zn93  1  0.18936254  0.43177395  0.94454674  1
  Zn  Zn94  1  0.19055598  0.93891436  0.44228533  1
  Zn  Zn95  1  0.18051914  0.93854232  0.93470889  1
  Zn  Zn96  1  0.68488552  0.45170181  0.43657143  1
  Zn  Zn97  1  0.68785250  0.43249962  0.93651522  1
  Zn  Zn98  1  0.68085721  0.96538351  0.43263850  1
  Zn  Zn99  1  0.69317614  0.92796887  0.93269991  1
  Zn  Zn100  1  0.31245779  0.06500022  0.05197958  1
  Zn  Zn101  1  0.30165710  0.06188390  0.56864041  1
  Zn  Zn102  1  0.27293412  0.58345829  0.10394931  1
  Zn  Zn103  1  0.32352762  0.56376456  0.56544482  1
  Zn  Zn104  1  0.82951314  0.07280655  0.05076441  1
  Zn  Zn105  1  0.79969663  0.07840225  0.56778298  1
  Zn  Zn106  1  0.79877956  0.55229830  0.00346951  1
  Zn  Zn107  1  0.80635741  0.55707990  0.56461064  1
  Zn  Zn108  1  0.44025281  0.44135519  0.18622028  1
  Zn  Zn109  1  0.43633804  0.42078672  0.69351819  1
  Zn  Zn110  1  0.44322067  0.91577646  0.25519807  1
  Zn  Zn111  1  0.42744782  0.94306808  0.68745046  1
  Zn  Zn112  1  0.92146378  0.42989392  0.19885926  1
  Zn  Zn113  1  0.94252548  0.43220606  0.67796229  1
  Zn  Zn114  1  0.94207224  0.93459771  0.18175441  1
  Zn  Zn115  1  0.93023545  0.93535811  0.67891328  1
  Zn  Zn116  1  0.05814111  0.05814462  0.31334062  1
  Zn  Zn117  1  0.06455696  0.06862219  0.81074429  1
  Zn  Zn118  1  0.31297073  0.57850399  0.29229962  1
  Zn  Zn119  1  0.06521508  0.56863591  0.80586971  1
  Zn  Zn120  1  0.57111792  0.05785774  0.30306239  1
  Zn  Zn121  1  0.56158486  0.06324715  0.80403774  1
  Zn  Zn122  1  0.48058914  0.56178009  0.31508859  1
  Zn  Zn123  1  0.56567012  0.55819701  0.82116718  1
  Zn  Zn124  1  0.47807142  0.22298749  0.47055741  1
  Zn  Zn125  1  0.44644198  0.17417686  0.94351371  1
  Zn  Zn126  1  0.46576291  0.67352860  0.43412205  1
  Zn  Zn127  1  0.42765736  0.68514161  0.94206562  1
  Zn  Zn128  1  0.93772059  0.19047880  0.43455039  1
  Zn  Zn129  1  0.93388412  0.19294401  0.93671101  1
  Zn  Zn130  1  0.99154679  0.66713265  0.41006892  1
  Zn  Zn131  1  0.94310320  0.67911329  0.93212655  1
  Zn  Zn132  1  0.06874983  0.31786085  0.05600085  1
  Zn  Zn133  1  0.06021234  0.30813451  0.56313225  1
  Zn  Zn134  1  0.04663843  0.82114345  0.06703244  1
  Zn  Zn135  1  0.05815190  0.81769161  0.57808745  1
  Zn  Zn136  1  0.56438495  0.30606585  0.05316185  1
  Zn  Zn137  1  0.57605390  0.29665999  0.59033972  1
  Zn  Zn138  1  0.56382856  0.82961142  0.07875001  1
  Zn  Zn139  1  0.55148233  0.82805156  0.57356677  1
  O  O140  1  0.12227278  0.13352678  0.10707498  1
  O  O141  1  0.11038498  0.13225728  0.61653604  1
  O  O142  1  0.06496252  0.67212918  0.15636749  1
  O  O143  1  0.12690624  0.61033242  0.63002430  1
  O  O144  1  0.62362329  0.10993257  0.11921735  1
  O  O145  1  0.64363461  0.12068074  0.62038333  1
  O  O146  1  0.61258336  0.62231663  0.10948957  1
  O  O147  1  0.60551919  0.59470116  0.63429746  1
  O  O148  1  0.34449442  0.37664258  0.38625535  1
  O  O149  1  0.36515795  0.39291549  0.87175921  1
  O  O150  1  0.41499736  0.85316584  0.36565114  1
  O  O151  1  0.37023835  0.88200989  0.88813601  1
  O  O152  1  0.88263171  0.37376123  0.38529475  1
  O  O153  1  0.87382670  0.36062497  0.88931520  1
  O  O154  1  0.88276545  0.89095098  0.38886605  1
  O  O155  1  0.88480990  0.89241253  0.86089540  1
  O  O156  1  0.25580817  -0.00113796  0.36973099  1
  O  O157  1  0.24766647  0.00581491  0.86679593  1
  O  O158  1  0.23070532  0.52324029  0.37410431  1
  O  O159  1  0.25325674  0.50441945  0.87298375  1
  O  O160  1  0.77161496  0.01452720  0.37627826  1
  O  O161  1  0.76605142  0.00678720  0.86495769  1
  O  O162  1  0.75342450  0.53428868  0.38836230  1
  O  O163  1  0.74907707  0.51893992  0.90455535  1
  O  O164  1  0.24706748  0.47361542  0.10914999  1
  O  O165  1  0.24659972  0.49398429  0.63244225  1
  O  O166  1  0.24382550  0.99122899  0.11268636  1
  O  O167  1  0.26104168  0.98734433  0.64334982  1
  O  O168  1  0.73990148  0.50334231  0.10100288  1
  O  O169  1  0.73229795  0.49753295  0.62426107  1
  O  O170  1  0.75615474  0.99331016  0.11821998  1
  O  O171  1  0.75741881  0.99070245  0.63510656  1
  O  O172  1  0.00968035  0.38240732  0.25936640  1
  O  O173  1  0.01661510  0.37791242  0.74386786  1
  O  O174  1  0.01614737  0.88901258  0.26075247  1
  O  O175  1  0.00005851  0.85597989  0.72589465  1
  O  O176  1  0.50229803  0.36662949  0.25951434  1
  O  O177  1  0.50279824  0.35658762  0.75656973  1
  O  O178  1  0.53462684  0.83586372  0.26695100  1
  O  O179  1  0.49077965  0.87280805  0.75978631  1
  O  O180  1  0.50425108  0.12277679  0.22811059  1
  O  O181  1  0.50154716  0.13553975  0.74235580  1
  O  O182  1  0.49571982  0.63498240  0.21696376  1
  O  O183  1  0.48126645  0.61645209  0.75581665  1
  O  O184  1  0.98590615  0.12729381  0.25550364  1
  O  O185  1  0.99198505  0.12672888  0.73791668  1
  O  O186  1  1.01577443  0.67424842  0.21099297  1
  O  O187  1  1.00054724  0.62946674  0.73392160  1
  O  O188  1  0.36503497  0.23902777  -0.00287050  1
  O  O189  1  0.35444704  0.25425092  0.49211390  1
  O  O190  1  0.35747652  0.76530442  0.00019650  1
  O  O191  1  0.39026719  0.74188723  0.51766285  1
  O  O192  1  0.87271506  0.25575840  0.01406993  1
  O  O193  1  0.87689739  0.26280160  0.50515778  1
  O  O194  1  0.89237312  0.77305304  -0.02279457  1
  O  O195  1  0.77736653  0.70166120  0.48932090  1
  O  O196  1  0.13089044  0.24516075  0.49179039  1
  O  O197  1  0.12998770  0.24354201  0.98602106  1
  O  O198  1  0.12585343  0.76778098  0.49554650  1
  O  O199  1  0.12477862  0.75492972  1.00230839  1
  O  O200  1  0.60547713  0.23323832  0.49962065  1
  O  O201  1  0.62890389  0.22434366  1.00551259  1
  O  O202  1  0.58879359  0.75795311  0.48595607  1
  O  O203  1  0.60221980  0.75043161  0.99785813  1
  O  O204  1  0.49469502  0.26196881  0.13610038  1
  O  O205  1  0.49441799  0.23663548  0.64286792  1
  O  O206  1  0.48232762  0.74468001  0.10896455  1
  O  O207  1  0.48499488  0.75992626  0.64582339  1
  O  O208  1  0.99268311  0.25537579  0.12263378  1
  O  O209  1  0.98451184  0.24033246  0.61980529  1
  O  O210  1  0.94418532  0.84286481  0.11537174  1
  O  O211  1  0.99923682  0.73359030  0.63048473  1
  O  O212  1  0.01277584  0.26621617  0.38430482  1
  O  O213  1  0.01621538  0.24778851  0.87279310  1
  O  O214  1  0.00467868  0.77583146  0.38307927  1
  O  O215  1  0.01457513  0.73710704  0.85563468  1
  O  O216  1  0.50134799  0.26738042  0.36791240  1
  O  O217  1  0.50016248  0.23163565  0.86395278  1
  O  O218  1  0.53543389  0.77007041  0.42512236  1
  O  O219  1  0.49716618  0.74730356  0.86943951  1
  O  O220  1  0.23397260  0.13650748  0.50830844  1
  O  O221  1  0.23810444  0.13374229  0.99210989  1
  O  O222  1  0.24249402  0.61991692  0.50183700  1
  O  O223  1  0.24885445  0.63593782  0.99648677  1
  O  O224  1  0.73720594  0.12974152  0.48611781  1
  O  O225  1  0.74856527  0.12463859  0.98712659  1
  O  O226  1  0.73424160  0.64340150  0.52270031  1
  O  O227  1  0.82955619  0.64703328  0.93891301  1
  O  O228  1  0.24868431  0.35544682  0.01063711  1
  O  O229  1  0.25039589  0.36608564  0.50604798  1
  O  O230  1  0.23773109  0.87006500  0.01039807  1
  O  O231  1  0.26109918  0.89161148  0.51669550  1
  O  O232  1  0.76423205  0.37286497  0.00809393  1
  O  O233  1  0.76153325  0.37906823  0.49066398  1
  O  O234  1  0.76625693  0.85877586  -0.00676649  1
  O  O235  1  0.75015444  0.88744642  0.49415998  1
  O  O236  1  0.12712465  0.48753888  0.23776967  1
  O  O237  1  0.13651917  0.49309882  0.74342854  1
  O  O238  1  0.13824369  0.99085136  0.26295831  1
  O  O239  1  0.13656630  1.00094639  0.75216823  1
  O  O240  1  0.63431688  0.51127882  0.22366943  1
  O  O241  1  0.61236623  0.48368057  0.74664543  1
  O  O242  1  0.63584647  0.97836374  0.24222493  1
  O  O243  1  0.64534210  0.99965552  0.75653113  1
  O  O244  1  0.36057644  -0.00386371  0.24836265  1
  O  O245  1  0.36040405  -0.00601011  0.77072761  1
  O  O246  1  0.39605506  0.50499673  0.26745525  1
  O  O247  1  0.36564995  0.50626987  0.75201778  1
  O  O248  1  0.88021588  0.01288305  0.23954149  1
  O  O249  1  0.87290590  0.01145180  0.75461141  1
  O  O250  1  0.86824380  0.49517754  0.27723620  1
  O  O251  1  0.85300664  0.48026951  0.74552195  1
  O  O252  1  0.12218126  0.36698407  0.35835084  1
  O  O253  1  0.13618119  0.36024136  0.86568435  1
  O  O254  1  0.11454459  0.87908986  0.37936206  1
  O  O255  1  0.12840142  0.85696325  0.87058525  1
  O  O256  1  0.62722679  0.37483138  0.37160523  1
  O  O257  1  0.61992560  0.37469002  0.86830115  1
  O  O258  1  0.61942198  0.88698525  0.37502591  1
  O  O259  1  0.62258866  0.85393926  0.88060751  1
  O  O260  1  0.39670854  0.10626511  0.11670883  1
  O  O261  1  0.36984156  0.12903312  0.62813019  1
  O  O262  1  0.37236859  0.64606319  0.11714387  1
  O  O263  1  0.36550419  0.63858133  0.64333010  1
  O  O264  1  0.87192196  0.14025658  0.13248489  1
  O  O265  1  0.88173827  0.13523895  0.63069718  1
  O  O266  1  0.91626042  0.58601803  0.13575498  1
  O  O267  1  0.88393260  0.61588630  0.62668150  1
  O  O268  1  0.25149965  0.24875433  0.11188386  1
  O  O269  1  0.23674241  0.25863609  0.61075619  1
  O  O270  1  0.25261384  0.76014928  0.11722043  1
  O  O271  1  0.26492175  0.76189912  0.62863279  1
  O  O272  1  0.74689234  0.26454143  0.12465756  1
  O  O273  1  0.77057617  0.24282828  0.62329724  1
  O  O274  1  0.75871366  0.71053273  0.06799726  1
  O  O275  1  0.70820261  0.79171117  0.62624185  1
  O  O276  1  0.23273462  0.25393550  0.38684479  1
  O  O277  1  0.24748378  0.24083077  0.88608780  1
  O  O278  1  0.24111891  0.76731695  0.38631504  1
  O  O279  1  0.23761065  0.74366938  0.88314565  1
  O  O280  1  0.75977341  0.24045736  0.37480834  1
  O  O281  1  0.75339018  0.23284083  0.87372870  1
  O  O282  1  0.75124845  0.71876352  0.41234987  1
  O  O283  1  0.72912015  0.74873844  0.88887740  1
  O  O284  1  0.01187571  0.12485874  -0.00902028  1
  O  O285  1  0.00693891  0.12991677  0.50942173  1
  O  O286  1  0.00022795  0.59975317  -0.01149503  1
  O  O287  1  -0.00279933  0.61205376  0.51370842  1
  O  O288  1  0.51475228  0.11177991  0.01541558  1
  O  O289  1  0.50383890  0.13028412  0.53098400  1
  O  O290  1  0.48234423  0.61006749  0.01071024  1
  O  O291  1  0.48465862  0.59587145  0.51416168  1
  O  O292  1  0.47490625  0.35691660  0.48816087  1
  O  O293  1  0.49467720  0.38878915  1.01141762  1
  O  O294  1  0.50464454  0.90365352  0.49911917  1
  O  O295  1  0.48384909  0.87671963  1.00987112  1
  O  O296  1  0.99988657  0.38714583  0.49447181  1
  O  O297  1  0.98914574  0.37560152  0.99904731  1
  O  O298  1  1.00042386  0.88407827  0.50223816  1
  O  O299  1  1.02309353  0.90153262  0.98439051  1
  O  O300  1  0.50003400  0.47013661  0.39827658  1
  O  O301  1  0.48384835  0.50461229  0.88968263  1
  O  O302  1  0.49721295  0.98299882  0.34867007  1
  O  O303  1  0.48508511  1.00587351  0.87034554  1
  O  O304  1  0.98812679  0.49180461  0.38656426  1
  O  O305  1  1.00909259  0.49363900  0.86972445  1
  O  O306  1  0.98648030  0.99231698  0.37860927  1
  O  O307  1  0.98954789  1.01357378  0.87648917  1
  O  O308  1  -0.00541699  0.00641789  0.10078084  1
  O  O309  1  -0.00980499  0.01904118  0.62452805  1
  O  O310  1  -0.03180131  0.53310370  0.14449574  1
  O  O311  1  0.00856336  0.50726151  0.61898089  1
  O  O312  1  0.50152257  -0.01459010  0.14034338  1
  O  O313  1  0.49185939  0.02113039  0.64135456  1
  O  O314  1  0.50864954  0.50945225  0.11594751  1
  O  O315  1  0.49299122  0.47746902  0.61325194  1
  O  O316  1  0.23819918  0.36512835  0.24087362  1
  O  O317  1  0.24420878  0.38251428  0.74198993  1
  O  O318  1  0.24367281  0.89366350  0.23309622  1
  O  O319  1  0.24952477  0.88305406  0.75013218  1
  O  O320  1  0.75675814  0.38363371  0.22986775  1
  O  O321  1  0.73138063  0.37018629  0.75451058  1
  O  O322  1  0.73773212  0.85496161  0.28547517  1
  O  O323  1  0.75899143  0.88722416  0.75348505  1
  O  O324  1  0.25205670  0.10626196  0.24301687  1
  O  O325  1  0.24808634  0.11460555  0.75942251  1
  O  O326  1  0.24080322  0.61183893  0.21219307  1
  O  O327  1  0.25541425  0.61376778  0.75925384  1
  O  O328  1  0.76987171  0.13159179  0.26021102  1
  O  O329  1  0.75995892  0.11758756  0.75834304  1
  O  O330  1  0.84451152  0.69070837  0.22697767  1
  O  O331  1  0.75328857  0.66545169  0.74863813  1
  O  O332  1  0.38922120  0.08931477  0.42035536  1
  O  O333  1  0.36222477  0.10574922  0.89099261  1
  O  O334  1  0.38100262  0.65099800  0.35908019  1
  O  O335  1  0.36028815  0.61509657  0.86779286  1
  O  O336  1  0.87585709  0.11847926  0.36726018  1
  O  O337  1  0.86912585  0.12509731  0.86573448  1
  O  O338  1  0.89295483  0.61862889  0.37622238  1
  O  O339  1  0.86704340  0.53552561  0.79332832  1
  O  O340  1  0.13170998  0.36135449  0.13853413  1
  O  O341  1  0.13186852  0.38590146  0.62889676  1
  O  O342  1  0.13009571  0.86998487  0.14066125  1
  O  O343  1  0.14621133  0.87138794  0.62510263  1
  O  O344  1  0.63823363  0.38908262  0.11503951  1
  O  O345  1  0.61964163  0.38286053  0.64211373  1
  O  O346  1  0.64449072  0.83276976  0.15616960  1
  O  O347  1  0.65176366  0.85855472  0.63015382  1
  O  O348  1  0.12700791  0.23781060  0.26592262  1
  O  O349  1  0.13457227  0.25696290  0.76000178  1
  O  O350  1  0.13289268  0.77782608  0.27420463  1
  O  O351  1  0.12623938  0.74897573  0.75311157  1
  O  O352  1  0.60533823  0.23863045  0.24403599  1
  O  O353  1  0.61600780  0.26062592  0.74945639  1
  O  O354  1  0.67099712  0.69905595  0.26483406  1
  O  O355  1  0.59825640  0.75269973  0.75255946  1
  O  O356  1  0.39493700  0.22674290  0.26358363  1
  O  O357  1  0.38188896  0.25109448  0.75637807  1
  O  O358  1  0.36686558  0.76671831  0.22723513  1
  O  O359  1  0.38181435  0.73714013  0.75913151  1
  O  O360  1  0.87827385  0.25066593  0.23485771  1
  O  O361  1  0.87455891  0.24543993  0.73747090  1
  O  O362  1  0.87954046  0.75313432  0.23941305  1
  O  O363  1  0.88857693  0.75246662  0.76061296  1
  O  O364  1  0.37674752  0.48118871  0.50321318  1
  O  O365  1  0.37322667  0.49620672  0.99206506  1
  O  O366  1  0.37410139  1.03303439  0.46591751  1
  O  O367  1  0.36536625  0.98430844  0.98788644  1
  O  O368  1  0.87741112  0.48986626  0.49306371  1
  O  O369  1  0.89344478  0.48147627  1.00095127  1
  O  O370  1  0.87586802  1.01811928  0.49866427  1
  O  O371  1  0.88742698  0.99572977  0.98606060  1
  O  O372  1  0.11914249  0.02220159  -0.01235421  1
  O  O373  1  0.12798751  0.02044896  0.49717020  1
  O  O374  1  0.10438821  0.47958866  0.00207178  1
  O  O375  1  0.12077852  0.50735467  0.50118205  1
  O  O376  1  0.64029958  0.01190953  -0.00682787  1
  O  O377  1  0.61026816  0.03581217  0.48358204  1
  O  O378  1  0.60682767  0.49829081  -0.00000530  1
  O  O379  1  0.60839917  0.48539122  0.51673053  1
  O  O380  1  0.36183699  0.37113153  0.13934105  1
  O  O381  1  0.35763637  0.37302499  0.61470623  1
  O  O382  1  0.35584626  0.87105798  0.10895940  1
  O  O383  1  0.36807623  0.86215728  0.63066839  1
  O  O384  1  0.86832717  0.36580378  0.11929260  1
  O  O385  1  0.87789339  0.36771976  0.60967634  1
  O  O386  1  0.79119562  0.93015715  0.13797172  1
  O  O387  1  0.85798844  0.86668320  0.61631808  1
  O  O388  1  0.11048938  0.13668096  0.38865198  1
  O  O389  1  0.13492944  0.13931770  0.87469912  1
  O  O390  1  0.11637967  0.65170753  0.38967152  1
  O  O391  1  0.13759331  0.63462983  0.86888063  1
  O  O392  1  0.64513326  0.12692296  0.35678011  1
  O  O393  1  0.64067109  0.11711635  0.87691039  1
  O  O394  1  0.56084342  0.62821453  0.36247838  1
  O  O395  1  0.62098352  0.64352209  0.87055674  1
