# generated using pymatgen
data_V35Zn35O128
_symmetry_space_group_name_H-M   'P 1'
_cell_length_a   16.90742460
_cell_length_b   16.95879225
_cell_length_c   16.96181459
_cell_angle_alpha   90.24036320
_cell_angle_beta   89.95423312
_cell_angle_gamma   89.84285411
_symmetry_Int_Tables_number   1
_chemical_formula_structural   V35Zn35O128
_chemical_formula_sum   'V70 Zn70 O256'
_cell_volume   4863.38995127
_cell_formula_units_Z   2
loop_
 _symmetry_equiv_pos_site_id
 _symmetry_equiv_pos_as_xyz
  1  'x, y, z'
loop_
 _atom_site_type_symbol
 _atom_site_label
 _atom_site_symmetry_multiplicity
 _atom_site_fract_x
 _atom_site_fract_y
 _atom_site_fract_z
 _atom_site_occupancy
  V  V0  1  0.49423235  0.88196647  0.87722796  1
  V  V1  1  0.11445748  0.23739823  0.36438550  1
  V  V2  1  -0.00285249  0.37499506  0.36069860  1
  V  V3  1  0.87608256  0.37937866  0.52012255  1
  V  V4  1  0.37740400  0.74211569  0.59175395  1
  V  V5  1  0.21160867  0.65775452  0.38624163  1
  V  V6  1  0.76362332  0.12901252  0.36249717  1
  V  V7  1  0.86702481  0.61829175  0.23849824  1
  V  V8  1  0.49244971  0.74951578  0.74864984  1
  V  V9  1  0.35271831  0.49678672  0.33459451  1
  V  V10  1  0.88419459  -0.01749932  0.38411908  1
  V  V11  1  0.13924035  0.02071185  0.62722651  1
  V  V12  1  0.48489428  0.87425595  0.38951623  1
  V  V13  1  0.63071606  0.46893455  0.63573673  1
  V  V14  1  0.24791489  0.86435371  0.14246134  1
  V  V15  1  0.75622995  0.00559160  0.74209351  1
  V  V16  1  0.62293896  0.25021425  0.36601516  1
  V  V17  1  0.51014512  0.76252937  0.24953562  1
  V  V18  1  0.37222467  0.37638134  -0.00339819  1
  V  V19  1  0.50196656  0.36585141  0.86171035  1
  V  V20  1  0.25529437  0.73146407  -0.01478345  1
  V  V21  1  0.18438673  0.42971425  0.79411115  1
  V  V22  1  0.87682298  0.37063184  0.00352615  1
  V  V23  1  0.00120760  0.26028807  0.74310675  1
  V  V24  1  0.50230610  0.49249713  0.50884856  1
  V  V25  1  0.23719581  0.22517533  0.49715504  1
  V  V26  1  0.37704853  0.74399669  0.13422323  1
  V  V27  1  -0.01093631  0.12454866  0.61706956  1
  V  V28  1  0.63210984  0.24294706  0.86480329  1
  V  V29  1  0.86926428  0.78137333  0.63603726  1
  V  V30  1  0.25846805  0.02941895  0.24894733  1
  V  V31  1  0.50232031  0.38487159  0.37808831  1
  V  V32  1  0.62838943  0.75011277  0.39549497  1
  V  V33  1  0.63834128  0.38007316  0.24988430  1
  V  V34  1  0.74836681  0.47789453  0.75550914  1
  V  V35  1  0.11509509  0.50823582  0.13222733  1
  V  V36  1  0.24538439  0.12995846  0.85969944  1
  V  V37  1  0.36715040  0.61254219  0.76010910  1
  V  V38  1  0.87482888  0.13123220  0.76478922  1
  V  V39  1  0.62128908  0.75205200  0.87248754  1
  V  V40  1  0.75734230  0.24811675  0.51445680  1
  V  V41  1  0.51509761  0.62299331  0.62407926  1
  V  V42  1  0.75421547  0.62612823  0.86373436  1
  V  V43  1  0.75876555  0.74920266  0.51272717  1
  V  V44  1  0.01605103  0.75435885  0.75074496  1
  V  V45  1  0.11521955  0.25514015  0.87320657  1
  V  V46  1  0.36718485  0.87712436  -0.00564985  1
  V  V47  1  0.39042473  0.12702553  0.74003659  1
  V  V48  1  0.49446437  0.49681241  -0.00829096  1
  V  V49  1  -0.02565329  0.61559897  0.62921235  1
  V  V50  1  0.24256602  0.38146101  0.12998109  1
  V  V51  1  0.75774886  -0.03672250  0.25638388  1
  V  V52  1  0.25407257  0.86683168  0.61139821  1
  V  V53  1  -0.01401790  0.14058925  0.11539152  1
  V  V54  1  0.60349918  0.13354296  0.00933273  1
  V  V55  1  0.10593546  0.62758827  -0.00633944  1
  V  V56  1  0.63294400  0.49337043  0.12710041  1
  V  V57  1  0.49701259  0.61492648  0.13940122  1
  V  V58  1  0.38555804  0.02733451  0.36647053  1
  V  V59  1  0.24765781  0.37783188  0.60414165  1
  V  V60  1  0.89400066  0.86833698  0.01783974  1
  V  V61  1  0.12259898  0.00415631  0.13404316  1
  V  V62  1  0.62924053  0.88477762  0.74094678  1
  V  V63  1  0.62312719  0.62228783  -0.00217400  1
  V  V64  1  0.89573229  0.49773246  0.87371674  1
  V  V65  1  0.13186010  0.50695942  0.61266384  1
  V  V66  1  0.74624006  0.76458593  0.00760762  1
  V  V67  1  0.25120743  0.24646354  -0.00139596  1
  V  V68  1  0.61754173  0.12044163  0.50767021  1
  V  V69  1  0.38202507  0.25039983  0.61775595  1
  Zn  Zn70  1  0.03278001  0.02049516  0.47360026  1
  Zn  Zn71  1  0.24429753  -0.01406857  0.75910800  1
  Zn  Zn72  1  -0.00809454  0.50563280  0.48969544  1
  Zn  Zn73  1  0.00591298  0.88253194  0.86061160  1
  Zn  Zn74  1  0.38022834  0.01765199  0.87958111  1
  Zn  Zn75  1  0.87516509  -0.00527385  0.88631040  1
  Zn  Zn76  1  0.17424853  0.19263295  0.17698504  1
  Zn  Zn77  1  0.18729041  0.20114747  0.68602484  1
  Zn  Zn78  1  0.18747830  0.67773297  0.19334070  1
  Zn  Zn79  1  0.19739569  0.68793829  0.67848098  1
  Zn  Zn80  1  0.66908149  0.07823757  0.18511289  1
  Zn  Zn81  1  0.68368508  0.18366140  0.68937369  1
  Zn  Zn82  1  0.67878445  0.69098398  0.18330337  1
  Zn  Zn83  1  0.69018014  0.69755916  0.68705128  1
  Zn  Zn84  1  0.29381426  0.28314061  0.30724218  1
  Zn  Zn85  1  0.32267928  0.30883923  0.81026162  1
  Zn  Zn86  1  0.29948686  0.80991892  0.33579737  1
  Zn  Zn87  1  0.30502393  0.80983638  0.80576560  1
  Zn  Zn88  1  0.80630408  0.32779213  0.33443004  1
  Zn  Zn89  1  0.82926540  0.29948889  0.85314604  1
  Zn  Zn90  1  0.82788063  0.79552564  0.33597995  1
  Zn  Zn91  1  0.81629396  0.81940156  0.82007371  1
  Zn  Zn92  1  0.17954027  0.43291532  0.42655578  1
  Zn  Zn93  1  0.17541508  0.44045980  0.95586488  1
  Zn  Zn94  1  0.24596118  1.00917730  0.47724403  1
  Zn  Zn95  1  0.05974181  1.01407674  0.95803758  1
  Zn  Zn96  1  0.69359810  0.43527691  0.44976092  1
  Zn  Zn97  1  0.68420423  0.43026706  0.93427097  1
  Zn  Zn98  1  0.68626831  0.92694662  0.44494936  1
  Zn  Zn99  1  0.69125494  0.94353035  0.92357358  1
  Zn  Zn100  1  0.25732498  0.03045194  0.02170756  1
  Zn  Zn101  1  0.44017780  0.05706398  0.55787316  1
  Zn  Zn102  1  0.31451530  0.55577201  0.07005902  1
  Zn  Zn103  1  0.31690662  0.56758231  0.55043162  1
  Zn  Zn104  1  0.81556247  0.04653110  0.07117338  1
  Zn  Zn105  1  0.80823293  0.06026606  0.55961664  1
  Zn  Zn106  1  0.80997661  0.55579186  0.04651575  1
  Zn  Zn107  1  0.79527360  0.55777565  0.56095104  1
  Zn  Zn108  1  0.41863561  0.36523781  0.20641158  1
  Zn  Zn109  1  0.43026037  0.43384188  0.68174095  1
  Zn  Zn110  1  0.43117362  0.93480376  0.18781484  1
  Zn  Zn111  1  0.41369635  0.92957124  0.69157072  1
  Zn  Zn112  1  0.93839276  0.42804987  0.17525526  1
  Zn  Zn113  1  0.92947330  0.44431359  0.69343381  1
  Zn  Zn114  1  0.93886385  0.92676537  0.19569370  1
  Zn  Zn115  1  0.94951663  0.94880841  0.69157562  1
  Zn  Zn116  1  0.05385913  0.06797415  0.29432650  1
  Zn  Zn117  1  0.06332084  0.06531831  0.79897324  1
  Zn  Zn118  1  0.06383766  0.56124966  0.31710648  1
  Zn  Zn119  1  0.07383394  0.57886113  0.80266416  1
  Zn  Zn120  1  0.59071815  0.03227460  0.35372125  1
  Zn  Zn121  1  0.56665545  0.06485877  0.81547241  1
  Zn  Zn122  1  0.61950903  0.55172039  0.34318525  1
  Zn  Zn123  1  0.55985816  0.55952027  0.80924889  1
  Zn  Zn124  1  0.43673661  0.20109648  0.43488270  1
  Zn  Zn125  1  0.43667085  0.18983011  0.93766222  1
  Zn  Zn126  1  0.46445360  0.65777166  0.41643668  1
  Zn  Zn127  1  0.43414592  0.68493348  0.93751272  1
  Zn  Zn128  1  0.93720748  0.19434566  0.43804478  1
  Zn  Zn129  1  0.94020629  0.17851822  0.95459307  1
  Zn  Zn130  1  0.96249235  0.70678981  0.46077353  1
  Zn  Zn131  1  0.93300907  0.69844561  0.93247517  1
  Zn  Zn132  1  0.05700187  0.32299693  0.05546560  1
  Zn  Zn133  1  0.06428973  0.31457447  0.56152895  1
  Zn  Zn134  1  0.11221082  0.84734109  0.00600766  1
  Zn  Zn135  1  0.05870243  0.81776240  0.58895967  1
  Zn  Zn136  1  0.56426970  0.31094007  0.06162881  1
  Zn  Zn137  1  0.57030286  0.30552850  0.55906676  1
  Zn  Zn138  1  0.55395686  0.80990439  0.05759616  1
  Zn  Zn139  1  0.55363394  0.82149390  0.56479003  1
  O  O140  1  0.11438171  0.10798057  0.12945516  1
  O  O141  1  0.12060462  0.12278915  0.63245715  1
  O  O142  1  0.13098226  0.61684807  0.11514205  1
  O  O143  1  0.13516767  0.60755333  0.62159066  1
  O  O144  1  0.61301457  0.13561876  0.11190589  1
  O  O145  1  0.63171546  0.11924050  0.60585521  1
  O  O146  1  0.61549862  0.61630597  0.11683572  1
  O  O147  1  0.61526893  0.62879309  0.63598384  1
  O  O148  1  0.40154690  0.40761672  0.38171342  1
  O  O149  1  0.38743611  0.36991427  0.88577149  1
  O  O150  1  0.38380185  0.87834586  0.36780018  1
  O  O151  1  0.37631419  0.87078353  0.88439857  1
  O  O152  1  0.89177871  0.36629754  0.39180411  1
  O  O153  1  0.88925389  0.39673192  0.86582461  1
  O  O154  1  0.87808017  0.88436092  0.39248826  1
  O  O155  1  0.88904192  0.87190347  0.88813045  1
  O  O156  1  0.26948427  0.01783190  0.35639778  1
  O  O157  1  0.25147102  0.02668408  0.87547048  1
  O  O158  1  0.25475339  0.48067879  0.35794251  1
  O  O159  1  0.23528434  0.48290825  0.86013608  1
  O  O160  1  0.76614836  0.00948637  0.36798204  1
  O  O161  1  0.76206049  -0.00723103  0.85216429  1
  O  O162  1  0.71846557  0.51492852  0.37912723  1
  O  O163  1  0.73875723  0.51589387  0.86455561  1
  O  O164  1  0.24296821  0.48730558  0.12458869  1
  O  O165  1  0.24333839  0.48943196  0.61096741  1
  O  O166  1  0.25209628  0.98376702  0.14089266  1
  O  O167  1  0.24115029  0.99993549  0.63040707  1
  O  O168  1  0.73010262  0.50118306  0.10962956  1
  O  O169  1  0.73983455  0.49245427  0.64407353  1
  O  O170  1  0.75649605  0.99764082  0.15644372  1
  O  O171  1  0.75540009  0.99825035  0.64079753  1
  O  O172  1  -0.01355857  0.37319444  0.26179192  1
  O  O173  1  -0.00852606  0.35798648  0.73908216  1
  O  O174  1  0.01363821  0.85049875  0.25801839  1
  O  O175  1  0.00538395  0.86030439  0.74015965  1
  O  O176  1  0.52116974  0.38963520  0.27470020  1
  O  O177  1  0.49188487  0.37975647  0.76414197  1
  O  O178  1  0.50252363  0.86290817  0.24643969  1
  O  O179  1  0.50224631  0.86604959  0.75973773  1
  O  O180  1  0.49643240  0.20045043  0.17881228  1
  O  O181  1  0.48835287  0.12340968  0.75331347  1
  O  O182  1  0.50436073  0.62859544  0.23645211  1
  O  O183  1  0.49489626  0.63124344  0.74220159  1
  O  O184  1  0.98610042  0.11015741  0.21334640  1
  O  O185  1  0.98712966  0.13322207  0.74058618  1
  O  O186  1  0.96963748  0.62443097  0.24964731  1
  O  O187  1  1.00436966  0.63935775  0.73187710  1
  O  O188  1  0.35772088  0.25840237  -0.00630950  1
  O  O189  1  0.35711912  0.23932498  0.50969776  1
  O  O190  1  0.37105191  0.75073175  0.01102684  1
  O  O191  1  0.39343118  0.72766635  0.49586844  1
  O  O192  1  0.87539901  0.26954669  -0.03580687  1
  O  O193  1  0.86257814  0.25325998  0.50467273  1
  O  O194  1  0.85415218  0.75941798  -0.00334797  1
  O  O195  1  0.86671269  0.74878822  0.52292500  1
  O  O196  1  0.13382106  0.24526606  0.50062467  1
  O  O197  1  0.13260207  0.26152835  0.97736385  1
  O  O198  1  0.05951152  0.77759256  0.47212331  1
  O  O199  1  0.14935915  0.73587434  1.00697769  1
  O  O200  1  0.63734140  0.23953830  0.49319750  1
  O  O201  1  0.61775714  0.23875690  0.99273397  1
  O  O202  1  0.62473606  0.75326774  0.49936065  1
  O  O203  1  0.62466662  0.74371760  0.99007185  1
  O  O204  1  0.47741459  0.26815113  0.13063115  1
  O  O205  1  0.48006424  0.26080767  0.61250439  1
  O  O206  1  0.50065278  0.73848804  0.13247278  1
  O  O207  1  0.49405301  0.74039498  0.62929949  1
  O  O208  1  1.01111930  0.23846850  0.11528523  1
  O  O209  1  1.00816210  0.23671181  0.63633069  1
  O  O210  1  1.04481764  0.79127695  0.21612280  1
  O  O211  1  0.98118160  0.74222738  0.63083236  1
  O  O212  1  0.00690734  0.25783529  0.37711501  1
  O  O213  1  0.01294935  0.24389854  0.86405251  1
  O  O214  1  -0.07771854  0.73667925  0.36383960  1
  O  O215  1  -0.00124797  0.74746911  0.85155618  1
  O  O216  1  0.51733214  0.27149852  0.39002413  1
  O  O217  1  0.50161832  0.26243968  0.87462257  1
  O  O218  1  0.49173377  0.76191753  0.36026597  1
  O  O219  1  0.50653778  0.75481594  0.86829307  1
  O  O220  1  0.24281724  0.12795293  0.49946722  1
  O  O221  1  0.25255409  0.14182010  0.98527779  1
  O  O222  1  0.25554575  0.61054921  0.46739227  1
  O  O223  1  0.26398833  0.63174125  1.00001947  1
  O  O224  1  0.74393976  0.13412428  0.48777805  1
  O  O225  1  0.71559172  0.08426977  1.00223486  1
  O  O226  1  0.74394758  0.64670350  0.51556266  1
  O  O227  1  0.73520482  0.63181971  0.99032662  1
  O  O228  1  0.25505350  0.36738624  -0.00318997  1
  O  O229  1  0.24973902  0.36998249  0.50435502  1
  O  O230  1  0.26374471  0.85283542  0.01020909  1
  O  O231  1  0.26751823  0.89846284  0.51857207  1
  O  O232  1  0.77377372  0.38573654  -0.01983321  1
  O  O233  1  0.76111493  0.35737416  0.49689031  1
  O  O234  1  0.73701989  0.86421450  -0.00535054  1
  O  O235  1  0.74656761  0.85250235  0.49767502  1
  O  O236  1  0.12296519  0.51310568  0.23334739  1
  O  O237  1  0.12784673  0.49672171  0.73588100  1
  O  O238  1  0.14898157  1.00660746  0.24553287  1
  O  O239  1  0.12880941  0.99779326  0.73407900  1
  O  O240  1  0.62718762  0.49514668  0.23582952  1
  O  O241  1  0.63482856  0.49899601  0.74431501  1
  O  O242  1  0.65173422  0.99534251  0.26620534  1
  O  O243  1  0.63659735  0.99243485  0.75563480  1
  O  O244  1  0.36735052  0.00335899  0.25060267  1
  O  O245  1  0.36598662  0.02098662  0.75538733  1
  O  O246  1  0.37739349  0.47628477  0.23950470  1
  O  O247  1  0.37492142  0.51480184  0.73782286  1
  O  O248  1  0.86780852  -0.01669986  0.26762397  1
  O  O249  1  0.86975718  0.01218416  0.74826316  1
  O  O250  1  0.87204616  0.51334308  0.23309907  1
  O  O251  1  0.85486157  0.50393707  0.76183594  1
  O  O252  1  0.10502835  0.35882956  0.38269359  1
  O  O253  1  0.12807421  0.36782996  0.86179526  1
  O  O254  1  0.03697420  0.85137777  0.44164496  1
  O  O255  1  0.10266368  0.90893087  0.91328727  1
  O  O256  1  0.62959498  0.36728796  0.37153178  1
  O  O257  1  0.61060016  0.35986252  0.88015859  1
  O  O258  1  0.60444405  0.85889939  0.38156739  1
  O  O259  1  0.61338278  0.86856928  0.86996053  1
  O  O260  1  0.44694470  0.14622063  0.17668360  1
  O  O261  1  0.38038513  0.13482781  0.63170899  1
  O  O262  1  0.39161041  0.62953190  0.12030339  1
  O  O263  1  0.38414560  0.63526983  0.62899424  1
  O  O264  1  0.88422535  0.13449693  0.09224077  1
  O  O265  1  0.88658610  0.12165417  0.63185294  1
  O  O266  1  0.87232583  0.61174385  0.13210021  1
  O  O267  1  0.87565424  0.61098138  0.63403082  1
  O  O268  1  0.23098789  0.25869618  0.10071363  1
  O  O269  1  0.24977739  0.25888576  0.60984560  1
  O  O270  1  0.26137098  0.75123802  0.12765633  1
  O  O271  1  0.26615158  0.75375427  0.60886794  1
  O  O272  1  0.81027107  0.24706145  0.17439030  1
  O  O273  1  0.74531905  0.24229094  0.61245681  1
  O  O274  1  0.73111229  0.75298793  0.10565888  1
  O  O275  1  0.76044459  0.76051638  0.62535196  1
  O  O276  1  0.23034210  0.24831984  0.38985098  1
  O  O277  1  0.24175156  0.24732295  0.87640082  1
  O  O278  1  0.22633496  0.75877936  0.40040276  1
  O  O279  1  0.25929732  0.74726197  0.88687999  1
  O  O280  1  0.74076156  0.24314262  0.38110859  1
  O  O281  1  0.73110944  0.24855264  0.87300718  1
  O  O282  1  0.73258121  0.74329421  0.38851849  1
  O  O283  1  0.73807919  0.74246052  0.88115120  1
  O  O284  1  0.01141478  0.10854683  0.00943610  1
  O  O285  1  -0.00422590  0.12873423  0.51440667  1
  O  O286  1  0.00793938  0.64667988  0.00123122  1
  O  O287  1  -0.00832960  0.61933516  0.52353773  1
  O  O288  1  0.50244741  0.11859892  -0.00226476  1
  O  O289  1  0.51283364  0.13145631  0.49792477  1
  O  O290  1  0.51054940  0.61840683  -0.00077818  1
  O  O291  1  0.50820119  0.60451437  0.51452420  1
  O  O292  1  0.51428342  0.38428992  0.49573260  1
  O  O293  1  0.49079845  0.38108030  0.99917468  1
  O  O294  1  0.48883688  0.87488476  0.48825505  1
  O  O295  1  0.47950264  0.86420369  0.98868655  1
  O  O296  1  0.98446273  0.37633827  0.50791996  1
  O  O297  1  0.98309653  0.38031706  0.99448685  1
  O  O298  1  1.01220058  0.89686836  0.50396212  1
  O  O299  1  0.99201648  0.84934062  1.01453792  1
  O  O300  1  0.53071499  0.49242403  0.40106207  1
  O  O301  1  0.51169430  0.48587137  0.88617769  1
  O  O302  1  0.48921753  0.98306098  0.36121089  1
  O  O303  1  0.49594625  0.98564783  0.87066050  1
  O  O304  1  1.00580245  0.48244743  0.37739165  1
  O  O305  1  0.99088801  0.51756313  0.85606723  1
  O  O306  1  0.98916698  1.00636576  0.36849443  1
  O  O307  1  0.99210413  1.00606032  0.86511066  1
  O  O308  1  0.02680472  -0.02504783  0.13672810  1
  O  O309  1  0.01430156  0.01753338  0.62549433  1
  O  O310  1  0.01524350  0.49379278  0.12452495  1
  O  O311  1  0.00751011  0.51098178  0.63355505  1
  O  O312  1  0.52738794  -0.03366372  0.11720688  1
  O  O313  1  0.48482598  -0.01623882  0.62528258  1
  O  O314  1  0.50942636  0.51165798  0.11394613  1
  O  O315  1  0.51685094  0.49953144  0.62792141  1
  O  O316  1  0.24554565  0.35605111  0.22503123  1
  O  O317  1  0.25063107  0.37201218  0.74028956  1
  O  O318  1  0.25468731  0.86293318  0.24206834  1
  O  O319  1  0.28809033  0.88375839  0.72320388  1
  O  O320  1  0.73775405  0.37708228  0.25763453  1
  O  O321  1  0.75086871  0.38254838  0.76802188  1
  O  O322  1  0.76042787  0.86424023  0.26676047  1
  O  O323  1  0.73387373  0.87756885  0.75274809  1
  O  O324  1  0.25935466  0.12651627  0.23097340  1
  O  O325  1  0.25285571  0.13393863  0.75633570  1
  O  O326  1  0.24264866  0.64428991  0.28700940  1
  O  O327  1  0.26924954  0.63608194  0.74792847  1
  O  O328  1  0.74460563  0.13051346  0.26480717  1
  O  O329  1  0.76416678  0.11698097  0.74495001  1
  O  O330  1  0.76169536  0.61978067  0.22710189  1
  O  O331  1  0.74510466  0.63339468  0.76434962  1
  O  O332  1  0.40590101  0.12348236  0.35429330  1
  O  O333  1  0.36465775  0.13724438  0.86054652  1
  O  O334  1  0.39374832  0.58382001  0.36660777  1
  O  O335  1  0.38600351  0.61984907  0.85966950  1
  O  O336  1  0.86368120  0.13644018  0.36906617  1
  O  O337  1  0.87885284  0.12133106  0.86484603  1
  O  O338  1  0.85014663  0.61026592  0.33928993  1
  O  O339  1  0.85649411  0.62134539  0.88085181  1
  O  O340  1  0.13541718  0.39092501  0.10794686  1
  O  O341  1  0.14099242  0.38249275  0.62356055  1
  O  O342  1  0.14853130  0.87120971  0.11993516  1
  O  O343  1  0.15137853  0.86766956  0.62470707  1
  O  O344  1  0.61984923  0.38372986  0.13814992  1
  O  O345  1  0.62318876  0.37066578  0.63959312  1
  O  O346  1  0.58471406  0.91441484  0.11132635  1
  O  O347  1  0.61659725  0.87357477  0.64359119  1
  O  O348  1  0.12950832  0.24670068  0.26570685  1
  O  O349  1  0.11137099  0.25276986  0.75664933  1
  O  O350  1  0.10427659  0.75468764  0.25184855  1
  O  O351  1  0.11565975  0.74632327  0.73541447  1
  O  O352  1  0.62384213  0.26612106  0.26432987  1
  O  O353  1  0.61912624  0.23544189  0.76426528  1
  O  O354  1  0.61257388  0.74806617  0.25493959  1
  O  O355  1  0.61576018  0.76076394  0.75765799  1
  O  O356  1  0.39620356  0.28117137  0.27769844  1
  O  O357  1  0.36831117  0.23842609  0.73079757  1
  O  O358  1  0.38943428  0.75173223  0.23683543  1
  O  O359  1  0.38891827  0.74200854  0.75162443  1
  O  O360  1  0.85581110  0.25718240  0.23023309  1
  O  O361  1  0.88578169  0.23870866  0.76230214  1
  O  O362  1  0.86368044  0.72217049  0.22948230  1
  O  O363  1  0.87549398  0.75938435  0.73755951  1
  O  O364  1  0.40253872  0.49290457  0.51999399  1
  O  O365  1  0.38640550  0.49220239  1.00250710  1
  O  O366  1  0.37127779  1.02301917  0.46938829  1
  O  O367  1  0.35913309  0.98100859  0.99576648  1
  O  O368  1  0.86700835  0.48370707  0.50708683  1
  O  O369  1  0.87940883  0.49969969  0.97914230  1
  O  O370  1  0.87619663  1.01452494  0.48160041  1
  O  O371  1  0.87292756  0.97377857  1.00292169  1
  O  O372  1  0.14855723  -0.00219207  0.03020035  1
  O  O373  1  0.13452860  0.00294468  0.52030284  1
  O  O374  1  0.12089316  0.52028492  0.00985064  1
  O  O375  1  0.11443592  0.49078772  0.51275094  1
  O  O376  1  0.65265833  0.02625232  -0.00076560  1
  O  O377  1  0.62789557  0.02097520  0.47117411  1
  O  O378  1  0.61633295  0.50342705  0.00696434  1
  O  O379  1  0.62824303  0.48920341  0.53212647  1
  O  O380  1  0.35494270  0.37347810  0.10647134  1
  O  O381  1  0.35797705  0.36127619  0.62761912  1
  O  O382  1  0.36935881  0.86504819  0.11520789  1
  O  O383  1  0.38213080  0.84416376  0.61197065  1
  O  O384  1  0.87061697  0.37547571  0.10524145  1
  O  O385  1  0.87198937  0.37474124  0.61969076  1
  O  O386  1  0.87669762  0.86936882  0.11731953  1
  O  O387  1  0.88060587  0.87847835  0.62665975  1
  O  O388  1  0.10539038  0.13619394  0.37420213  1
  O  O389  1  0.13540521  0.14110821  0.86532119  1
  O  O390  1  0.10999251  0.63599101  0.38584894  1
  O  O391  1  0.12336616  0.62454618  0.89380879  1
  O  O392  1  0.62749662  0.14275923  0.37495801  1
  O  O393  1  0.61522317  0.13729089  0.88754228  1
  O  O394  1  0.59011895  0.65374651  0.37972666  1
  O  O395  1  0.62681754  0.63441990  0.87892219  1
