# generated using pymatgen
data_V35Zn35O128
_symmetry_space_group_name_H-M   'P 1'
_cell_length_a   16.85216659
_cell_length_b   16.89425104
_cell_length_c   16.86150627
_cell_angle_alpha   89.94672743
_cell_angle_beta   90.10261225
_cell_angle_gamma   90.05148233
_symmetry_Int_Tables_number   1
_chemical_formula_structural   V35Zn35O128
_chemical_formula_sum   'V70 Zn70 O256'
_cell_volume   4800.53893435
_cell_formula_units_Z   2
loop_
 _symmetry_equiv_pos_site_id
 _symmetry_equiv_pos_as_xyz
  1  'x, y, z'
loop_
 _atom_site_type_symbol
 _atom_site_label
 _atom_site_symmetry_multiplicity
 _atom_site_fract_x
 _atom_site_fract_y
 _atom_site_fract_z
 _atom_site_occupancy
  V  V0  1  0.00443313  0.86974272  0.37198686  1
  V  V1  1  0.37936809  0.50209045  0.36802405  1
  V  V2  1  -0.00395196  0.24081581  0.73999045  1
  V  V3  1  0.24442395  0.62384810  0.88034265  1
  V  V4  1  -0.00640308  0.62153940  0.62781814  1
  V  V5  1  0.37351986  0.37622441  0.49514887  1
  V  V6  1  0.62906947  0.62341051  -0.00811327  1
  V  V7  1  0.51045447  0.62368181  0.62510708  1
  V  V8  1  0.12725818  0.86969156  0.24676937  1
  V  V9  1  0.50208034  0.37862909  0.87142420  1
  V  V10  1  0.87661242  0.25909028  0.12571066  1
  V  V11  1  0.72642866  0.87753462  0.65385816  1
  V  V12  1  0.37677254  0.62607202  0.74535384  1
  V  V13  1  0.74970535  0.74504403  0.00912591  1
  V  V14  1  0.74723047  0.63671911  0.39840998  1
  V  V15  1  0.25218226  0.75930946  0.50557537  1
  V  V16  1  0.86883586  0.12108922  0.24746114  1
  V  V17  1  0.50468069  0.13647463  0.10990209  1
  V  V18  1  0.25961043  0.77061032  0.00203230  1
  V  V19  1  0.50078493  0.50277470  -0.00284227  1
  V  V20  1  -0.00400053  0.75022397  0.74504866  1
  V  V21  1  0.12201358  0.37038863  0.76095707  1
  V  V22  1  0.36975694  0.24801202  0.61858259  1
  V  V23  1  0.38706563  0.12952730  0.26145399  1
  V  V24  1  0.86481111  0.61506939  0.25062995  1
  V  V25  1  0.12067274  0.50067081  0.61905057  1
  V  V26  1  0.12639948  -0.01682110  0.62004250  1
  V  V27  1  0.25551144  -0.00576826  0.26015100  1
  V  V28  1  0.00327587  0.12657151  0.12197806  1
  V  V29  1  0.48804590  0.62859768  0.13309168  1
  V  V30  1  0.49969458  0.24485436  0.74999868  1
  V  V31  1  0.24835891  0.50351882  0.75010921  1
  V  V32  1  0.35859473  0.12359872  0.75346413  1
  V  V33  1  0.12747221  0.13786863  0.50188573  1
  V  V34  1  0.37534174  0.76038136  0.62501096  1
  V  V35  1  0.50810664  0.50212492  0.50518197  1
  V  V36  1  0.23775657  0.37049327  0.12877413  1
  V  V37  1  0.63019002  0.75428937  0.86376768  1
  V  V38  1  0.24560451  0.13946757  0.37771399  1
  V  V39  1  0.87144661  0.87994508  0.00356409  1
  V  V40  1  0.50801825  0.11620125  0.61561034  1
  V  V41  1  0.24662777  0.37243653  0.61922980  1
  V  V42  1  -0.00040116  0.88038243  0.86515157  1
  V  V43  1  0.61830859  0.24269241  0.88797825  1
  V  V44  1  0.63131546  0.50250620  0.13855541  1
  V  V45  1  0.37817797  0.35805152  0.00828808  1
  V  V46  1  0.86638946  0.00231651  0.36713637  1
  V  V47  1  0.75693600  0.51731711  0.74195048  1
  V  V48  1  0.86942458  0.86860800  0.50029283  1
  V  V49  1  0.75796208  0.25880342  -0.00386383  1
  V  V50  1  0.12265276  0.62735169  0.49403351  1
  V  V51  1  0.64050701  -0.02444019  0.12958020  1
  V  V52  1  -0.02116440  0.37097320  0.88416542  1
  V  V53  1  0.50601123  -0.01306989  0.00308723  1
  V  V54  1  0.62622774  0.25414743  0.37827448  1
  V  V55  1  0.49017856  0.87081206  0.87145698  1
  V  V56  1  0.63881488  0.37421499  0.73924837  1
  V  V57  1  0.87191665  0.51586241  0.88277525  1
  V  V58  1  0.00006907  0.00602616  0.50021221  1
  V  V59  1  0.01435225  0.38527410  0.37733452  1
  V  V60  1  0.13535077  0.00384569  0.12123761  1
  V  V61  1  0.51009177  0.76463986  0.25103523  1
  V  V62  1  0.74509841  0.37660405  0.14060173  1
  V  V63  1  0.00099795  0.00508717  -0.00218115  1
  V  V64  1  0.02100771  0.25141035  0.25839828  1
  V  V65  1  0.25606224  0.63115799  0.36991184  1
  V  V66  1  0.12468504  0.74826753  0.87158179  1
  V  V67  1  0.87805572  0.36631711  0.50940196  1
  V  V68  1  0.79370710  0.06779068  0.81313253  1
  V  V69  1  0.24689340  -0.02256631  0.74400297  1
  Zn  Zn70  1  0.00328936  0.73992526  0.25324168  1
  Zn  Zn71  1  0.87858094  0.74632245  0.12663928  1
  Zn  Zn72  1  0.86654220  0.74582021  0.62035239  1
  Zn  Zn73  1  0.33858701  0.01350155  0.91276063  1
  Zn  Zn74  1  0.24657367  0.49660806  0.24464018  1
  Zn  Zn75  1  0.37322451  0.50048322  0.87415710  1
  Zn  Zn76  1  0.20104331  0.18540196  0.18143790  1
  Zn  Zn77  1  0.17702117  0.18789326  0.68150849  1
  Zn  Zn78  1  0.19470006  0.69039285  0.18318975  1
  Zn  Zn79  1  0.18388350  0.69325445  0.68709657  1
  Zn  Zn80  1  0.71382373  0.13513921  0.13291147  1
  Zn  Zn81  1  0.67475816  0.15027916  0.71218641  1
  Zn  Zn82  1  0.68149542  0.68942952  0.19353209  1
  Zn  Zn83  1  0.69785657  0.69083953  0.67588612  1
  Zn  Zn84  1  0.31362179  0.31214336  0.30459348  1
  Zn  Zn85  1  0.31662615  0.31603201  0.80814727  1
  Zn  Zn86  1  0.35097714  0.80706203  0.33964074  1
  Zn  Zn87  1  0.31734734  0.80953254  0.81558280  1
  Zn  Zn88  1  0.82247862  0.30044684  0.32363586  1
  Zn  Zn89  1  0.80404727  0.27617483  0.79727023  1
  Zn  Zn90  1  0.80749934  0.80106753  0.29987290  1
  Zn  Zn91  1  0.81545145  0.80787102  0.81720121  1
  Zn  Zn92  1  0.18927641  0.44047104  0.43197111  1
  Zn  Zn93  1  0.19646480  0.33692749  0.93610313  1
  Zn  Zn94  1  0.18389124  0.93873932  0.43438440  1
  Zn  Zn95  1  0.18104879  0.93770094  0.93174340  1
  Zn  Zn96  1  0.69726139  0.44796771  0.43618851  1
  Zn  Zn97  1  0.69645558  0.43476890  0.93401405  1
  Zn  Zn98  1  0.69252664  0.84198593  0.40815735  1
  Zn  Zn99  1  0.68262096  0.92658886  0.94201195  1
  Zn  Zn100  1  0.32908690  0.06019161  0.07746229  1
  Zn  Zn101  1  0.30975949  0.05735883  0.56143172  1
  Zn  Zn102  1  0.30922241  0.55564479  0.06139156  1
  Zn  Zn103  1  0.31248193  0.56515603  0.55970787  1
  Zn  Zn104  1  0.78933637  0.05895135  -0.00660696  1
  Zn  Zn105  1  0.76672880  0.02960091  0.53154514  1
  Zn  Zn106  1  0.81889862  0.56049815  0.06714258  1
  Zn  Zn107  1  0.81515844  0.54546374  0.55495028  1
  Zn  Zn108  1  0.44543109  0.43378423  0.18766133  1
  Zn  Zn109  1  0.43832263  0.43761233  0.68468321  1
  Zn  Zn110  1  0.44754155  0.94326819  0.19578772  1
  Zn  Zn111  1  0.43999930  0.94567736  0.69109636  1
  Zn  Zn112  1  0.91032589  0.41577445  0.24391771  1
  Zn  Zn113  1  0.92938278  0.43332974  0.69317574  1
  Zn  Zn114  1  0.93902981  0.93698902  0.18318527  1
  Zn  Zn115  1  0.92104313  0.95418654  0.68335352  1
  Zn  Zn116  1  0.06386675  0.06287659  0.31225403  1
  Zn  Zn117  1  0.05224290  0.04675029  0.79268012  1
  Zn  Zn118  1  0.05902413  0.56964884  0.31075136  1
  Zn  Zn119  1  0.05689577  0.55747941  0.81399978  1
  Zn  Zn120  1  0.59732638  0.08091149  0.27691262  1
  Zn  Zn121  1  0.60515578  0.03364243  0.83852711  1
  Zn  Zn122  1  0.56407806  0.56867275  0.31850984  1
  Zn  Zn123  1  0.57133688  0.56066299  0.80615713  1
  Zn  Zn124  1  0.43161943  0.18140886  0.43630097  1
  Zn  Zn125  1  0.30550735  0.18474996  0.93998399  1
  Zn  Zn126  1  0.44410395  0.68981766  0.44150839  1
  Zn  Zn127  1  0.43780486  0.68735603  0.93595677  1
  Zn  Zn128  1  0.93991307  0.18741592  0.43510767  1
  Zn  Zn129  1  0.93575094  0.18623654  0.92364585  1
  Zn  Zn130  1  0.93366406  0.68125254  0.43092400  1
  Zn  Zn131  1  0.94085393  0.69241779  0.94119314  1
  Zn  Zn132  1  0.04931212  0.32849136  0.07464189  1
  Zn  Zn133  1  0.05564306  0.31449108  0.56043804  1
  Zn  Zn134  1  0.07520391  0.82099475  0.05237388  1
  Zn  Zn135  1  0.05818723  0.80767411  0.55573041  1
  Zn  Zn136  1  0.56288115  0.32102831  0.06675645  1
  Zn  Zn137  1  0.55808235  0.31164311  0.56308560  1
  Zn  Zn138  1  0.56264585  0.80880548  0.06244637  1
  Zn  Zn139  1  0.55231637  0.80498023  0.69324406  1
  O  O140  1  0.11859631  0.11258099  0.12705141  1
  O  O141  1  0.13327040  0.11353956  0.60565024  1
  O  O142  1  0.12580411  0.59640496  0.16521199  1
  O  O143  1  0.11911951  0.61880176  0.61659878  1
  O  O144  1  0.60063831  0.11735672  0.15532409  1
  O  O145  1  0.60721226  0.14253145  0.62365709  1
  O  O146  1  0.62301983  0.61450939  0.11449903  1
  O  O147  1  0.60920115  0.63220019  0.62939644  1
  O  O148  1  0.36348621  0.38607920  0.38761044  1
  O  O149  1  0.38725212  0.38007366  0.88166810  1
  O  O150  1  0.38404089  0.91179151  0.38863944  1
  O  O151  1  0.38755749  0.88283196  0.87284177  1
  O  O152  1  0.89994079  0.37386309  0.35585381  1
  O  O153  1  0.87890585  0.37125724  0.87476139  1
  O  O154  1  0.88989151  0.88690731  0.37738483  1
  O  O155  1  0.89133119  0.86376585  0.89061743  1
  O  O156  1  0.24369600  0.00598633  0.36232390  1
  O  O157  1  0.24126429  -0.00693927  0.84935363  1
  O  O158  1  0.25656187  0.51109892  0.36686740  1
  O  O159  1  0.24896254  0.50802147  0.85721009  1
  O  O160  1  0.77005306  -0.00477345  0.36647721  1
  O  O161  1  0.74733788  0.00882158  0.89551622  1
  O  O162  1  0.72659191  0.52916834  0.36714107  1
  O  O163  1  0.76320747  0.49793725  0.86485742  1
  O  O164  1  0.26676769  0.48162214  0.13147003  1
  O  O165  1  0.24158237  0.49512047  0.63112629  1
  O  O166  1  0.23897375  1.00500380  0.13644306  1
  O  O167  1  0.23737919  0.99394629  0.62693119  1
  O  O168  1  0.74033430  0.48882428  0.12049492  1
  O  O169  1  0.75786165  0.49840091  0.64251279  1
  O  O170  1  0.73423212  1.01779217  0.10236758  1
  O  O171  1  0.75447581  0.97223175  0.62168635  1
  O  O172  1  0.01272263  0.35816375  0.25176126  1
  O  O173  1  0.01323705  0.37099890  0.75361892  1
  O  O174  1  0.00916461  0.87937479  0.25886921  1
  O  O175  1  -0.01138531  0.87747342  0.76142674  1
  O  O176  1  0.50269431  0.39354230  0.27133728  1
  O  O177  1  0.50137029  0.36830623  0.75483069  1
  O  O178  1  0.51001342  0.86503364  0.25137061  1
  O  O179  1  0.49981328  0.87842798  0.76457116  1
  O  O180  1  0.48386471  0.10406393  0.27969210  1
  O  O181  1  0.48552956  0.13852798  0.73672692  1
  O  O182  1  0.49863694  0.62125332  0.23506691  1
  O  O183  1  0.48972181  0.61188301  0.73743294  1
  O  O184  1  0.99934992  0.13114783  0.23899695  1
  O  O185  1  1.00847530  0.14202760  0.76580584  1
  O  O186  1  0.97653515  0.63043744  0.26622230  1
  O  O187  1  1.00385277  0.63224929  0.73413994  1
  O  O188  1  0.38102274  0.26038552  -0.00560958  1
  O  O189  1  0.37939879  0.26676927  0.50443509  1
  O  O190  1  0.35817179  0.74834597  -0.01094310  1
  O  O191  1  0.36608294  0.74709527  0.51404578  1
  O  O192  1  0.86524828  0.24919004  0.00934162  1
  O  O193  1  0.87605874  0.26690894  0.47855673  1
  O  O194  1  0.86013953  0.75237259  0.00135392  1
  O  O195  1  0.88564788  0.76643404  0.49732345  1
  O  O196  1  0.12434381  0.23631739  0.50399405  1
  O  O197  1  0.11732669  0.24864718  0.98517509  1
  O  O198  1  0.13938807  0.73696486  0.50727380  1
  O  O199  1  0.13921097  0.75700320  0.97932560  1
  O  O200  1  0.62524611  0.25263697  0.48538602  1
  O  O201  1  0.62563470  0.26148857  0.98986800  1
  O  O202  1  0.55721989  0.77093768  0.47689572  1
  O  O203  1  0.63391754  0.74266518  0.99284739  1
  O  O204  1  0.50431495  0.23600002  0.11206954  1
  O  O205  1  0.48497069  0.25049768  0.63124153  1
  O  O206  1  0.50661331  0.73798203  0.13661015  1
  O  O207  1  0.48606786  0.73404129  0.62732737  1
  O  O208  1  0.99586658  0.24523029  0.13085310  1
  O  O209  1  1.01782922  0.24399479  0.64035512  1
  O  O210  1  1.00336057  0.73336240  0.09165780  1
  O  O211  1  1.00114973  0.73815937  0.62866688  1
  O  O212  1  0.00850023  0.24729141  0.36004842  1
  O  O213  1  -0.00217904  0.26428609  0.86417653  1
  O  O214  1  0.00009577  0.76751927  0.37719337  1
  O  O215  1  0.00592256  0.75708398  0.86672927  1
  O  O216  1  0.52071939  0.24959921  0.38641653  1
  O  O217  1  0.50738986  0.26217353  0.86673103  1
  O  O218  1  0.45233455  0.74340922  0.34057848  1
  O  O219  1  0.50845580  0.76233576  0.87959729  1
  O  O220  1  0.24286464  0.11995836  0.48692926  1
  O  O221  1  0.27520478  0.08829148  0.98424654  1
  O  O222  1  0.24148224  0.63285835  0.49462707  1
  O  O223  1  0.25341145  0.61795123  0.98136763  1
  O  O224  1  0.75559664  0.11525233  0.46958823  1
  O  O225  1  0.73585848  0.15773916  1.02055254  1
  O  O226  1  0.75780634  0.62688225  0.49903649  1
  O  O227  1  0.74193353  0.63513491  1.00173646  1
  O  O228  1  0.27165353  0.38225072  0.01057229  1
  O  O229  1  0.25922107  0.38459048  0.51089926  1
  O  O230  1  0.25367518  0.87179442  -0.00759356  1
  O  O231  1  0.24171762  0.85767504  0.49215850  1
  O  O232  1  0.74469072  0.36479596  0.01592450  1
  O  O233  1  0.77193539  0.38541841  0.49045663  1
  O  O234  1  0.76558117  0.86398535  -0.00430800  1
  O  O235  1  0.76819686  0.88120454  0.48960424  1
  O  O236  1  0.13102305  0.53890057  0.22229017  1
  O  O237  1  0.12957071  0.49245879  0.73897436  1
  O  O238  1  0.13171512  0.99523290  0.23971036  1
  O  O239  1  0.13471378  1.00119532  0.73120406  1
  O  O240  1  0.62502228  0.50997714  0.23581763  1
  O  O241  1  0.64354093  0.48394614  0.75687026  1
  O  O242  1  0.63691507  0.98732053  0.23200222  1
  O  O243  1  0.68719192  1.04626572  0.76515238  1
  O  O244  1  0.35871322  -0.00203926  0.24612035  1
  O  O245  1  0.35442943  0.01199129  0.73481348  1
  O  O246  1  0.37876654  0.49721471  0.26710682  1
  O  O247  1  0.36392437  0.50636140  0.74540877  1
  O  O248  1  0.88466949  0.00996627  0.25429399  1
  O  O249  1  0.86187015  0.01700090  0.75694920  1
  O  O250  1  0.86305776  0.51537982  0.24432773  1
  O  O251  1  0.86299973  0.49682713  0.75955135  1
  O  O252  1  0.11666470  0.37022050  0.38254590  1
  O  O253  1  0.12136404  0.38594797  0.86227809  1
  O  O254  1  0.11429989  0.88038368  0.36063618  1
  O  O255  1  0.10744470  0.86649299  0.87300678  1
  O  O256  1  0.62911118  0.35918990  0.38697122  1
  O  O257  1  0.61564544  0.37071690  0.86695017  1
  O  O258  1  0.57597915  0.83266700  0.43748750  1
  O  O259  1  0.61780791  0.85902167  0.87399580  1
  O  O260  1  0.40193045  0.11325166  0.14779904  1
  O  O261  1  0.37450242  0.13419698  0.62689451  1
  O  O262  1  0.38993640  0.62152219  0.11833155  1
  O  O263  1  0.37816744  0.62995139  0.63158249  1
  O  O264  1  0.88915576  0.13550523  0.13418860  1
  O  O265  1  0.82827025  0.17795816  0.60185448  1
  O  O266  1  0.86702420  0.63072859  0.14043575  1
  O  O267  1  0.89260541  0.62448089  0.60961889  1
  O  O268  1  0.25074700  0.26701077  0.12098796  1
  O  O269  1  0.25696257  0.26179162  0.62805660  1
  O  O270  1  0.23962987  0.74697043  0.09942884  1
  O  O271  1  0.26041110  0.74781262  0.61624125  1
  O  O272  1  0.75716520  0.26418029  0.12203960  1
  O  O273  1  0.77780290  0.22936839  0.61176030  1
  O  O274  1  0.74204419  0.75020344  0.11005044  1
  O  O275  1  0.75464950  0.77389639  0.62563263  1
  O  O276  1  0.24895593  0.23812430  0.36953402  1
  O  O277  1  0.25053788  0.25805573  0.87658414  1
  O  O278  1  0.26783255  0.73956670  0.39027264  1
  O  O279  1  0.24364940  0.74273383  0.87581592  1
  O  O280  1  0.73019000  0.25331363  0.37469689  1
  O  O281  1  0.73580807  0.26117008  0.89123021  1
  O  O282  1  0.74784333  0.74228862  0.38768163  1
  O  O283  1  0.73573060  0.75180353  0.88426079  1
  O  O284  1  -0.00852672  0.11432830  0.00523485  1
  O  O285  1  0.01547835  0.11613955  0.48892951  1
  O  O286  1  0.00702898  0.67158978  0.03832244  1
  O  O287  1  0.01635841  0.63344453  0.50500449  1
  O  O288  1  0.50530305  0.10640987  0.01272270  1
  O  O289  1  0.48807744  0.12622859  0.51596685  1
  O  O290  1  0.50895473  0.62155027  0.00785557  1
  O  O291  1  0.49505940  0.61491640  0.51374379  1
  O  O292  1  0.48256416  0.38888268  0.50958956  1
  O  O293  1  0.49692761  0.38393050  0.99126670  1
  O  O294  1  0.38483480  0.91793432  0.47012454  1
  O  O295  1  0.50467901  0.87736719  0.98949959  1
  O  O296  1  0.99358059  0.37253901  0.48402659  1
  O  O297  1  1.00053529  0.37082448  0.98314703  1
  O  O298  1  0.99960500  0.88401362  0.48651669  1
  O  O299  1  0.99528956  0.88506853  0.99059141  1
  O  O300  1  0.48595713  0.51330526  0.39044689  1
  O  O301  1  0.50353633  0.49434984  0.87898508  1
  O  O302  1  0.55907177  0.99463573  0.40422544  1
  O  O303  1  0.51479053  0.98462677  0.88639075  1
  O  O304  1  1.01145817  0.48524969  0.36658008  1
  O  O305  1  0.98264100  0.48476937  0.86390915  1
  O  O306  1  1.00068847  0.99268926  0.38241607  1
  O  O307  1  1.00909288  0.98914218  0.88080563  1
  O  O308  1  0.00759155  0.00952330  0.11733729  1
  O  O309  1  0.01019493  -0.00049278  0.61371937  1
  O  O310  1  0.02807523  0.51735869  0.06334118  1
  O  O311  1  0.00812718  0.51236688  0.63098835  1
  O  O312  1  0.51759936  -0.01320501  0.11663038  1
  O  O313  1  0.50245977  0.01680898  0.63176479  1
  O  O314  1  0.51298339  0.50812323  0.11675519  1
  O  O315  1  0.49572713  0.51074853  0.61593953  1
  O  O316  1  0.25056798  0.37574460  0.23658732  1
  O  O317  1  0.24086853  0.38397030  0.74012518  1
  O  O318  1  0.23400453  0.88530056  0.25830787  1
  O  O319  1  0.25552252  0.87910550  0.74257226  1
  O  O320  1  0.75561340  0.37145562  0.23966955  1
  O  O321  1  0.73803112  0.35943290  0.74784897  1
  O  O322  1  0.72246759  0.87295493  0.30326684  1
  O  O323  1  0.75039392  0.87611701  0.75269212  1
  O  O324  1  0.25818211  0.11493181  0.25859260  1
  O  O325  1  0.25728264  0.12971678  0.74430673  1
  O  O326  1  0.25446150  0.63828823  0.26855524  1
  O  O327  1  0.25459618  0.61972455  0.75092615  1
  O  O328  1  0.76960543  0.12802445  0.23738101  1
  O  O329  1  0.77470639  0.16379401  0.76617101  1
  O  O330  1  0.76185743  0.64461364  0.25955087  1
  O  O331  1  0.74866582  0.61728829  0.74708644  1
  O  O332  1  0.35773869  0.12126870  0.37246413  1
  O  O333  1  0.37500675  0.11722013  0.85326895  1
  O  O334  1  0.36262368  0.61016597  0.38944315  1
  O  O335  1  0.36761783  0.62330400  0.86084349  1
  O  O336  1  0.88445587  0.11448403  0.35819020  1
  O  O337  1  0.85299654  0.11464484  0.89093324  1
  O  O338  1  0.85715694  0.62589912  0.36971713  1
  O  O339  1  0.88809645  0.61570666  0.87614356  1
  O  O340  1  0.13840532  0.38225689  0.11282564  1
  O  O341  1  0.12955969  0.38373966  0.62639984  1
  O  O342  1  0.11592065  0.89103917  0.13701320  1
  O  O343  1  0.12040180  0.88413566  0.61811707  1
  O  O344  1  0.63246525  0.38907893  0.12893249  1
  O  O345  1  0.61908002  0.36739437  0.64103761  1
  O  O346  1  0.64060154  0.87545616  0.11711129  1
  O  O347  1  0.62612466  0.87211397  0.63915664  1
  O  O348  1  0.11855591  0.23771200  0.24366334  1
  O  O349  1  0.12675587  0.26762589  0.75018478  1
  O  O350  1  0.11868567  0.76570507  0.23644863  1
  O  O351  1  0.11159092  0.75254975  0.75607526  1
  O  O352  1  0.61731665  0.26686220  0.27601553  1
  O  O353  1  0.61560513  0.25680334  0.76209252  1
  O  O354  1  0.60649670  0.73983710  0.26587174  1
  O  O355  1  0.62530035  0.74019285  0.76158361  1
  O  O356  1  0.38140412  0.23001017  0.25829597  1
  O  O357  1  0.37793048  0.24290904  0.74026994  1
  O  O358  1  0.37162015  0.79199218  0.21572270  1
  O  O359  1  0.36706591  0.73755601  0.73768702  1
  O  O360  1  0.88689258  0.23693878  0.24474400  1
  O  O361  1  0.89806561  0.26206173  0.73874725  1
  O  O362  1  0.88716932  0.75356153  0.24115472  1
  O  O363  1  0.89073140  0.75420019  0.74442729  1
  O  O364  1  0.37738012  0.49051882  0.49550089  1
  O  O365  1  0.39312963  0.49945917  0.99555517  1
  O  O366  1  0.39192014  0.99283499  0.49539099  1
  O  O367  1  0.39979713  0.99074678  1.00901376  1
  O  O368  1  0.87031018  0.47481037  0.48638227  1
  O  O369  1  0.86845580  0.50201633  0.98392695  1
  O  O370  1  0.88448722  0.99489547  0.48478506  1
  O  O371  1  0.88443491  0.98550582  1.00347579  1
  O  O372  1  0.11693240  -0.00681431  0.01326831  1
  O  O373  1  0.11945773  0.00192035  0.50690908  1
  O  O374  1  0.08773842  0.53089163  0.02454548  1
  O  O375  1  0.13324970  0.51421544  0.50959516  1
  O  O376  1  0.61516992  -0.00579788  0.00936967  1
  O  O377  1  0.59882276  -0.00346504  0.46596415  1
  O  O378  1  0.61827761  0.50681275  -0.00130816  1
  O  O379  1  0.60546937  0.48816913  0.49761185  1
  O  O380  1  0.39157025  0.37155481  0.10943813  1
  O  O381  1  0.36529891  0.36964784  0.61870035  1
  O  O382  1  0.36858386  0.84865865  0.16254663  1
  O  O383  1  0.38790079  0.85855564  0.63194754  1
  O  O384  1  0.86985414  0.36499091  0.13778344  1
  O  O385  1  0.89163776  0.36739435  0.60946794  1
  O  O386  1  0.88954981  0.86566078  0.10716701  1
  O  O387  1  0.88522600  0.87748689  0.60470988  1
  O  O388  1  0.13684872  0.12006550  0.38446611  1
  O  O389  1  0.14352389  0.17838724  0.97975583  1
  O  O390  1  0.13796130  0.62182973  0.38656056  1
  O  O391  1  0.13182568  0.63326488  0.86398583  1
  O  O392  1  0.62788249  0.14958260  0.36952604  1
  O  O393  1  0.61393358  0.14491590  0.88010733  1
  O  O394  1  0.63852957  0.62248158  0.38309057  1
  O  O395  1  0.61376126  0.63754483  0.88434587  1
