# generated using pymatgen
data_V35Zn35O128
_symmetry_space_group_name_H-M   'P 1'
_cell_length_a   16.91035086
_cell_length_b   16.90821935
_cell_length_c   16.86819033
_cell_angle_alpha   90.25092730
_cell_angle_beta   90.12666907
_cell_angle_gamma   90.11004180
_symmetry_Int_Tables_number   1
_chemical_formula_structural   V35Zn35O128
_chemical_formula_sum   'V70 Zn70 O256'
_cell_volume   4822.95210393
_cell_formula_units_Z   2
loop_
 _symmetry_equiv_pos_site_id
 _symmetry_equiv_pos_as_xyz
  1  'x, y, z'
loop_
 _atom_site_type_symbol
 _atom_site_label
 _atom_site_symmetry_multiplicity
 _atom_site_fract_x
 _atom_site_fract_y
 _atom_site_fract_z
 _atom_site_occupancy
  V  V0  1  0.62027039  0.26079094  0.38606123  1
  V  V1  1  0.11734157  0.72923449  0.87491383  1
  V  V2  1  0.37771710  0.00252930  0.87650641  1
  V  V3  1  0.65256935  0.50525280  0.62736194  1
  V  V4  1  0.87670064  0.26531100  0.61856194  1
  V  V5  1  0.24689710  -0.00125314  0.24860170  1
  V  V6  1  0.12233005  0.12257723  0.49878643  1
  V  V7  1  0.25139833  0.00007222  0.75358129  1
  V  V8  1  0.90143554  0.24962570  0.12366237  1
  V  V9  1  0.01225510  0.35130690  0.36931619  1
  V  V10  1  0.61957501  0.73780412  0.37884219  1
  V  V11  1  0.87086083  0.73836513  0.14494730  1
  V  V12  1  0.74634954  0.88769789  0.62736560  1
  V  V13  1  0.52249145  0.00486461  0.01052180  1
  V  V14  1  0.36764429  0.62622649  0.25368173  1
  V  V15  1  0.00361621  0.24578210  0.76163808  1
  V  V16  1  0.62464270  0.48056638  0.12490241  1
  V  V17  1  0.65189912  0.37106024  0.74090618  1
  V  V18  1  0.23890892  0.87687201  0.12440013  1
  V  V19  1  0.49877230  0.75709732  0.24654123  1
  V  V20  1  0.74543316  0.73911319  0.01209325  1
  V  V21  1  0.12441657  0.13177821  -0.02228228  1
  V  V22  1  0.12095633  -0.00086953  0.62266388  1
  V  V23  1  0.26639052  0.24338165  -0.00434737  1
  V  V24  1  0.62999869  0.25381134  0.88254976  1
  V  V25  1  0.12309347  0.87427167  0.76483168  1
  V  V26  1  0.50940438  0.63238919  0.10585643  1
  V  V27  1  0.02498938  0.75386276  0.25793285  1
  V  V28  1  0.38638888  0.13298559  0.24093279  1
  V  V29  1  0.74760147  0.11921880  0.86147187  1
  V  V30  1  0.12026218  0.49976485  0.63373261  1
  V  V31  1  0.37381412  0.75484128  0.11701374  1
  V  V32  1  -0.01839914  0.62719894  0.61824281  1
  V  V33  1  0.24744829  0.86454351  0.61969051  1
  V  V34  1  0.37870089  0.38078826  0.48434656  1
  V  V35  1  0.11556562  0.01427940  0.12316957  1
  V  V36  1  0.88640623  0.38084945  -0.01236643  1
  V  V37  1  0.63099079  0.88782803  0.25025382  1
  V  V38  1  0.76302163  0.61869460  0.36935146  1
  V  V39  1  0.50563347  0.27612653  0.24863284  1
  V  V40  1  0.37614185  0.87632541  0.50139981  1
  V  V41  1  0.26983590  0.38081223  0.11514746  1
  V  V42  1  0.77265924  0.62288174  0.87425704  1
  V  V43  1  0.24739189  0.13088728  0.37474430  1
  V  V44  1  0.24215950  0.74140477  -0.00958710  1
  V  V45  1  0.62315317  0.88579333  0.74871564  1
  V  V46  1  0.00279560  -0.00707421  0.48981495  1
  V  V47  1  0.75536676  0.89065069  0.12981132  1
  V  V48  1  0.85908053  0.00426322  0.37119337  1
  V  V49  1  0.37962911  0.00479619  0.37994063  1
  V  V50  1  -0.02176676  0.74989007  0.74820122  1
  V  V51  1  0.49859318  0.47743202  -0.01380742  1
  V  V52  1  0.62171520  0.74427152  0.87176080  1
  V  V53  1  0.37960405  0.11796194  0.74734012  1
  V  V54  1  0.87544267  0.10712294  0.73622298  1
  V  V55  1  0.87656607  0.12290457  0.23628781  1
  V  V56  1  0.01011983  0.61647942  0.11838225  1
  V  V57  1  0.13631853  0.38129395  0.23498922  1
  V  V58  1  0.24143833  0.25563449  0.50565272  1
  V  V59  1  0.75619604  0.24540581  0.01353567  1
  V  V60  1  0.38865181  0.73865168  0.62438250  1
  V  V61  1  0.30618167  0.57478747  0.80246683  1
  V  V62  1  0.50170256  0.88543031  0.38263835  1
  V  V63  1  0.50783701  0.25517882  0.75036336  1
  V  V64  1  0.37247369  0.25812452  0.62873156  1
  V  V65  1  -0.00410426  0.49950269  0.48188027  1
  V  V66  1  0.50901886  0.11192433  0.61072859  1
  V  V67  1  0.87910965  0.86520968  0.49821718  1
  V  V68  1  0.74626902  0.74002179  0.50918687  1
  V  V69  1  0.37560161  0.88015517  -0.00760454  1
  Zn  Zn70  1  0.50168772  0.87359100  0.86732017  1
  Zn  Zn71  1  0.12887733  0.71539225  0.41313793  1
  Zn  Zn72  1  0.71275879  0.50060485  0.26250830  1
  Zn  Zn73  1  0.02989453  0.22870019  0.24634967  1
  Zn  Zn74  1  0.74430012  0.27395231  0.50755309  1
  Zn  Zn75  1  -0.07766244  0.93546877  0.94024681  1
  Zn  Zn76  1  0.19900398  0.19708871  0.18105955  1
  Zn  Zn77  1  0.18708148  0.18338936  0.68883996  1
  Zn  Zn78  1  0.18630360  0.67664500  0.18020234  1
  Zn  Zn79  1  0.18354771  0.66088998  0.59405199  1
  Zn  Zn80  1  0.69691057  0.20500456  0.21034614  1
  Zn  Zn81  1  0.69274964  0.18295342  0.67609716  1
  Zn  Zn82  1  0.68339907  0.68851037  0.19645050  1
  Zn  Zn83  1  0.69817520  0.68603837  0.69984195  1
  Zn  Zn84  1  0.30996363  0.31540439  0.30849769  1
  Zn  Zn85  1  0.33009613  0.28123998  0.83941190  1
  Zn  Zn86  1  0.31221854  0.81420020  0.31024357  1
  Zn  Zn87  1  0.27884892  0.74912133  0.77494071  1
  Zn  Zn88  1  0.80664826  0.35746343  0.37104725  1
  Zn  Zn89  1  0.82665750  0.29911569  0.81227446  1
  Zn  Zn90  1  0.80976257  0.81310772  0.31823119  1
  Zn  Zn91  1  0.80054989  0.82303787  0.82392393  1
  Zn  Zn92  1  0.15409285  0.42605066  0.46055687  1
  Zn  Zn93  1  0.31628808  0.43591905  0.93231220  1
  Zn  Zn94  1  0.19291176  0.93805529  0.43556602  1
  Zn  Zn95  1  0.18927734  0.94609356  0.94318488  1
  Zn  Zn96  1  0.66610118  0.44198195  0.45083006  1
  Zn  Zn97  1  0.69995776  0.43379494  0.95081289  1
  Zn  Zn98  1  0.69244550  0.93050856  0.43458080  1
  Zn  Zn99  1  0.70935086  0.92694473  0.93559577  1
  Zn  Zn100  1  0.31070155  0.06560275  0.06226126  1
  Zn  Zn101  1  0.31192354  0.06284818  0.56622447  1
  Zn  Zn102  1  0.31881794  0.56363545  0.06021649  1
  Zn  Zn103  1  0.32717577  0.53302038  0.61383408  1
  Zn  Zn104  1  0.81121597  0.06547752  0.05120022  1
  Zn  Zn105  1  0.81764208  0.05575692  0.56096122  1
  Zn  Zn106  1  0.81120138  0.55732364  0.06832881  1
  Zn  Zn107  1  0.82011560  0.55252800  0.55552601  1
  Zn  Zn108  1  0.43749304  0.45036805  0.18248794  1
  Zn  Zn109  1  0.40363552  0.41899098  0.75188128  1
  Zn  Zn110  1  0.43644188  0.94450846  0.18755538  1
  Zn  Zn111  1  0.44217249  0.93238069  0.68530382  1
  Zn  Zn112  1  0.94795576  0.42519026  0.18489565  1
  Zn  Zn113  1  0.94476438  0.43620094  0.69883433  1
  Zn  Zn114  1  0.93991019  0.92967925  0.19613896  1
  Zn  Zn115  1  0.93839923  0.92907278  0.68331453  1
  Zn  Zn116  1  0.06058918  0.05621306  0.31236154  1
  Zn  Zn117  1  0.04960744  0.05690200  0.81392362  1
  Zn  Zn118  1  0.06180962  0.56317658  0.29232581  1
  Zn  Zn119  1  0.04427133  0.55995147  0.79860922  1
  Zn  Zn120  1  0.59680162  0.09583250  0.27414661  1
  Zn  Zn121  1  0.56343364  0.06341114  0.81542306  1
  Zn  Zn122  1  0.52855883  0.55319157  0.30330397  1
  Zn  Zn123  1  0.61852064  0.53292487  0.84063565  1
  Zn  Zn124  1  0.43917543  0.19623238  0.43401514  1
  Zn  Zn125  1  0.45170192  0.17807718  0.93903242  1
  Zn  Zn126  1  0.42705152  0.69469313  0.43783946  1
  Zn  Zn127  1  0.43578742  0.68942049  0.92427183  1
  Zn  Zn128  1  0.93716705  0.18523558  0.44354815  1
  Zn  Zn129  1  0.93281082  0.14683035  0.93737830  1
  Zn  Zn130  1  0.93941530  0.68536804  0.42628181  1
  Zn  Zn131  1  0.94008970  0.72437924  0.95358555  1
  Zn  Zn132  1  0.07277494  0.31271114  0.04857885  1
  Zn  Zn133  1  0.05331927  0.31798452  0.57529238  1
  Zn  Zn134  1  0.05025084  0.81670911  0.06109271  1
  Zn  Zn135  1  0.06062834  0.80310819  0.56792825  1
  Zn  Zn136  1  0.55635773  0.30444721  0.06670147  1
  Zn  Zn137  1  0.55725572  0.31806391  0.56531116  1
  Zn  Zn138  1  0.56971091  0.82642829  0.05724284  1
  Zn  Zn139  1  0.56390790  0.81207543  0.56452860  1
  O  O140  1  0.12451264  0.11411189  0.13671255  1
  O  O141  1  0.13603659  0.10622523  0.61155469  1
  O  O142  1  0.11204346  0.62215597  0.11574816  1
  O  O143  1  0.08714183  0.61708884  0.64466164  1
  O  O144  1  0.63625789  0.11780491  0.16909144  1
  O  O145  1  0.60793120  0.12713696  0.62632808  1
  O  O146  1  0.60816267  0.63882031  0.12433566  1
  O  O147  1  0.64530264  0.60599096  0.64001081  1
  O  O148  1  0.36442798  0.38284356  0.38433507  1
  O  O149  1  0.37409801  0.38039484  0.85218608  1
  O  O150  1  0.38182924  0.88207339  0.38052993  1
  O  O151  1  0.37685725  0.88576203  0.88397659  1
  O  O152  1  0.91553395  0.37870879  0.36405556  1
  O  O153  1  0.87249208  0.36919005  0.88753288  1
  O  O154  1  0.86537071  0.88537066  0.39009947  1
  O  O155  1  0.81987905  0.89849544  0.90307448  1
  O  O156  1  0.25949729  0.00717317  0.36698800  1
  O  O157  1  0.26224824  -0.00657665  0.86212451  1
  O  O158  1  0.21580279  0.56971728  0.38068617  1
  O  O159  1  0.25851881  0.51470610  0.86908019  1
  O  O160  1  0.75959657  -0.00068789  0.37281927  1
  O  O161  1  0.72928279  0.02417102  0.87717538  1
  O  O162  1  0.72717812  0.52164816  0.38340714  1
  O  O163  1  0.73159614  0.52300044  0.88612408  1
  O  O164  1  0.25445983  0.48189687  0.10464966  1
  O  O165  1  0.21395622  0.54841803  0.60979790  1
  O  O166  1  0.24264466  0.99478871  0.13133754  1
  O  O167  1  0.24534979  0.98888357  0.63432357  1
  O  O168  1  0.72404028  0.50919998  0.13070767  1
  O  O169  1  0.75011234  0.48802584  0.61450196  1
  O  O170  1  0.76085773  0.98964601  0.12174093  1
  O  O171  1  0.74332434  0.98588217  0.61636470  1
  O  O172  1  0.01901412  0.36042386  0.25271487  1
  O  O173  1  -0.00106693  0.34715922  0.75293626  1
  O  O174  1  -0.00365418  0.85133395  0.25663660  1
  O  O175  1  0.01992541  0.86202534  0.73449542  1
  O  O176  1  0.48861566  0.37415610  0.25186072  1
  O  O177  1  0.50262808  0.35527212  0.74686020  1
  O  O178  1  0.50495810  0.87010725  0.25664245  1
  O  O179  1  0.51763897  0.87178545  0.74652535  1
  O  O180  1  0.48430071  0.11858684  0.25799432  1
  O  O181  1  0.49379529  0.12671056  0.74014575  1
  O  O182  1  0.49383889  0.64966256  0.23745205  1
  O  O183  1  0.50020372  0.61146845  0.72407024  1
  O  O184  1  0.98551273  0.12544532  0.26510586  1
  O  O185  1  0.98072350  0.12107647  0.74670551  1
  O  O186  1  1.00442275  0.64317879  0.23360330  1
  O  O187  1  0.98106736  0.64728583  0.74808953  1
  O  O188  1  0.36817249  0.23283733  -0.00938430  1
  O  O189  1  0.36284331  0.26273447  0.50941026  1
  O  O190  1  0.36508163  0.75984920  -0.00069957  1
  O  O191  1  0.37115437  0.76947689  0.50344401  1
  O  O192  1  0.86855904  0.24073362  0.01077591  1
  O  O193  1  0.87476889  0.24791111  0.51249806  1
  O  O194  1  0.85030223  0.75325412  0.02388826  1
  O  O195  1  0.86073376  0.76008019  0.48640509  1
  O  O196  1  0.13584036  0.23729185  0.51224386  1
  O  O197  1  0.13781683  0.23774110  0.99437326  1
  O  O198  1  0.13577057  0.73405747  0.52205434  1
  O  O199  1  0.13225950  0.75360071  0.98607201  1
  O  O200  1  0.62194751  0.25656934  0.49275083  1
  O  O201  1  0.63207261  0.25741588  0.98769193  1
  O  O202  1  0.63514681  0.75292696  0.48824286  1
  O  O203  1  0.63618723  0.76139907  0.98873600  1
  O  O204  1  0.50326332  0.24942808  0.14887859  1
  O  O205  1  0.49161766  0.24054598  0.63717494  1
  O  O206  1  0.49318190  0.75325968  0.12472135  1
  O  O207  1  0.48906136  0.74029501  0.60718222  1
  O  O208  1  1.00182753  0.24347139  0.11943536  1
  O  O209  1  0.98576717  0.24474935  0.62796060  1
  O  O210  1  0.98339283  0.74861248  0.13755748  1
  O  O211  1  0.98871495  0.74146973  0.63587764  1
  O  O212  1  0.00999660  0.25007956  0.38026592  1
  O  O213  1  -0.01427758  0.22800905  0.86069505  1
  O  O214  1  0.02242448  0.73182227  0.36476664  1
  O  O215  1  0.01338447  0.75203927  0.85998547  1
  O  O216  1  0.50805589  0.25321663  0.36440938  1
  O  O217  1  0.51513593  0.24046341  0.86005930  1
  O  O218  1  0.50548304  0.76181959  0.37021331  1
  O  O219  1  0.51742777  0.75746049  0.88095861  1
  O  O220  1  0.24368898  0.12753785  0.49292340  1
  O  O221  1  0.23961377  0.13552115  1.01040269  1
  O  O222  1  0.24970371  0.59925217  0.44023650  1
  O  O223  1  0.25526655  0.64427593  1.00309153  1
  O  O224  1  0.70983681  0.09125423  0.49777573  1
  O  O225  1  0.75036553  0.14088979  0.98290106  1
  O  O226  1  0.75798165  0.63755117  0.49098602  1
  O  O227  1  0.74329635  0.63633731  1.00474033  1
  O  O228  1  0.26293416  0.36081427  0.00396762  1
  O  O229  1  0.24381007  0.35674041  0.49548207  1
  O  O230  1  0.25796876  0.87147460  0.00563316  1
  O  O231  1  0.25814575  0.88176654  0.51528504  1
  O  O232  1  0.76320190  0.35181487  -0.00211774  1
  O  O233  1  0.76266102  0.38296384  0.47302010  1
  O  O234  1  0.73859676  0.86244898  0.03057286  1
  O  O235  1  0.75222634  0.86321644  0.50821285  1
  O  O236  1  0.12388728  0.48156685  0.24203936  1
  O  O237  1  0.11726231  0.49575848  0.73579643  1
  O  O238  1  0.14037152  1.00200130  0.24395244  1
  O  O239  1  0.13076199  0.99126448  0.74087531  1
  O  O240  1  0.60176226  0.50564243  0.23148009  1
  O  O241  1  0.62805088  0.47794714  0.73996271  1
  O  O242  1  0.62073049  0.98425050  0.26600491  1
  O  O243  1  0.62578031  0.98519929  0.75435637  1
  O  O244  1  0.36742430  0.00820303  0.25944746  1
  O  O245  1  0.37160286  -0.00031282  0.75503206  1
  O  O246  1  0.40857376  0.53050622  0.26128979  1
  O  O247  1  0.35512876  0.51610816  0.72535869  1
  O  O248  1  0.88218363  0.00788186  0.26378725  1
  O  O249  1  0.87335990  0.00579123  0.73600811  1
  O  O250  1  0.85222699  0.46594846  0.24480166  1
  O  O251  1  0.94700128  0.50236588  0.79032040  1
  O  O252  1  0.12068939  0.38051379  0.35951773  1
  O  O253  1  0.10810328  0.36968940  0.87495252  1
  O  O254  1  0.16209562  0.85204793  0.36551397  1
  O  O255  1  0.12631433  0.88640111  0.86452363  1
  O  O256  1  0.62371898  0.36751035  0.37446163  1
  O  O257  1  0.63424469  0.35941286  0.85885378  1
  O  O258  1  0.61778398  0.86829889  0.37175138  1
  O  O259  1  0.63436928  0.86794836  0.86025024  1
  O  O260  1  0.37253325  0.12072092  0.14233563  1
  O  O261  1  0.38183148  0.13088469  0.63223642  1
  O  O262  1  0.38862029  0.64016236  0.12553497  1
  O  O263  1  0.36085014  0.64440346  0.60132968  1
  O  O264  1  0.87581292  0.12706515  0.13160299  1
  O  O265  1  0.86677132  0.12674303  0.63144271  1
  O  O266  1  0.86945207  0.63668615  0.13214864  1
  O  O267  1  0.88201534  0.61258718  0.63281852  1
  O  O268  1  0.25458281  0.26343163  0.10814785  1
  O  O269  1  0.25832977  0.23772175  0.61307612  1
  O  O270  1  0.25559482  0.75848734  0.11180840  1
  O  O271  1  0.25407668  0.76354153  0.62895660  1
  O  O272  1  0.75126270  0.24193084  0.11422494  1
  O  O273  1  0.76431112  0.24735903  0.61732469  1
  O  O274  1  0.75164176  0.74947765  0.12816895  1
  O  O275  1  0.74676613  0.74908445  0.60994705  1
  O  O276  1  0.25730532  0.23792987  0.39142641  1
  O  O277  1  0.24366223  0.24371729  0.89262711  1
  O  O278  1  0.21912638  0.79058414  0.37584041  1
  O  O279  1  0.23656394  0.75318416  0.88470579  1
  O  O280  1  0.74035456  0.26471926  0.38564163  1
  O  O281  1  0.73956631  0.24340110  0.87648093  1
  O  O282  1  0.73498490  0.73735439  0.37875515  1
  O  O283  1  0.74699517  0.74022891  0.89387243  1
  O  O284  1  0.02680970  0.13137308  0.00088046  1
  O  O285  1  0.01521887  0.10886670  0.49381868  1
  O  O286  1  -0.01224578  0.64255405  0.02142052  1
  O  O287  1  -0.01282550  0.62255352  0.51148762  1
  O  O288  1  0.51519406  0.10538476  -0.00536205  1
  O  O289  1  0.49047629  0.13242433  0.51284661  1
  O  O290  1  0.49879886  0.63551181  0.00621052  1
  O  O291  1  0.48340226  0.59196490  0.46940071  1
  O  O292  1  0.47704838  0.37046455  0.50386406  1
  O  O293  1  0.49747154  0.37799418  0.99822173  1
  O  O294  1  0.49361041  0.87530653  0.49124141  1
  O  O295  1  0.48690635  0.88302782  0.99716198  1
  O  O296  1  1.02113306  0.38615629  0.47939224  1
  O  O297  1  0.98752790  0.36772090  0.99798977  1
  O  O298  1  0.98399257  0.87118804  0.50570503  1
  O  O299  1  0.97276679  0.84167612  0.98483256  1
  O  O300  1  0.48611639  0.53558909  0.41745548  1
  O  O301  1  0.52011673  0.49874054  0.88927340  1
  O  O302  1  0.48868236  0.99006389  0.37132266  1
  O  O303  1  0.49236829  0.99433039  0.88275177  1
  O  O304  1  1.00606478  0.51777182  0.38243950  1
  O  O305  1  1.04261960  0.50656480  0.94374144  1
  O  O306  1  1.00214792  0.98570586  0.38714589  1
  O  O307  1  0.99145712  0.97249206  0.85765931  1
  O  O308  1  0.01917679  -0.01182771  0.13522485  1
  O  O309  1  0.01453275  -0.01349998  0.61014362  1
  O  O310  1  -0.01336395  0.51742692  0.13145284  1
  O  O311  1  0.00085073  0.50530960  0.61651359  1
  O  O312  1  0.50060807  -0.00713159  0.11006397  1
  O  O313  1  0.49280251  0.01162141  0.62057129  1
  O  O314  1  0.50549498  0.51747642  0.10918625  1
  O  O315  1  0.49735043  0.56773496  0.66591643  1
  O  O316  1  0.24686819  0.37263499  0.23237884  1
  O  O317  1  0.15956788  0.37021564  0.82494100  1
  O  O318  1  0.26270539  0.88793446  0.23395086  1
  O  O319  1  0.23796773  0.88075686  0.73932530  1
  O  O320  1  0.79242902  0.41316330  0.25969038  1
  O  O321  1  0.74937454  0.36430123  0.74826503  1
  O  O322  1  0.73686991  0.87353523  0.24929552  1
  O  O323  1  0.74484113  0.87166282  0.73150001  1
  O  O324  1  0.26085875  0.12019081  0.25871747  1
  O  O325  1  0.26483626  0.10978951  0.73998578  1
  O  O326  1  0.27204113  0.61762171  0.22438746  1
  O  O327  1  0.24369667  0.63855458  0.75414249  1
  O  O328  1  0.78076901  0.13814969  0.26148821  1
  O  O329  1  0.75536330  0.12490542  0.75247178  1
  O  O330  1  0.73958181  0.62100348  0.26700028  1
  O  O331  1  0.76892087  0.63558281  0.77444246  1
  O  O332  1  0.36665866  0.11817703  0.37437908  1
  O  O333  1  0.38537318  0.11196359  0.86052782  1
  O  O334  1  0.36318150  0.65829358  0.35052603  1
  O  O335  1  0.37491770  0.63102664  0.85317829  1
  O  O336  1  0.87696435  0.10376268  0.38773119  1
  O  O337  1  0.85583673  0.12741673  0.85240731  1
  O  O338  1  0.86193246  0.62051834  0.37083226  1
  O  O339  1  0.86839628  0.63462563  0.89887730  1
  O  O340  1  0.13207687  0.37124939  0.12972162  1
  O  O341  1  0.12703571  0.39819539  0.61122373  1
  O  O342  1  0.13568396  0.88161636  0.11178734  1
  O  O343  1  0.13698181  0.87987518  0.62448749  1
  O  O344  1  0.62376002  0.38147130  0.12756001  1
  O  O345  1  0.63052574  0.37041371  0.63833404  1
  O  O346  1  0.63164896  0.87345908  0.14521798  1
  O  O347  1  0.63581661  0.86818561  0.63324565  1
  O  O348  1  0.13747912  0.26178963  0.25075686  1
  O  O349  1  0.10457452  0.22732647  0.74578950  1
  O  O350  1  0.12371575  0.75491316  0.23709901  1
  O  O351  1  0.13310801  0.76541216  0.76849893  1
  O  O352  1  0.61352864  0.26927008  0.25848205  1
  O  O353  1  0.61877039  0.25632587  0.74746578  1
  O  O354  1  0.61600651  0.76098209  0.26399850  1
  O  O355  1  0.63774847  0.75882877  0.76587652  1
  O  O356  1  0.38557911  0.23818551  0.26100594  1
  O  O357  1  0.38665597  0.23481624  0.74887647  1
  O  O358  1  0.37940601  0.75431467  0.23374934  1
  O  O359  1  0.38029501  0.75508494  0.72539808  1
  O  O360  1  0.88968927  0.23846190  0.22906451  1
  O  O361  1  0.88196659  0.23621904  0.73417469  1
  O  O362  1  0.86885669  0.74631386  0.24777885  1
  O  O363  1  0.88416879  0.77681275  0.76085990  1
  O  O364  1  0.35351647  0.47073481  0.52360450  1
  O  O365  1  0.39431929  0.50390365  0.99424253  1
  O  O366  1  0.36662922  0.99114270  0.48911072  1
  O  O367  1  0.37299189  0.99649599  0.99130429  1
  O  O368  1  0.89509538  0.49363155  0.49559910  1
  O  O369  1  0.86447363  0.47779712  1.00871297  1
  O  O370  1  0.88292949  0.98835303  0.49157780  1
  O  O371  1  0.89687302  1.03833727  0.98446352  1
  O  O372  1  0.13412029  0.01581096  0.01565689  1
  O  O373  1  0.12233152  0.00015131  0.50262041  1
  O  O374  1  0.10298255  0.50300262  -0.01668020  1
  O  O375  1  0.10444899  0.51650318  0.50849132  1
  O  O376  1  0.61782019  -0.02187947  -0.00313873  1
  O  O377  1  0.65499535  0.04034496  0.48960461  1
  O  O378  1  0.61271625  0.48975285  0.01430096  1
  O  O379  1  0.60840495  0.48964215  0.53557629  1
  O  O380  1  0.36924414  0.37782039  0.12887868  1
  O  O381  1  0.36946061  0.35601515  0.64838563  1
  O  O382  1  0.36846774  0.86904927  0.11441651  1
  O  O383  1  0.36653010  0.87201638  0.61839161  1
  O  O384  1  0.88400369  0.35203744  0.11495026  1
  O  O385  1  0.88012586  0.36519989  0.63215547  1
  O  O386  1  0.85792894  0.86416080  0.14214543  1
  O  O387  1  0.86024814  0.87709783  0.60804103  1
  O  O388  1  0.13833817  0.11396280  0.38507080  1
  O  O389  1  0.12883761  0.10871910  0.87920919  1
  O  O390  1  0.15437464  0.62391860  0.34503314  1
  O  O391  1  0.11300190  0.63141835  0.86727396  1
  O  O392  1  0.63553631  0.15805242  0.36080134  1
  O  O393  1  0.63371274  0.14489236  0.85955561  1
  O  O394  1  0.60784581  0.64012657  0.37084109  1
  O  O395  1  0.62949727  0.64337959  0.87028139  1
