# generated using pymatgen
data_V35Zn35O128
_symmetry_space_group_name_H-M   'P 1'
_cell_length_a   16.87230542
_cell_length_b   16.93706725
_cell_length_c   16.92751357
_cell_angle_alpha   89.83435510
_cell_angle_beta   90.10742158
_cell_angle_gamma   89.81677492
_symmetry_Int_Tables_number   1
_chemical_formula_structural   V35Zn35O128
_chemical_formula_sum   'V70 Zn70 O256'
_cell_volume   4837.27752485
_cell_formula_units_Z   2
loop_
 _symmetry_equiv_pos_site_id
 _symmetry_equiv_pos_as_xyz
  1  'x, y, z'
loop_
 _atom_site_type_symbol
 _atom_site_label
 _atom_site_symmetry_multiplicity
 _atom_site_fract_x
 _atom_site_fract_y
 _atom_site_fract_z
 _atom_site_occupancy
  V  V0  1  0.72965149  0.74766533  0.49587962  1
  V  V1  1  -0.00599672  -0.00264036  0.48611535  1
  V  V2  1  0.12114450  -0.00220424  0.62688550  1
  V  V3  1  0.24056400  0.21174868  0.03744837  1
  V  V4  1  -0.00473821  0.12816319  0.62546813  1
  V  V5  1  0.01899852  0.62772093  0.61726590  1
  V  V6  1  0.39779090  0.49729907  0.37457383  1
  V  V7  1  0.13089328  0.25368431  0.37392552  1
  V  V8  1  0.25338628  0.12198293  0.37673675  1
  V  V9  1  0.91721386  0.87823794  0.00301769  1
  V  V10  1  0.61466733  0.25695411  0.36572173  1
  V  V11  1  0.24305158  0.49867391  0.25197449  1
  V  V12  1  0.46029528  0.24976426  0.24750876  1
  V  V13  1  0.13095494  0.76317859  0.39656229  1
  V  V14  1  0.76155725  0.36952466  0.62277022  1
  V  V15  1  0.88332164  -0.00316959  0.87731936  1
  V  V16  1  0.61042350  0.12635438  0.49886237  1
  V  V17  1  0.12320293  0.75492480  0.88377410  1
  V  V18  1  0.26052503  0.38897725  0.12119472  1
  V  V19  1  0.49004606  0.49067177  0.00631005  1
  V  V20  1  0.50280881  0.24147861  0.73468507  1
  V  V21  1  0.85486940  0.25662048  0.11848366  1
  V  V22  1  0.25467175  0.63075238  0.87497101  1
  V  V23  1  0.25043998  0.86555108  0.62286429  1
  V  V24  1  0.50058816  0.63246305  0.13652926  1
  V  V25  1  0.86783071  0.37869634  -0.01101805  1
  V  V26  1  0.37474948  0.87188510  -0.00719562  1
  V  V27  1  0.23949208  0.62404824  0.39100351  1
  V  V28  1  0.23900631  -0.01164034  0.24646619  1
  V  V29  1  0.49916650  0.36455342  0.87947204  1
  V  V30  1  0.00353987  0.25371394  0.75440507  1
  V  V31  1  0.74966777  0.87832690  0.63838707  1
  V  V32  1  0.37446634  0.63368454  0.24767093  1
  V  V33  1  0.88498204  0.37948585  0.50280241  1
  V  V34  1  0.86819819  0.87224510  0.49157536  1
  V  V35  1  0.00304339  0.38091923  0.38095180  1
  V  V36  1  0.38295273  0.73213388  0.63789674  1
  V  V37  1  0.24527609  0.13809556  0.86476876  1
  V  V38  1  0.86343764  0.12548917  0.74418348  1
  V  V39  1  0.25384784  0.00197044  0.75269144  1
  V  V40  1  0.63122237  0.37508076  0.74618456  1
  V  V41  1  0.49057743  0.11210194  0.13550404  1
  V  V42  1  -0.01351731  0.75289104  0.74263427  1
  V  V43  1  0.76073938  0.23768729  0.49501352  1
  V  V44  1  0.12125459  0.61160453  0.00836101  1
  V  V45  1  0.01571063  0.75709075  0.25593536  1
  V  V46  1  0.25369639  0.85584494  0.12665297  1
  V  V47  1  0.61741383  0.61973382  -0.00140172  1
  V  V48  1  0.01327829  0.24413278  0.23514309  1
  V  V49  1  0.36549264  0.35021639  0.54558394  1
  V  V50  1  0.02342036  0.02741273  0.01044275  1
  V  V51  1  0.62481018  0.00328458  0.63987705  1
  V  V52  1  0.50207532  0.85654342  0.36864956  1
  V  V53  1  0.49409284  0.00588040  -0.02027809  1
  V  V54  1  0.06469468  0.43753977  0.19500271  1
  V  V55  1  0.61103987  0.49810773  0.60801357  1
  V  V56  1  0.22270130  0.49136395  0.75048602  1
  V  V57  1  0.12761548  0.12459046  0.49876603  1
  V  V58  1  0.75487140  0.12706693  0.89929036  1
  V  V59  1  0.37871378  0.00429241  0.37365509  1
  V  V60  1  0.62288237  0.47296658  0.13637679  1
  V  V61  1  0.76013319  0.58941118  0.34995054  1
  V  V62  1  0.71446101  0.76938694  0.00136969  1
  V  V63  1  0.12204873  0.87104006  0.75235534  1
  V  V64  1  0.62890631  0.24142564  0.88796152  1
  V  V65  1  0.37943475  0.49738953  0.86423262  1
  V  V66  1  0.87248394  0.12083939  0.24421172  1
  V  V67  1  0.88319337  0.74626383  0.12645110  1
  V  V68  1  0.37464448  0.86611910  0.50410839  1
  V  V69  1  0.38250663  0.12366122  0.73683369  1
  Zn  Zn70  1  0.87977027  0.00126339  0.35532685  1
  Zn  Zn71  1  0.37077371  0.35433292  0.00090816  1
  Zn  Zn72  1  0.76373071  0.89224946  0.12965303  1
  Zn  Zn73  1  0.12928458  0.26544120  0.86807714  1
  Zn  Zn74  1  0.86883400  0.49912258  0.85797771  1
  Zn  Zn75  1  0.49485761  0.00271713  0.50992384  1
  Zn  Zn76  1  0.23044563  0.20114731  0.20906530  1
  Zn  Zn77  1  0.18942297  0.19634959  0.67884494  1
  Zn  Zn78  1  0.19035719  0.68540911  0.18937610  1
  Zn  Zn79  1  0.19088399  0.68092647  0.68760302  1
  Zn  Zn80  1  0.68411708  0.16999169  0.18568332  1
  Zn  Zn81  1  0.68391084  0.18939776  0.68079079  1
  Zn  Zn82  1  0.76785740  0.59451594  0.14132326  1
  Zn  Zn83  1  0.71970558  0.66421490  0.64476565  1
  Zn  Zn84  1  0.30996673  0.32424787  0.32224701  1
  Zn  Zn85  1  0.31688420  0.31546932  0.78828417  1
  Zn  Zn86  1  0.30888373  0.81139091  0.31958213  1
  Zn  Zn87  1  0.31535948  0.81317654  0.81097761  1
  Zn  Zn88  1  0.82638583  0.29002782  0.32466998  1
  Zn  Zn89  1  0.81593644  0.30411427  0.81203509  1
  Zn  Zn90  1  0.80485501  0.80746467  0.31568358  1
  Zn  Zn91  1  0.80284163  0.70311917  0.81768718  1
  Zn  Zn92  1  0.20664304  0.43139321  0.44592526  1
  Zn  Zn93  1  0.18803498  0.44098109  0.93065713  1
  Zn  Zn94  1  0.18996522  0.94012802  0.44140260  1
  Zn  Zn95  1  0.19560634  0.93766761  0.94281796  1
  Zn  Zn96  1  0.68902245  0.43148032  0.43457486  1
  Zn  Zn97  1  0.68803405  0.43269224  0.94372270  1
  Zn  Zn98  1  0.67476972  0.93128638  0.44517743  1
  Zn  Zn99  1  0.70263960  0.98160514  0.99043867  1
  Zn  Zn100  1  0.31401346  0.05392690  0.06838350  1
  Zn  Zn101  1  0.31357067  0.05930274  0.56365047  1
  Zn  Zn102  1  0.30918877  0.56521687  0.06161404  1
  Zn  Zn103  1  0.31173171  0.54199708  0.56696986  1
  Zn  Zn104  1  0.83838882  0.06306931  0.07462600  1
  Zn  Zn105  1  0.80858882  0.05727813  0.56164619  1
  Zn  Zn106  1  0.79732367  0.57908740  -0.03590790  1
  Zn  Zn107  1  0.85899032  0.59088764  0.51321480  1
  Zn  Zn108  1  0.43880792  0.43680912  0.19849982  1
  Zn  Zn109  1  0.43945542  0.43032252  0.68797077  1
  Zn  Zn110  1  0.43308887  0.93249158  0.18733676  1
  Zn  Zn111  1  0.44078761  0.93553946  0.68902902  1
  Zn  Zn112  1  0.98153631  0.50760698  0.03224760  1
  Zn  Zn113  1  1.01218679  0.45817034  0.72422767  1
  Zn  Zn114  1  0.96521854  0.93960994  0.18446953  1
  Zn  Zn115  1  0.93001588  0.93741326  0.68686441  1
  Zn  Zn116  1  0.06738025  0.06541250  0.30440048  1
  Zn  Zn117  1  0.06137658  0.06662884  0.81334456  1
  Zn  Zn118  1  0.05348337  0.57768969  0.31714685  1
  Zn  Zn119  1  0.05165098  0.57996988  0.82452211  1
  Zn  Zn120  1  0.55345064  0.07628458  0.32254854  1
  Zn  Zn121  1  0.56735092  0.06284312  0.81849042  1
  Zn  Zn122  1  0.57909907  0.56577296  0.31293872  1
  Zn  Zn123  1  0.68375564  0.56546125  0.80591337  1
  Zn  Zn124  1  0.43115778  0.20134093  0.44466013  1
  Zn  Zn125  1  0.41108330  0.16978963  0.94404057  1
  Zn  Zn126  1  0.42834440  0.68342043  0.44185430  1
  Zn  Zn127  1  0.42896957  0.67940412  0.94861623  1
  Zn  Zn128  1  0.94499166  0.18592916  0.42878445  1
  Zn  Zn129  1  0.93891751  0.19494547  0.93980642  1
  Zn  Zn130  1  0.94405622  0.68721608  0.41277909  1
  Zn  Zn131  1  0.94501585  0.68705402  0.93601027  1
  Zn  Zn132  1  0.07589201  0.33653241  0.02292195  1
  Zn  Zn133  1  0.08047364  0.30755367  0.57007990  1
  Zn  Zn134  1  0.07254911  0.80719682  0.07638274  1
  Zn  Zn135  1  0.05323444  0.81449162  0.56380748  1
  Zn  Zn136  1  0.58044256  0.26936785  0.09397564  1
  Zn  Zn137  1  0.56041744  0.31967471  0.54910553  1
  Zn  Zn138  1  0.54535633  0.81637188  0.06404727  1
  Zn  Zn139  1  0.56014933  0.81471891  0.57162689  1
  O  O140  1  0.22413393  0.13964882  0.10715399  1
  O  O141  1  0.11776704  0.11310554  0.61716743  1
  O  O142  1  0.13327109  0.63484770  0.10535618  1
  O  O143  1  0.11908831  0.63595656  0.61020388  1
  O  O144  1  0.59628168  0.15451956  0.11764033  1
  O  O145  1  0.63021816  0.11297342  0.61244132  1
  O  O146  1  0.60128066  0.60401682  0.12503170  1
  O  O147  1  0.63219401  0.59483430  0.61888678  1
  O  O148  1  0.36717729  0.40046794  0.38310620  1
  O  O149  1  0.38089412  0.38065730  0.87276938  1
  O  O150  1  0.37325800  0.88236872  0.39093240  1
  O  O151  1  0.35835016  0.87803811  0.89136068  1
  O  O152  1  0.89513875  0.36624363  0.38539512  1
  O  O153  1  0.87101749  0.37182911  0.88401987  1
  O  O154  1  0.85627754  0.89240030  0.38400568  1
  O  O155  1  0.87650233  0.89439566  0.89981766  1
  O  O156  1  0.25899516  0.00299009  0.37386849  1
  O  O157  1  0.24164321  0.00764099  0.85430639  1
  O  O158  1  0.24020823  0.51158192  0.36658118  1
  O  O159  1  0.26154802  0.50553330  0.86827344  1
  O  O160  1  0.71296486  -0.00685142  0.33618029  1
  O  O161  1  0.76712725  0.01782416  0.89499678  1
  O  O162  1  0.76040262  0.48894485  0.36974862  1
  O  O163  1  0.75185291  0.50496479  0.87750763  1
  O  O164  1  0.25046875  0.49951693  0.13956802  1
  O  O165  1  0.24756080  0.51069251  0.65561852  1
  O  O166  1  0.25266387  0.99423467  0.14666468  1
  O  O167  1  0.23635374  0.99377431  0.63157391  1
  O  O168  1  0.72170550  0.49385991  0.11804561  1
  O  O169  1  0.73174600  0.46600556  0.61736400  1
  O  O170  1  0.75159154  0.99591998  0.09278128  1
  O  O171  1  0.73507950  0.99184692  0.61720346  1
  O  O172  1  0.01677242  0.36684098  0.26475212  1
  O  O173  1  -0.01130546  0.34931010  0.72798216  1
  O  O174  1  -0.00707879  0.85767558  0.25783724  1
  O  O175  1  0.01123768  0.86744738  0.74114497  1
  O  O176  1  0.47955569  0.34883821  0.25744766  1
  O  O177  1  0.51042403  0.35881449  0.75996844  1
  O  O178  1  0.48543293  0.87314641  0.27031686  1
  O  O179  1  0.49472200  0.88433505  0.78004782  1
  O  O180  1  0.49773199  0.13648465  0.24522933  1
  O  O181  1  0.49274619  0.13038529  0.74979687  1
  O  O182  1  0.48739284  0.61820823  0.24534675  1
  O  O183  1  0.51964733  0.68125126  0.79425451  1
  O  O184  1  1.00473316  0.14015827  0.24575878  1
  O  O185  1  0.99109203  0.12785314  0.74072848  1
  O  O186  1  0.97910299  0.65887283  0.28509110  1
  O  O187  1  1.00899571  0.64832435  0.73495602  1
  O  O188  1  0.34025757  0.24413304  0.00123902  1
  O  O189  1  0.35142244  0.25792606  0.50313600  1
  O  O190  1  0.39224867  0.76929717  -0.00013111  1
  O  O191  1  0.37026017  0.76311992  0.51043849  1
  O  O192  1  0.87832534  0.26097228  0.01063498  1
  O  O193  1  0.86565824  0.24599088  0.49212419  1
  O  O194  1  0.90968740  0.77237061  0.00759963  1
  O  O195  1  0.88194544  0.77497044  0.48830032  1
  O  O196  1  0.11125444  0.23034165  0.48278279  1
  O  O197  1  0.15132378  0.24456734  1.00153572  1
  O  O198  1  0.12831920  0.76211132  0.49640226  1
  O  O199  1  0.11724046  0.74819324  0.98508675  1
  O  O200  1  0.62691151  0.24096499  0.49398834  1
  O  O201  1  0.62341616  0.25486754  0.98426587  1
  O  O202  1  0.63000539  0.75008943  0.50520444  1
  O  O203  1  0.61019334  0.73227867  1.00751720  1
  O  O204  1  0.47596246  0.24581661  0.14431350  1
  O  O205  1  0.51135058  0.24781056  0.63787046  1
  O  O206  1  0.50317904  0.73071699  0.13032333  1
  O  O207  1  0.48271877  0.74980971  0.62385042  1
  O  O208  1  1.01807804  0.26137904  0.13924633  1
  O  O209  1  1.00383344  0.23073407  0.62535297  1
  O  O210  1  0.99543896  0.74996869  0.14222698  1
  O  O211  1  0.99456397  0.74816106  0.63506885  1
  O  O212  1  0.01425138  0.25747405  0.36376816  1
  O  O213  1  0.00030492  0.24569957  0.85788694  1
  O  O214  1  0.02409639  0.76270141  0.37743603  1
  O  O215  1  0.01885681  0.74555102  0.85845427  1
  O  O216  1  0.50471146  0.23779774  0.36188694  1
  O  O217  1  0.51150342  0.25119670  0.87237721  1
  O  O218  1  0.48848262  0.75701402  0.38214981  1
  O  O219  1  0.50405318  0.72087537  0.85389717  1
  O  O220  1  0.23554098  0.11199262  0.49271962  1
  O  O221  1  0.26147079  0.12105528  0.96839326  1
  O  O222  1  0.25522423  0.61185346  0.48752151  1
  O  O223  1  0.23952748  0.61748351  0.98424530  1
  O  O224  1  0.74467900  0.13555731  0.50352380  1
  O  O225  1  0.76449885  0.13671306  0.99532640  1
  O  O226  1  0.76228123  0.65229186  0.53168093  1
  O  O227  1  0.72087691  0.63276982  1.02984042  1
  O  O228  1  0.25398695  0.39555266  0.01827810  1
  O  O229  1  0.29391525  0.42729163  0.51875239  1
  O  O230  1  0.26185239  0.87869996  0.01458772  1
  O  O231  1  0.26221933  0.88428779  0.51418224  1
  O  O232  1  0.76598650  0.37580017  0.00384842  1
  O  O233  1  0.76656580  0.36179928  0.50342248  1
  O  O234  1  0.69174206  0.86604789  -0.00912001  1
  O  O235  1  0.75485273  0.86853776  0.49949815  1
  O  O236  1  0.12452520  0.50646080  0.25022522  1
  O  O237  1  0.12067479  0.50098733  0.75978685  1
  O  O238  1  0.13910462  0.99112655  0.25967189  1
  O  O239  1  0.12654650  0.99146442  0.74221307  1
  O  O240  1  0.61060706  0.48645989  0.23538465  1
  O  O241  1  0.62981874  0.47579832  0.75076429  1
  O  O242  1  0.66014013  1.00920198  0.28436992  1
  O  O243  1  0.62836848  1.00929494  0.73920951  1
  O  O244  1  0.36596634  -0.00413412  0.27205294  1
  O  O245  1  0.36639408  0.01174730  0.73859414  1
  O  O246  1  0.36521823  0.50627892  0.26344359  1
  O  O247  1  0.37996803  0.49901741  0.76475488  1
  O  O248  1  0.89228270  0.01570081  0.23793829  1
  O  O249  1  0.88107280  0.00860015  0.76902354  1
  O  O250  1  0.80358728  0.42380622  0.22570292  1
  O  O251  1  0.84785843  0.52702341  0.70277221  1
  O  O252  1  0.12724686  0.35873436  0.39464034  1
  O  O253  1  0.11009852  0.36534260  0.91376736  1
  O  O254  1  0.15083406  0.85939277  0.37367147  1
  O  O255  1  0.13822969  0.86163119  0.86673284  1
  O  O256  1  0.61855472  0.35557729  0.38276935  1
  O  O257  1  0.62212051  0.36116790  0.86589790  1
  O  O258  1  0.60071932  0.87358752  0.38296099  1
  O  O259  1  0.56199469  0.84013707  0.75872995  1
  O  O260  1  0.38823740  0.11748292  0.13203488  1
  O  O261  1  0.36840674  0.12891110  0.63638028  1
  O  O262  1  0.38299648  0.61609135  0.13898065  1
  O  O263  1  0.36405931  0.63573523  0.62016383  1
  O  O264  1  0.88730821  0.14498243  0.13456068  1
  O  O265  1  0.88129795  0.10840550  0.63798307  1
  O  O266  1  0.86748804  0.64914523  0.10987606  1
  O  O267  1  0.84686958  0.58931163  0.66313724  1
  O  O268  1  0.24171140  0.28343424  0.12856490  1
  O  O269  1  0.18615251  0.28250146  0.60823328  1
  O  O270  1  0.26031123  0.75610713  0.13223270  1
  O  O271  1  0.25698081  0.76227612  0.63102840  1
  O  O272  1  0.75595921  0.24809124  0.12965005  1
  O  O273  1  0.73953949  0.25924170  0.60573157  1
  O  O274  1  0.77422129  0.77620441  0.09165435  1
  O  O275  1  0.74685621  0.77443101  0.61225153  1
  O  O276  1  0.23811803  0.24063011  0.37230955  1
  O  O277  1  0.24914510  0.24147722  0.85323236  1
  O  O278  1  0.24459168  0.73227603  0.37574069  1
  O  O279  1  0.24163260  0.73639034  0.86982349  1
  O  O280  1  0.73961490  0.25302384  0.39043916  1
  O  O281  1  0.73875901  0.23816439  0.87053562  1
  O  O282  1  0.74919838  0.74922095  0.39530271  1
  O  O283  1  0.76027187  0.74784377  0.91681241  1
  O  O284  1  0.00677619  0.12640072  -0.00013978  1
  O  O285  1  0.00467553  0.11248285  0.50481187  1
  O  O286  1  0.01395650  0.61613182  -0.00441844  1
  O  O287  1  -0.03086678  0.63686754  0.52286733  1
  O  O288  1  0.48238919  0.11190208  0.01234143  1
  O  O289  1  0.50741589  0.13061004  0.50359025  1
  O  O290  1  0.49934719  0.61293222  0.01390013  1
  O  O291  1  0.46623786  0.58714038  0.49401953  1
  O  O292  1  0.46272436  0.37148671  0.52256910  1
  O  O293  1  0.49132337  0.37484224  0.98852715  1
  O  O294  1  0.48395522  0.87652547  0.49621201  1
  O  O295  1  0.48757146  0.89249059  1.00471480  1
  O  O296  1  0.99419006  0.35902913  0.49499719  1
  O  O297  1  0.97606568  0.38971366  1.01572944  1
  O  O298  1  0.98563703  0.89251263  0.50585252  1
  O  O299  1  1.01660443  0.88919434  1.00164730  1
  O  O300  1  0.49489475  0.49786777  0.35956069  1
  O  O301  1  0.48726329  0.48683250  0.88433737  1
  O  O302  1  0.48542941  0.99695145  0.37914138  1
  O  O303  1  0.48672087  1.01394534  0.87941693  1
  O  O304  1  1.01577729  0.47933075  0.37590907  1
  O  O305  1  0.97272034  0.50153616  0.82266770  1
  O  O306  1  1.00593794  1.00270588  0.38573674  1
  O  O307  1  0.98844881  1.01280476  0.88479726  1
  O  O308  1  0.01692396  0.00798521  0.11039613  1
  O  O309  1  0.00759372  0.00551543  0.62014356  1
  O  O310  1  -0.00199492  0.49543461  0.15013807  1
  O  O311  1  -0.00214456  0.53091665  0.63681262  1
  O  O312  1  0.50690333  0.01152216  0.14394463  1
  O  O313  1  0.51773045  -0.00828822  0.62497479  1
  O  O314  1  0.49838306  0.49407205  0.11744701  1
  O  O315  1  0.51298989  0.49338560  0.63573361  1
  O  O316  1  0.24839004  0.39141705  0.24491789  1
  O  O317  1  0.23836687  0.39200098  0.76433621  1
  O  O318  1  0.26020700  0.88107875  0.24290754  1
  O  O319  1  0.24338869  0.88397474  0.74119081  1
  O  O320  1  0.75892835  0.37440251  0.25580078  1
  O  O321  1  0.74023432  0.35490856  0.73624429  1
  O  O322  1  0.72363389  0.86142126  0.23905102  1
  O  O323  1  0.76138076  0.87672253  0.73351423  1
  O  O324  1  0.24821538  0.10658001  0.27130353  1
  O  O325  1  0.25602327  0.12139207  0.74389620  1
  O  O326  1  0.25852599  0.61532178  0.25380907  1
  O  O327  1  0.23733176  0.61281576  0.77086638  1
  O  O328  1  0.77207677  0.12484733  0.24276824  1
  O  O329  1  0.76242609  0.12778457  0.74564248  1
  O  O330  1  0.77138279  0.60858127  0.25160582  1
  O  O331  1  0.72203247  0.65674599  0.75594057  1
  O  O332  1  0.36668050  0.11127091  0.39220013  1
  O  O333  1  0.35933610  0.12691528  0.84909420  1
  O  O334  1  0.36355167  0.61383563  0.36473319  1
  O  O335  1  0.36385802  0.61311593  0.87975324  1
  O  O336  1  0.88599896  0.12271574  0.35265897  1
  O  O337  1  0.86469824  0.12441360  0.86757919  1
  O  O338  1  0.85092145  0.62126973  0.39911999  1
  O  O339  1  0.86557307  0.62722536  0.88294668  1
  O  O340  1  0.12376066  0.39162322  0.12626635  1
  O  O341  1  0.11366328  0.42987673  0.58997849  1
  O  O342  1  0.15107134  0.87052275  0.12324146  1
  O  O343  1  0.13023578  0.88095318  0.63068747  1
  O  O344  1  0.61316034  0.37431871  0.11858975  1
  O  O345  1  0.62171047  0.36868069  0.64006853  1
  O  O346  1  0.62905484  0.86349319  0.14638858  1
  O  O347  1  0.63521896  0.89061644  0.62070484  1
  O  O348  1  0.12560819  0.24290397  0.26473040  1
  O  O349  1  0.10733015  0.24405595  0.74937602  1
  O  O350  1  0.11761195  0.74629027  0.25450715  1
  O  O351  1  0.12675292  0.76166746  0.75367777  1
  O  O352  1  0.63498660  0.24302497  0.26856929  1
  O  O353  1  0.61561629  0.24824406  0.75820279  1
  O  O354  1  0.64669023  0.83590565  0.21956881  1
  O  O355  1  0.61376281  0.83221515  0.81177461  1
  O  O356  1  0.35785934  0.24136088  0.25970147  1
  O  O357  1  0.39420774  0.23891798  0.75032111  1
  O  O358  1  0.36925442  0.73111640  0.25807880  1
  O  O359  1  0.37070097  0.74803048  0.73815758  1
  O  O360  1  0.89269828  0.24427300  0.24112201  1
  O  O361  1  0.88262616  0.22989227  0.74966472  1
  O  O362  1  0.86316060  0.76473469  0.22522705  1
  O  O363  1  0.88920716  0.75793425  0.76046269  1
  O  O364  1  0.40881946  0.52941345  0.48579589  1
  O  O365  1  0.38182467  0.49987272  0.99211634  1
  O  O366  1  0.37623137  0.99046260  0.49584250  1
  O  O367  1  0.38199496  0.98946850  1.00336888  1
  O  O368  1  0.88045473  0.47722689  0.50364023  1
  O  O369  1  0.87143534  0.49231643  0.99398201  1
  O  O370  1  0.88586569  1.00542274  0.48926334  1
  O  O371  1  0.90129203  0.99862905  0.99771217  1
  O  O372  1  0.11977519  0.01031149  -0.01722519  1
  O  O373  1  0.11292770  0.00189174  0.50684827  1
  O  O374  1  0.12231769  0.51092187  0.00209206  1
  O  O375  1  0.12217169  0.47522446  0.53016274  1
  O  O376  1  0.59393010  0.00538613  -0.00487995  1
  O  O377  1  0.61871349  0.01673692  0.49776127  1
  O  O378  1  0.60757366  0.50134112  0.00684245  1
  O  O379  1  0.61297196  0.47049287  0.51014743  1
  O  O380  1  0.36291978  0.38514851  0.12411471  1
  O  O381  1  0.36402780  0.35472049  0.64891220  1
  O  O382  1  0.36467310  0.87743648  0.11699526  1
  O  O383  1  0.36906886  0.87395077  0.61824156  1
  O  O384  1  0.87280043  0.35481129  0.12576985  1
  O  O385  1  0.86578407  0.36675505  0.61350408  1
  O  O386  1  0.88799681  0.88079105  0.10699102  1
  O  O387  1  0.85987066  0.89502085  0.60484389  1
  O  O388  1  0.13226632  0.12869534  0.38164782  1
  O  O389  1  0.14133442  0.13231946  0.85996893  1
  O  O390  1  0.13436752  0.63515731  0.38093076  1
  O  O391  1  0.13268548  0.63553683  0.88590181  1
  O  O392  1  0.62418078  0.13500751  0.39267298  1
  O  O393  1  0.64135552  0.13149563  0.87742231  1
  O  O394  1  0.66099965  0.61415512  0.37142130  1
  O  O395  1  0.62211745  0.61246155  0.90083523  1
