# generated using pymatgen
data_V35Zn35O128
_symmetry_space_group_name_H-M   'P 1'
_cell_length_a   16.90200625
_cell_length_b   16.92606706
_cell_length_c   16.93479761
_cell_angle_alpha   89.84667273
_cell_angle_beta   90.20281564
_cell_angle_gamma   90.19820479
_symmetry_Int_Tables_number   1
_chemical_formula_structural   V35Zn35O128
_chemical_formula_sum   'V70 Zn70 O256'
_cell_volume   4844.70642786
_cell_formula_units_Z   2
loop_
 _symmetry_equiv_pos_site_id
 _symmetry_equiv_pos_as_xyz
  1  'x, y, z'
loop_
 _atom_site_type_symbol
 _atom_site_label
 _atom_site_symmetry_multiplicity
 _atom_site_fract_x
 _atom_site_fract_y
 _atom_site_fract_z
 _atom_site_occupancy
  V  V0  1  0.37595256  0.63139098  0.75002938  1
  V  V1  1  0.00398274  0.02557189  0.01136230  1
  V  V2  1  0.25329979  0.48632643  0.74859852  1
  V  V3  1  0.63238050  0.76135852  0.86047891  1
  V  V4  1  0.25446072  0.25794082  0.50645823  1
  V  V5  1  0.85535897  0.37150761  0.52017647  1
  V  V6  1  0.61519724  0.35327699  0.22704370  1
  V  V7  1  0.50287349  0.74125728  0.25910207  1
  V  V8  1  0.72962213  0.49950653  0.23541411  1
  V  V9  1  0.50898098  0.75893812  0.74073251  1
  V  V10  1  0.24797978  0.89099545  0.11813233  1
  V  V11  1  0.87390592  0.49445969  0.37438825  1
  V  V12  1  0.00836905  0.76402647  0.74713459  1
  V  V13  1  0.34333792  0.37582103  0.00711165  1
  V  V14  1  0.00612597  0.62153816  0.11873733  1
  V  V15  1  0.58819049  0.29010428  0.87041650  1
  V  V16  1  0.11711513  -0.00252192  0.63540547  1
  V  V17  1  0.25174615  0.12257208  0.88649213  1
  V  V18  1  0.48682056  0.87768621  0.39005698  1
  V  V19  1  0.66858402  -0.03488662  0.62252921  1
  V  V20  1  0.13838344  0.48838446  0.62494108  1
  V  V21  1  0.26190897  -0.00588697  0.26826908  1
  V  V22  1  0.88402284  0.39049377  -0.01867116  1
  V  V23  1  -0.00287183  0.13701797  0.63332250  1
  V  V24  1  0.38012472  0.39093737  0.49542429  1
  V  V25  1  0.12057085  0.48521639  0.12096327  1
  V  V26  1  0.87209015  0.76720253  0.12665966  1
  V  V27  1  0.87929653  0.01211926  0.85877137  1
  V  V28  1  0.12976309  0.74220104  0.37764588  1
  V  V29  1  0.62413627  0.13907287  0.50131026  1
  V  V30  1  -0.00192771  0.74853427  0.25344448  1
  V  V31  1  -0.00070308  0.87483602  0.40588227  1
  V  V32  1  0.12488050  0.74012219  0.88676776  1
  V  V33  1  0.50484959  0.48772169  -0.00644257  1
  V  V34  1  0.25328408  0.61511728  0.37227074  1
  V  V35  1  0.24391815  0.72296992  0.00602533  1
  V  V36  1  0.01692000  0.27495793  0.74431551  1
  V  V37  1  0.67435226  0.79886452  0.42201832  1
  V  V38  1  0.12186556  0.88214902  0.25381067  1
  V  V39  1  0.85314849  0.26039905  0.13264392  1
  V  V40  1  0.00554431  0.88385779  0.90057754  1
  V  V41  1  0.49686936  0.62386809  0.11517163  1
  V  V42  1  0.37767519  0.13689782  0.25078611  1
  V  V43  1  -0.00448231  0.49476700  0.49759974  1
  V  V44  1  0.75633427  0.25208952  -0.03934822  1
  V  V45  1  0.01403981  0.28394414  0.26325883  1
  V  V46  1  0.37508695  0.49823162  0.87311454  1
  V  V47  1  0.11587801  0.12270521  0.49648243  1
  V  V48  1  0.74696074  0.50299311  0.73029039  1
  V  V49  1  0.73808538  0.62381348  0.37666963  1
  V  V50  1  0.38128942  0.25228582  0.63183796  1
  V  V51  1  0.75526422  0.76798112  0.00347206  1
  V  V52  1  0.13043368  0.25580398  0.88735258  1
  V  V53  1  0.49733432  0.11319305  0.62574717  1
  V  V54  1  0.50811505  0.37766212  0.37151568  1
  V  V55  1  0.74748890  0.13915178  0.36959751  1
  V  V56  1  0.24081350  0.48172092  0.24865338  1
  V  V57  1  0.86988165  0.00395023  0.38264206  1
  V  V58  1  0.26039102  0.12614617  0.38459952  1
  V  V59  1  0.61774628  0.60041495  0.49784792  1
  V  V60  1  0.12792905  0.62090805  0.49962888  1
  V  V61  1  0.86974897  0.62215072  0.24978691  1
  V  V62  1  0.25767183  -0.01297362  0.75231238  1
  V  V63  1  0.37019580  0.61456255  0.24619060  1
  V  V64  1  0.88891931  0.61734925  0.76019285  1
  V  V65  1  0.51266554  0.60743414  0.62951998  1
  V  V66  1  0.00487295  0.62336322  0.63144956  1
  V  V67  1  0.62996723  0.87858277  0.24346019  1
  V  V68  1  0.76092980  0.61488412  0.87959116  1
  V  V69  1  0.62447891  0.62463105  -0.00195565  1
  Zn  Zn70  1  0.37120427  0.75378226  0.12143996  1
  Zn  Zn71  1  0.48868055  0.12889568  0.13293432  1
  Zn  Zn72  1  0.38480004  0.12266604  0.76899560  1
  Zn  Zn73  1  -0.00936996  0.13797857  0.13183902  1
  Zn  Zn74  1  0.30105664  0.77480317  0.56482048  1
  Zn  Zn75  1  0.85795513  0.15648315  0.74543838  1
  Zn  Zn76  1  0.17002840  0.23440905  0.19678103  1
  Zn  Zn77  1  0.19142364  0.18045359  0.69535373  1
  Zn  Zn78  1  0.18831672  0.68972238  0.18966403  1
  Zn  Zn79  1  0.18645012  0.68644557  0.69802399  1
  Zn  Zn80  1  0.70256478  0.18980002  0.19046974  1
  Zn  Zn81  1  0.66183143  0.20377118  0.69497272  1
  Zn  Zn82  1  0.68656480  0.68931676  0.18320886  1
  Zn  Zn83  1  0.69580525  0.67922951  0.68403269  1
  Zn  Zn84  1  0.31805078  0.30950256  0.32108454  1
  Zn  Zn85  1  0.31162421  0.30936460  0.82053798  1
  Zn  Zn86  1  0.31415503  0.80071773  0.31289695  1
  Zn  Zn87  1  0.31810705  0.81663610  0.83379572  1
  Zn  Zn88  1  0.79755125  0.32231649  0.31544282  1
  Zn  Zn89  1  0.83035048  0.33294729  0.79580490  1
  Zn  Zn90  1  0.81877137  0.81863314  0.31633960  1
  Zn  Zn91  1  0.84068130  0.79901174  0.83669640  1
  Zn  Zn92  1  0.18033988  0.43047325  0.43179298  1
  Zn  Zn93  1  0.16103982  0.44679231  0.93191451  1
  Zn  Zn94  1  0.17921098  0.94091144  0.44446033  1
  Zn  Zn95  1  0.17883061  0.95041112  0.93514112  1
  Zn  Zn96  1  0.68640487  0.43465294  0.43139097  1
  Zn  Zn97  1  0.69054463  0.43080639  0.93506957  1
  Zn  Zn98  1  0.69016920  0.98123588  0.44336370  1
  Zn  Zn99  1  0.69134644  0.94832725  0.92727704  1
  Zn  Zn100  1  0.26067011  0.10467171  0.09729304  1
  Zn  Zn101  1  0.29803014  0.07266733  0.58677252  1
  Zn  Zn102  1  0.31108680  0.54682440  0.06689316  1
  Zn  Zn103  1  0.32284825  0.58486769  0.55954892  1
  Zn  Zn104  1  0.83871035  0.09653374  0.02671992  1
  Zn  Zn105  1  0.81520016  0.06862728  0.56053253  1
  Zn  Zn106  1  0.81703285  0.56567493  0.06255925  1
  Zn  Zn107  1  0.82357341  0.59228261  0.55499793  1
  Zn  Zn108  1  0.43807991  0.43567889  0.18229614  1
  Zn  Zn109  1  0.43594507  0.43609675  0.68070415  1
  Zn  Zn110  1  0.43209410  0.92434023  0.20030575  1
  Zn  Zn111  1  0.43407670  0.93836101  0.67904295  1
  Zn  Zn112  1  0.92776843  0.43591565  0.17602279  1
  Zn  Zn113  1  0.93775809  0.44197973  0.68661619  1
  Zn  Zn114  1  0.93823327  0.95193231  0.19908863  1
  Zn  Zn115  1  0.93122074  0.93980095  0.67035120  1
  Zn  Zn116  1  0.04519861  0.05579590  0.32320887  1
  Zn  Zn117  1  0.06897518  0.06975217  0.81319310  1
  Zn  Zn118  1  0.05998629  0.55316547  0.30831111  1
  Zn  Zn119  1  0.07023276  0.55369683  0.81741614  1
  Zn  Zn120  1  0.55813696  0.05711714  0.31902213  1
  Zn  Zn121  1  0.70379244  0.05527190  0.78409018  1
  Zn  Zn122  1  0.55152929  0.55508973  0.31464310  1
  Zn  Zn123  1  0.56830137  0.56085201  0.81672271  1
  Zn  Zn124  1  0.44300582  0.19348786  0.43671970  1
  Zn  Zn125  1  0.42726342  0.19948686  0.95565656  1
  Zn  Zn126  1  0.43473361  0.68127040  0.44386660  1
  Zn  Zn127  1  0.43410560  0.70297456  0.92700801  1
  Zn  Zn128  1  0.92595174  0.19689505  0.43758275  1
  Zn  Zn129  1  0.94391710  0.20306597  0.92536144  1
  Zn  Zn130  1  0.93923927  0.69110227  0.44311666  1
  Zn  Zn131  1  0.94055032  0.69259463  0.94248002  1
  Zn  Zn132  1  0.05015212  0.30738765  0.06555454  1
  Zn  Zn133  1  0.06706225  0.31461513  0.54148140  1
  Zn  Zn134  1  0.06596303  0.81350633  0.07097096  1
  Zn  Zn135  1  0.10747960  0.79582016  0.58217479  1
  Zn  Zn136  1  0.56451342  0.28664493  0.04953890  1
  Zn  Zn137  1  0.55559337  0.30498128  0.54854288  1
  Zn  Zn138  1  0.57040157  0.79840465  0.06707744  1
  Zn  Zn139  1  0.56649200  0.80728742  0.56680919  1
  O  O140  1  0.09511289  0.13435462  0.19187499  1
  O  O141  1  0.11711527  0.11908251  0.61849680  1
  O  O142  1  0.10676420  0.62890218  0.13606175  1
  O  O143  1  0.12275343  0.61677739  0.61667186  1
  O  O144  1  0.62786301  0.10477770  0.12961709  1
  O  O145  1  0.60760830  0.14039272  0.61289900  1
  O  O146  1  0.61508335  0.63578514  0.10603332  1
  O  O147  1  0.62312822  0.62613228  0.60939434  1
  O  O148  1  0.36885167  0.38192786  0.39300391  1
  O  O149  1  0.36682815  0.39206111  0.88581612  1
  O  O150  1  0.38743176  0.85859864  0.37408201  1
  O  O151  1  0.40410075  0.81361245  0.90213364  1
  O  O152  1  0.85976497  0.39331035  0.38219708  1
  O  O153  1  0.88183831  0.39068790  0.88002087  1
  O  O154  1  0.89450442  0.88392296  0.37389372  1
  O  O155  1  0.89944041  0.88748956  0.86978996  1
  O  O156  1  0.24659965  0.00594882  0.37323937  1
  O  O157  1  0.23976576  0.01041978  0.85964614  1
  O  O158  1  0.23614335  0.50420235  0.36064129  1
  O  O159  1  0.25727727  0.50567314  0.85269902  1
  O  O160  1  0.77017244  -0.00584873  0.36305649  1
  O  O161  1  0.77472940  -0.00268932  0.86439346  1
  O  O162  1  0.75122748  0.50960158  0.35959499  1
  O  O163  1  0.75130958  0.51591398  0.87198857  1
  O  O164  1  0.23290645  0.50197364  0.14049015  1
  O  O165  1  0.24382492  0.50769226  0.62886637  1
  O  O166  1  0.24378394  0.99387152  0.15123632  1
  O  O167  1  0.23520766  1.00069423  0.64287522  1
  O  O168  1  0.74988210  0.50951710  0.13857877  1
  O  O169  1  0.76225968  0.53101706  0.63440123  1
  O  O170  1  0.66375010  1.04653623  0.09994979  1
  O  O171  1  0.77055681  0.98190162  0.62213027  1
  O  O172  1  -0.01579534  0.38081709  0.25860340  1
  O  O173  1  0.01413010  0.37482398  0.73918351  1
  O  O174  1  0.01247789  0.86493453  0.25394664  1
  O  O175  1  -0.00062191  0.86219991  0.74019419  1
  O  O176  1  0.51212422  0.38093413  0.25024393  1
  O  O177  1  0.52810402  0.36091734  0.71902982  1
  O  O178  1  0.50089192  0.85314261  0.25730550  1
  O  O179  1  0.49371263  0.85734605  0.73504324  1
  O  O180  1  0.48402815  0.11531590  0.24995600  1
  O  O181  1  0.49357482  0.12204441  0.72572979  1
  O  O182  1  0.49073029  0.62492247  0.23828207  1
  O  O183  1  0.50519901  0.62833282  0.74212187  1
  O  O184  1  1.03883932  0.14918398  0.25474633  1
  O  O185  1  1.00447501  0.13595891  0.73611075  1
  O  O186  1  0.98928676  0.63409532  0.24977244  1
  O  O187  1  1.00482941  0.62007784  0.75048252  1
  O  O188  1  0.34738129  0.27718861  -0.00606474  1
  O  O189  1  0.36547802  0.25690844  0.50339075  1
  O  O190  1  0.34840829  0.73717348  0.00597272  1
  O  O191  1  0.35392392  0.69313282  0.51671445  1
  O  O192  1  0.86713566  0.26033265  -0.00811545  1
  O  O193  1  0.87436492  0.27373058  0.50221319  1
  O  O194  1  0.86354715  0.75328190  0.00921445  1
  O  O195  1  0.85597040  0.69476694  0.51183056  1
  O  O196  1  0.14902556  0.22811368  0.51184344  1
  O  O197  1  0.11550535  0.25484124  0.98645323  1
  O  O198  1  0.12062116  0.73269930  0.48606493  1
  O  O199  1  0.13092082  0.75584090  0.99687666  1
  O  O200  1  0.62889698  0.23857917  0.49013859  1
  O  O201  1  0.64133026  0.26437081  0.96318205  1
  O  O202  1  0.62743355  0.74008193  0.49015504  1
  O  O203  1  0.63940179  0.74575648  0.98684018  1
  O  O204  1  0.49948580  0.19473662  0.04650613  1
  O  O205  1  0.48340496  0.23839498  0.61144887  1
  O  O206  1  0.49145526  0.73889305  0.12858589  1
  O  O207  1  0.51118709  0.73478829  0.63901378  1
  O  O208  1  0.99169776  0.25726426  0.15355130  1
  O  O209  1  1.01620851  0.24518604  0.62780082  1
  O  O210  1  0.99279816  0.74456352  0.13663494  1
  O  O211  1  1.02187896  0.73744578  0.64447136  1
  O  O212  1  -0.02502582  0.24663569  0.34934983  1
  O  O213  1  0.02165707  0.25130541  0.85579680  1
  O  O214  1  0.00391780  0.75273152  0.36854523  1
  O  O215  1  0.00668250  0.76611443  0.87822275  1
  O  O216  1  0.48098537  0.27678110  0.36832919  1
  O  O217  1  0.49048741  0.27193194  0.88811070  1
  O  O218  1  0.49327439  0.73306593  0.35979341  1
  O  O219  1  0.52743805  0.74360359  0.85768312  1
  O  O220  1  0.25679247  0.12268838  0.49128407  1
  O  O221  1  0.24997548  0.09873226  0.98385327  1
  O  O222  1  0.23237845  0.60481655  0.48509955  1
  O  O223  1  0.23947742  0.62506782  1.01280730  1
  O  O224  1  0.73622435  0.12014155  0.49310610  1
  O  O225  1  0.75124185  0.15028784  0.98241312  1
  O  O226  1  0.72892126  0.61233476  0.48427966  1
  O  O227  1  0.74664518  0.62942051  0.99123172  1
  O  O228  1  0.24822548  0.40682320  -0.00213855  1
  O  O229  1  0.25839251  0.36167978  0.49947059  1
  O  O230  1  0.24080920  0.89677730  0.01944189  1
  O  O231  1  0.27044225  0.88027028  0.49841241  1
  O  O232  1  0.76401925  0.36341808  -0.01298162  1
  O  O233  1  0.75583681  0.38517333  0.50304527  1
  O  O234  1  0.74597534  0.86597643  -0.00326319  1
  O  O235  1  0.72751355  0.86932514  0.46717790  1
  O  O236  1  0.13325295  0.49606371  0.24402959  1
  O  O237  1  0.14377255  0.50652148  0.73530606  1
  O  O238  1  0.12573782  0.98266930  0.26592000  1
  O  O239  1  0.13082944  1.00267349  0.74136292  1
  O  O240  1  0.62958361  0.51122820  0.24033703  1
  O  O241  1  0.64853492  0.52136008  0.74766299  1
  O  O242  1  0.61192482  0.97688997  0.25370637  1
  O  O243  1  0.63305471  1.00080856  0.71063430  1
  O  O244  1  0.36269141  -0.00685276  0.26287576  1
  O  O245  1  0.36275913  0.00115611  0.74386674  1
  O  O246  1  0.35804521  0.50717625  0.23896641  1
  O  O247  1  0.37228639  0.50234402  0.75320677  1
  O  O248  1  0.93064538  0.01825295  0.29096184  1
  O  O249  1  0.89128231  0.00064080  0.75836034  1
  O  O250  1  0.86400118  0.50864020  0.25316243  1
  O  O251  1  0.87265854  0.51405413  0.75457608  1
  O  O252  1  0.10161611  0.35306900  0.43595025  1
  O  O253  1  0.15228927  0.35263100  0.86541077  1
  O  O254  1  0.11929820  0.85988268  0.37588628  1
  O  O255  1  0.10855807  0.87145943  0.88084769  1
  O  O256  1  0.61192282  0.37557902  0.36691682  1
  O  O257  1  0.61287802  0.38954039  0.86205780  1
  O  O258  1  0.60442153  0.85414840  0.36378302  1
  O  O259  1  0.64257461  0.85968052  0.86420200  1
  O  O260  1  0.36664535  0.11215561  0.15029166  1
  O  O261  1  0.38512655  0.13645241  0.61376487  1
  O  O262  1  0.37989831  0.62254648  0.12973786  1
  O  O263  1  0.39990918  0.61320971  0.64363788  1
  O  O264  1  0.87609874  0.15306867  0.11802715  1
  O  O265  1  0.89513576  0.12975773  0.61964752  1
  O  O266  1  0.88204048  0.63570889  0.13684571  1
  O  O267  1  0.90011603  0.62394594  0.64437575  1
  O  O268  1  0.22903262  0.20910331  0.11392712  1
  O  O269  1  0.26569478  0.23638921  0.61229463  1
  O  O270  1  0.24009076  0.76062808  0.11307482  1
  O  O271  1  0.21039708  0.76749194  0.62624991  1
  O  O272  1  0.75179402  0.25112226  0.10913826  1
  O  O273  1  0.63116172  0.32002665  0.64033101  1
  O  O274  1  0.75681027  0.74750495  0.11082991  1
  O  O275  1  0.77054810  0.75752150  0.62328716  1
  O  O276  1  0.25300124  0.23371199  0.38883452  1
  O  O277  1  0.24307626  0.23387863  0.87216553  1
  O  O278  1  0.23738444  0.73228299  0.36758397  1
  O  O279  1  0.23434856  0.75180383  0.89421469  1
  O  O280  1  0.74573105  0.23862562  0.37370149  1
  O  O281  1  0.76815968  0.25560719  0.86182056  1
  O  O282  1  0.74458156  0.73745680  0.36914390  1
  O  O283  1  0.75231263  0.74490429  0.88540029  1
  O  O284  1  0.00077758  0.12865064  0.00375630  1
  O  O285  1  0.01367506  0.13844513  0.50248463  1
  O  O286  1  -0.00635414  0.63041699  0.02045557  1
  O  O287  1  0.00997177  0.61585162  0.51008125  1
  O  O288  1  0.49577884  0.04948754  -0.10023579  1
  O  O289  1  0.51568589  0.12646664  0.49493588  1
  O  O290  1  0.50673581  0.63321375  -0.00105161  1
  O  O291  1  0.51046228  0.62242745  0.51487227  1
  O  O292  1  0.49019449  0.37772560  0.48894690  1
  O  O293  1  0.50333793  0.39036706  1.00401556  1
  O  O294  1  0.49979752  0.85414486  0.48757790  1
  O  O295  1  0.54025988  0.89618005  0.99180598  1
  O  O296  1  0.97866155  0.39395989  0.51210245  1
  O  O297  1  0.98313830  0.36972295  0.99952290  1
  O  O298  1  1.00023417  0.84605705  0.49904751  1
  O  O299  1  0.99930110  0.88189713  1.00195113  1
  O  O300  1  0.48620449  0.48030567  0.36577281  1
  O  O301  1  0.49235019  0.50507564  0.88576941  1
  O  O302  1  0.49764367  0.97654151  0.37937485  1
  O  O303  1  0.54982492  1.02079453  0.85848674  1
  O  O304  1  0.98619599  0.51096641  0.38552401  1
  O  O305  1  1.05883917  0.47267606  0.88974011  1
  O  O306  1  1.02314996  0.97376442  0.40646415  1
  O  O307  1  1.00308348  0.99480787  0.88254969  1
  O  O308  1  -0.01514215  0.01456809  0.11447868  1
  O  O309  1  0.00809566  0.01919139  0.62905716  1
  O  O310  1  0.00699925  0.51472149  0.13757823  1
  O  O311  1  0.01462843  0.50809395  0.62166658  1
  O  O312  1  0.47566994  -0.00248624  0.10751359  1
  O  O313  1  0.48465979  0.01391115  0.61040086  1
  O  O314  1  0.49596627  0.51525771  0.10471536  1
  O  O315  1  0.51436692  0.50837044  0.63431191  1
  O  O316  1  0.25566639  0.38404806  0.25635659  1
  O  O317  1  0.26240131  0.38863441  0.74416661  1
  O  O318  1  0.23850390  0.88091318  0.26075562  1
  O  O319  1  0.25982571  0.88598579  0.76685249  1
  O  O320  1  0.72226097  0.39017460  0.25093229  1
  O  O321  1  0.75844250  0.40326279  0.74212322  1
  O  O322  1  0.72891293  0.86140406  0.26204430  1
  O  O323  1  0.81196551  0.81285824  0.66269814  1
  O  O324  1  0.26008043  0.10889943  0.26899773  1
  O  O325  1  0.26158304  0.11362013  0.75775633  1
  O  O326  1  0.25311236  0.61787118  0.25469142  1
  O  O327  1  0.27306865  0.62374794  0.73987527  1
  O  O328  1  0.73742593  0.11972924  0.27017730  1
  O  O329  1  0.75020439  0.13762135  0.72228180  1
  O  O330  1  0.75068515  0.62028027  0.25358128  1
  O  O331  1  0.76791180  0.62873063  0.76539771  1
  O  O332  1  0.36651595  0.12485939  0.37093435  1
  O  O333  1  0.36196803  0.13685793  0.88179351  1
  O  O334  1  0.36063964  0.62148238  0.36202189  1
  O  O335  1  0.38606164  0.61458891  0.85768251  1
  O  O336  1  0.85492433  0.11911157  0.38588890  1
  O  O337  1  0.89055563  0.11704878  0.85893469  1
  O  O338  1  0.86160327  0.61886344  0.36156850  1
  O  O339  1  0.86865595  0.62929603  0.87726212  1
  O  O340  1  0.11489251  0.38628129  0.12237519  1
  O  O341  1  0.12888203  0.39114623  0.61531938  1
  O  O342  1  0.13494462  0.87111985  0.14709680  1
  O  O343  1  0.10715041  0.90114861  0.61643404  1
  O  O344  1  0.60989527  0.35914473  0.12722888  1
  O  O345  1  0.59989359  0.37715836  0.69148903  1
  O  O346  1  0.62011934  0.86398017  0.14341763  1
  O  O347  1  0.64515979  0.86566697  0.62228201  1
  O  O348  1  0.11639496  0.28911874  0.27262009  1
  O  O349  1  0.12065290  0.25253141  0.74610394  1
  O  O350  1  0.11600483  0.75402023  0.26102696  1
  O  O351  1  0.11474866  0.74636596  0.77325077  1
  O  O352  1  0.62122071  0.25483985  0.24190668  1
  O  O353  1  0.61801335  0.23483369  0.79259508  1
  O  O354  1  0.60556396  0.74113969  0.24657581  1
  O  O355  1  0.62728453  0.74512789  0.75328946  1
  O  O356  1  0.36796442  0.23586448  0.25012426  1
  O  O357  1  0.37165542  0.25258116  0.73371803  1
  O  O358  1  0.38079722  0.73281692  0.24286715  1
  O  O359  1  0.39423976  0.73550706  0.75396917  1
  O  O360  1  0.85056355  0.26461296  0.23364115  1
  O  O361  1  0.90646880  0.26016023  0.74955412  1
  O  O362  1  0.87986638  0.74333005  0.24743803  1
  O  O363  1  0.90326289  0.73538849  0.76397990  1
  O  O364  1  0.36897311  0.48743149  0.51437819  1
  O  O365  1  0.38641896  0.50066214  0.98984807  1
  O  O366  1  0.32947867  0.92594096  0.53528882  1
  O  O367  1  0.43874707  0.98687699  1.04191237  1
  O  O368  1  0.87826501  0.50348612  0.49152878  1
  O  O369  1  0.87383871  0.48970370  1.00658475  1
  O  O370  1  0.88217288  1.00491217  0.48248292  1
  O  O371  1  0.89339377  1.01042332  0.97817570  1
  O  O372  1  0.10239837  0.00426845  0.00263630  1
  O  O373  1  0.13708256  0.01777892  0.51838422  1
  O  O374  1  0.12621843  0.51034640  0.02539091  1
  O  O375  1  0.11628400  0.50456351  0.50791981  1
  O  O376  1  0.59337460  -0.05122216  0.00618298  1
  O  O377  1  0.62929734  0.00836596  0.53312907  1
  O  O378  1  0.61303016  0.51254965  -0.01160642  1
  O  O379  1  0.61638978  0.50202670  0.49875238  1
  O  O380  1  0.37065118  0.39068851  0.10498164  1
  O  O381  1  0.38322890  0.36055307  0.61128866  1
  O  O382  1  0.35029307  0.87080642  0.13695469  1
  O  O383  1  0.36432228  0.87869669  0.59362419  1
  O  O384  1  0.87199967  0.36295999  0.10856169  1
  O  O385  1  0.86627053  0.38469929  0.61944758  1
  O  O386  1  0.88016525  0.86531349  0.14453944  1
  O  O387  1  0.86716777  0.84862002  0.61763532  1
  O  O388  1  0.13561343  0.11573586  0.39337753  1
  O  O389  1  0.13981851  0.13743267  0.87103487  1
  O  O390  1  0.12665485  0.62605344  0.37788736  1
  O  O391  1  0.11289928  0.64221389  0.88659095  1
  O  O392  1  0.63781032  0.09916049  0.39168052  1
  O  O393  1  0.63035357  0.04683208  0.88177823  1
  O  O394  1  0.62373498  0.61587248  0.38479816  1
  O  O395  1  0.64398696  0.63522473  0.88094666  1
