# generated using pymatgen
data_V35Zn35O128
_symmetry_space_group_name_H-M   'P 1'
_cell_length_a   16.89570238
_cell_length_b   16.82776924
_cell_length_c   16.87254466
_cell_angle_alpha   90.14574927
_cell_angle_beta   90.15818539
_cell_angle_gamma   90.26741805
_symmetry_Int_Tables_number   1
_chemical_formula_structural   V35Zn35O128
_chemical_formula_sum   'V70 Zn70 O256'
_cell_volume   4797.06474127
_cell_formula_units_Z   2
loop_
 _symmetry_equiv_pos_site_id
 _symmetry_equiv_pos_as_xyz
  1  'x, y, z'
loop_
 _atom_site_type_symbol
 _atom_site_label
 _atom_site_symmetry_multiplicity
 _atom_site_fract_x
 _atom_site_fract_y
 _atom_site_fract_z
 _atom_site_occupancy
  V  V0  1  0.49571274  0.38254263  0.87178161  1
  V  V1  1  0.48621212  0.37060399  0.36694712  1
  V  V2  1  0.62191258  0.24383927  0.87926045  1
  V  V3  1  0.88488461  -0.00484258  0.88132918  1
  V  V4  1  0.00357437  0.50164501  0.00732128  1
  V  V5  1  0.38000345  0.24818992  0.61350933  1
  V  V6  1  0.36316176  0.37977678  -0.00179161  1
  V  V7  1  0.01606575  0.62897481  0.62541103  1
  V  V8  1  0.37924625  0.25062664  0.12123308  1
  V  V9  1  0.37350211  0.12176316  0.75640377  1
  V  V10  1  0.39317427  -0.00277376  0.37435127  1
  V  V11  1  0.37799154  0.12894847  0.24398576  1
  V  V12  1  0.49838134  0.24365395  0.74492861  1
  V  V13  1  0.88105141  0.86566429  0.00466411  1
  V  V14  1  0.24971536  0.37910872  0.63877438  1
  V  V15  1  0.25758760  -0.00174457  0.76012200  1
  V  V16  1  0.74428944  0.38623209  0.12492190  1
  V  V17  1  0.00430901  0.00306680  0.49766852  1
  V  V18  1  0.00384410  0.12926967  0.63590996  1
  V  V19  1  0.88144109  0.86294470  0.49242454  1
  V  V20  1  0.61861233  0.62027119  0.00223244  1
  V  V21  1  0.49187247  0.49703454  0.50823278  1
  V  V22  1  0.87369998  0.63078653  0.24786843  1
  V  V23  1  -0.00497718  0.49148078  0.48985535  1
  V  V24  1  0.74364609  0.11959078  0.87969500  1
  V  V25  1  0.13634689  0.00310273  0.61319379  1
  V  V26  1  0.12523491  0.49170289  0.62953555  1
  V  V27  1  0.63927447  0.50179622  0.62790219  1
  V  V28  1  0.75243853  0.61228736  0.85822447  1
  V  V29  1  0.00695949  0.13954108  0.12267002  1
  V  V30  1  0.74479513  0.85479591  0.13322577  1
  V  V31  1  0.50412468  0.49911794  0.01532824  1
  V  V32  1  0.75995914  0.13256629  0.38959787  1
  V  V33  1  0.39973286  0.73994486  0.12921867  1
  V  V34  1  0.75350980  0.01390421  0.24610316  1
  V  V35  1  0.24409941  0.11804557  0.38158155  1
  V  V36  1  0.12018214  0.26327984  0.36773049  1
  V  V37  1  0.62754379  0.86443255  0.75568730  1
  V  V38  1  0.24910538  0.73866922  0.48516402  1
  V  V39  1  0.75989729  0.25229993  0.00362089  1
  V  V40  1  0.87093160  0.35889535  0.52239414  1
  V  V41  1  0.37533174  0.60002170  0.75208750  1
  V  V42  1  0.23760683  -0.00892548  0.24182685  1
  V  V43  1  0.23537730  0.51411077  0.24976531  1
  V  V44  1  0.01699441  0.36458240  0.86527674  1
  V  V45  1  0.10168452  0.75642241  0.36477784  1
  V  V46  1  0.73473336  0.50220266  0.26729357  1
  V  V47  1  0.87702761  0.48887789  0.86948113  1
  V  V48  1  0.87868850  0.00026805  0.37647528  1
  V  V49  1  0.23441860  0.85815598  0.11870271  1
  V  V50  1  0.61218079  0.88591142  0.25127728  1
  V  V51  1  0.88390912  0.74260345  0.63748203  1
  V  V52  1  0.61890227  0.00148161  0.62274880  1
  V  V53  1  0.37308501  0.51918073  0.36522704  1
  V  V54  1  0.75629363  -0.00512070  0.74908921  1
  V  V55  1  0.26297920  0.86556261  0.61703390  1
  V  V56  1  0.49226823  0.87974204  0.87918073  1
  V  V57  1  0.75649703  0.86931360  0.61646678  1
  V  V58  1  0.62128071  0.25339754  0.37784579  1
  V  V59  1  0.63301416  0.37787186  0.74351959  1
  V  V60  1  0.48513664  0.74400454  0.74196533  1
  V  V61  1  0.12437643  0.86187856  0.74596201  1
  V  V62  1  0.62155590  0.75906083  0.36579443  1
  V  V63  1  0.24104198  0.63910179  0.86665458  1
  V  V64  1  0.24570478  0.26262660  0.49423698  1
  V  V65  1  0.61185794  0.12232067  0.50191308  1
  V  V66  1  0.23633270  0.37617846  0.13636683  1
  V  V67  1  0.63044979  0.63086694  0.50091215  1
  V  V68  1  0.74253367  0.74377830  -0.01640289  1
  V  V69  1  0.39156638  0.87379816  0.49296320  1
  Zn  Zn70  1  0.36898503  0.87187466  0.00083442  1
  Zn  Zn71  1  0.51001684  0.10987094  0.10019352  1
  Zn  Zn72  1  -0.00737122  0.61791879  0.12790421  1
  Zn  Zn73  1  0.00421958  0.86426060  0.86182435  1
  Zn  Zn74  1  0.75877430  0.63221516  0.38669054  1
  Zn  Zn75  1  0.88465129  0.12938289  0.75227250  1
  Zn  Zn76  1  0.19526761  0.19142987  0.19073061  1
  Zn  Zn77  1  0.19695964  0.18251126  0.68056223  1
  Zn  Zn78  1  0.17016192  0.69271543  0.19197227  1
  Zn  Zn79  1  0.19959507  0.67914358  0.68086778  1
  Zn  Zn80  1  0.65416956  0.23070846  0.17190714  1
  Zn  Zn81  1  0.68831286  0.18080291  0.69572782  1
  Zn  Zn82  1  0.65414339  0.66447414  0.20431068  1
  Zn  Zn83  1  0.69089785  0.68689911  0.67751298  1
  Zn  Zn84  1  0.30764130  0.31417785  0.30865889  1
  Zn  Zn85  1  0.31352860  0.31246713  0.80932519  1
  Zn  Zn86  1  0.31575364  0.80678127  0.30531926  1
  Zn  Zn87  1  0.31712599  0.81198044  0.81449295  1
  Zn  Zn88  1  0.79121191  0.33807974  0.33151473  1
  Zn  Zn89  1  0.81078384  0.31429151  0.81449036  1
  Zn  Zn90  1  0.80615609  0.80696536  0.31654978  1
  Zn  Zn91  1  0.81563850  0.80866020  0.81068404  1
  Zn  Zn92  1  0.18385026  0.44989384  0.43486945  1
  Zn  Zn93  1  0.17956750  0.44846934  0.94116059  1
  Zn  Zn94  1  0.19367527  0.92954480  0.43120932  1
  Zn  Zn95  1  0.18172979  0.82267772  0.93641033  1
  Zn  Zn96  1  0.68983920  0.43394104  0.45148968  1
  Zn  Zn97  1  0.68665004  0.43479974  0.93549641  1
  Zn  Zn98  1  0.68970752  0.94020659  0.43660855  1
  Zn  Zn99  1  0.69063895  0.93380903  0.94030905  1
  Zn  Zn100  1  0.30601143  0.05392789  0.05767759  1
  Zn  Zn101  1  0.32329168  0.06212621  0.55868631  1
  Zn  Zn102  1  0.31564828  0.56266135  0.07085102  1
  Zn  Zn103  1  0.31847755  0.56105405  0.56493532  1
  Zn  Zn104  1  0.68397248  0.07048555  0.07257311  1
  Zn  Zn105  1  0.81923083  0.06307833  0.56395032  1
  Zn  Zn106  1  0.81748395  0.56100877  0.05835764  1
  Zn  Zn107  1  0.81900694  0.55670338  0.56379669  1
  Zn  Zn108  1  0.43786337  0.43715554  0.19142373  1
  Zn  Zn109  1  0.43476581  0.43018349  0.68597280  1
  Zn  Zn110  1  0.41761363  0.93000021  0.18592147  1
  Zn  Zn111  1  0.44267398  0.93677787  0.69034212  1
  Zn  Zn112  1  0.90782689  0.44772675  0.17696523  1
  Zn  Zn113  1  0.93829534  0.44120054  0.69285291  1
  Zn  Zn114  1  0.91294598  0.96349368  0.16574359  1
  Zn  Zn115  1  0.94260497  0.93687097  0.68217450  1
  Zn  Zn116  1  0.06467046  0.06553116  0.31592780  1
  Zn  Zn117  1  0.07145296  0.04712680  0.81130484  1
  Zn  Zn118  1  0.06120476  0.57296299  0.31836946  1
  Zn  Zn119  1  0.05801598  0.55949623  0.80940952  1
  Zn  Zn120  1  0.59179246  0.09934231  0.26845394  1
  Zn  Zn121  1  0.55393676  0.05565859  0.92826496  1
  Zn  Zn122  1  0.55941377  0.55982011  0.31816740  1
  Zn  Zn123  1  0.56478476  0.56774959  0.81448735  1
  Zn  Zn124  1  0.43688256  0.18260988  0.43501543  1
  Zn  Zn125  1  0.42820520  0.19567399  0.93649372  1
  Zn  Zn126  1  0.44473956  0.68829533  0.44540670  1
  Zn  Zn127  1  0.43369904  0.69551036  0.93034122  1
  Zn  Zn128  1  0.94270811  0.19120189  0.44900250  1
  Zn  Zn129  1  0.93840847  0.19095108  0.93131126  1
  Zn  Zn130  1  0.94579681  0.67219297  0.43225947  1
  Zn  Zn131  1  0.93254665  0.68098727  0.93967325  1
  Zn  Zn132  1  0.06194729  0.32280306  0.04737914  1
  Zn  Zn133  1  0.06329013  0.31288841  0.55761823  1
  Zn  Zn134  1  0.05922145  0.78882102  0.07528927  1
  Zn  Zn135  1  0.06925441  0.81446542  0.55023272  1
  Zn  Zn136  1  0.56093889  0.31563011  0.06085126  1
  Zn  Zn137  1  0.56456382  0.31577619  0.55499156  1
  Zn  Zn138  1  0.56792250  0.81557861  0.06100763  1
  Zn  Zn139  1  0.56348281  0.81113323  0.56771418  1
  O  O140  1  0.11298740  0.13328022  0.12437826  1
  O  O141  1  0.12539245  0.10821570  0.62778315  1
  O  O142  1  0.07927266  0.68959549  0.12385723  1
  O  O143  1  0.12295214  0.61454663  0.61940823  1
  O  O144  1  0.61403305  0.12330172  0.14840795  1
  O  O145  1  0.63531583  0.11301006  0.61647002  1
  O  O146  1  0.63063355  0.62077052  0.10001263  1
  O  O147  1  0.62480324  0.60975097  0.61997269  1
  O  O148  1  0.38438943  0.37442041  0.37428657  1
  O  O149  1  0.37785721  0.36343704  0.89076430  1
  O  O150  1  0.37545169  0.88725162  0.38089186  1
  O  O151  1  0.38626872  0.87721469  0.88181933  1
  O  O152  1  0.86811074  0.37014697  0.40254113  1
  O  O153  1  0.88013653  0.38356735  0.87063256  1
  O  O154  1  0.86824512  0.88261628  0.38689977  1
  O  O155  1  0.88209247  0.87297596  0.88406179  1
  O  O156  1  0.25392239  0.00900500  0.37043664  1
  O  O157  1  0.26029336  -0.01177403  0.85481720  1
  O  O158  1  0.26447559  0.49985514  0.36554564  1
  O  O159  1  0.25979029  0.53180889  0.91132225  1
  O  O160  1  0.76228551  0.00988578  0.37513542  1
  O  O161  1  0.75933569  0.00004399  0.86731538  1
  O  O162  1  0.73563902  0.50117865  0.37008892  1
  O  O163  1  0.75952187  0.50414818  0.87647711  1
  O  O164  1  0.25528255  0.48957425  0.13898977  1
  O  O165  1  0.24238105  0.48479769  0.61249437  1
  O  O166  1  0.24689898  0.99638553  0.13782678  1
  O  O167  1  0.24519554  0.99392049  0.61766589  1
  O  O168  1  0.74048947  0.48738544  0.11417577  1
  O  O169  1  0.73736627  0.49881256  0.62942825  1
  O  O170  1  0.75569829  1.00945953  0.14385977  1
  O  O171  1  0.75744006  0.98825523  0.63281661  1
  O  O172  1  -0.01713910  0.36900849  0.24925938  1
  O  O173  1  0.00315701  0.38127414  0.76550087  1
  O  O174  1  -0.00705358  0.88854735  0.22739282  1
  O  O175  1  0.01983087  0.87339540  0.74069133  1
  O  O176  1  0.50141034  0.37617682  0.26743603  1
  O  O177  1  0.50043221  0.36289797  0.75530089  1
  O  O178  1  0.51531198  0.89752314  0.24068689  1
  O  O179  1  0.51399810  0.86676345  0.74995375  1
  O  O180  1  0.47738468  0.11169068  0.23676132  1
  O  O181  1  0.48527391  0.13955491  0.74447187  1
  O  O182  1  0.54805480  0.64123179  0.24439748  1
  O  O183  1  0.48739843  0.63451265  0.76076367  1
  O  O184  1  1.01628285  0.12877608  0.22820537  1
  O  O185  1  1.00805803  0.11626115  0.74246589  1
  O  O186  1  0.97861558  0.61060514  0.24806646  1
  O  O187  1  1.00442471  0.62179503  0.72516781  1
  O  O188  1  0.36836071  0.26338513  0.01145073  1
  O  O189  1  0.36824660  0.24444965  0.50901458  1
  O  O190  1  0.38559485  0.75451591  0.01406065  1
  O  O191  1  0.37106499  0.76781755  0.49034676  1
  O  O192  1  0.85819809  0.25107473  -0.01338962  1
  O  O193  1  0.88444785  0.25678662  0.51815163  1
  O  O194  1  0.85732057  0.75806044  -0.00344295  1
  O  O195  1  0.88125216  0.76228104  0.50218417  1
  O  O196  1  0.14343134  0.24856307  0.49408177  1
  O  O197  1  0.11020409  0.23094919  1.00811270  1
  O  O198  1  0.14693973  0.74608234  0.50335998  1
  O  O199  1  0.08548960  0.75395212  0.96149805  1
  O  O200  1  0.62309473  0.23325168  0.49607790  1
  O  O201  1  0.62735673  0.25288460  0.98184803  1
  O  O202  1  0.62537691  0.73349193  0.50941934  1
  O  O203  1  0.63457919  0.73709671  0.99605372  1
  O  O204  1  0.48139843  0.24911084  0.12192773  1
  O  O205  1  0.48529101  0.26075278  0.62658980  1
  O  O206  1  0.50130978  0.75417980  0.12692121  1
  O  O207  1  0.50706510  0.74816778  0.64275332  1
  O  O208  1  1.01261716  0.24451060  0.12838485  1
  O  O209  1  1.02182215  0.22711690  0.62391777  1
  O  O210  1  0.99247555  0.81879712  0.20104466  1
  O  O211  1  0.99616456  0.73875009  0.61238112  1
  O  O212  1  0.02372338  0.23535350  0.38503195  1
  O  O213  1  0.00035912  0.26253589  0.87288537  1
  O  O214  1  -0.00077128  0.75523229  0.37684149  1
  O  O215  1  0.02109208  0.75585610  0.90515020  1
  O  O216  1  0.50708795  0.26201264  0.38858367  1
  O  O217  1  0.50497830  0.25819571  0.86405573  1
  O  O218  1  0.52326090  0.75014093  0.38839799  1
  O  O219  1  0.49996968  0.76514051  0.85447133  1
  O  O220  1  0.26059067  0.13106731  0.48469509  1
  O  O221  1  0.23869717  0.11115163  0.97877030  1
  O  O222  1  0.26868342  0.64140637  0.50272174  1
  O  O223  1  0.25361142  0.59422896  0.97231255  1
  O  O224  1  0.74812632  0.12185209  0.49289555  1
  O  O225  1  0.74687299  0.13174682  0.98426062  1
  O  O226  1  0.73504818  0.61276567  0.50406763  1
  O  O227  1  0.74384848  0.63399392  0.99384390  1
  O  O228  1  0.26114810  0.38831233  0.01031507  1
  O  O229  1  0.25448776  0.36330841  0.49838902  1
  O  O230  1  0.24823958  0.87781953  0.01175988  1
  O  O231  1  0.26165544  0.86878100  0.50748581  1
  O  O232  1  0.73837197  0.36088351  0.00887070  1
  O  O233  1  0.76735452  0.37127630  0.50143401  1
  O  O234  1  0.74569921  0.85611343  0.00862856  1
  O  O235  1  0.76685790  0.88229717  0.50860913  1
  O  O236  1  0.13718562  0.50153809  0.26267850  1
  O  O237  1  0.12562269  0.50077017  0.72906571  1
  O  O238  1  0.13892530  0.99945377  0.25928010  1
  O  O239  1  0.14433038  0.99042071  0.73648385  1
  O  O240  1  0.63444194  0.50487326  0.24629791  1
  O  O241  1  0.61217199  0.48841534  0.73787008  1
  O  O242  1  0.64379365  0.99111239  0.26394109  1
  O  O243  1  0.64264805  0.98446960  0.73329134  1
  O  O244  1  0.36199700  0.00596832  0.26059796  1
  O  O245  1  0.37050728  0.01236186  0.73873784  1
  O  O246  1  0.37360802  0.50214009  0.26215509  1
  O  O247  1  0.38134022  0.49963412  0.76041244  1
  O  O248  1  0.86384741  -0.00233526  0.26359383  1
  O  O249  1  0.86902494  -0.01461709  0.76179157  1
  O  O250  1  0.84685407  0.51101298  0.24687222  1
  O  O251  1  0.88021096  0.50673077  0.76888142  1
  O  O252  1  0.12922163  0.36318446  0.38082275  1
  O  O253  1  0.11885019  0.37833997  0.87709715  1
  O  O254  1  0.11763110  0.85747927  0.39914872  1
  O  O255  1  0.12804936  0.88002762  0.85052330  1
  O  O256  1  0.62862982  0.35542885  0.38086801  1
  O  O257  1  0.61555673  0.36764612  0.86176185  1
  O  O258  1  0.62824562  0.87126483  0.36613308  1
  O  O259  1  0.63129251  0.87364812  0.85649316  1
  O  O260  1  0.35794770  0.13954786  0.13012974  1
  O  O261  1  0.36798777  0.14212155  0.63100543  1
  O  O262  1  0.38070933  0.63827370  0.11913843  1
  O  O263  1  0.37056126  0.61553043  0.65088262  1
  O  O264  1  0.90485049  0.15347397  0.13766349  1
  O  O265  1  0.89819370  0.11082431  0.63370660  1
  O  O266  1  0.87171538  0.62347150  0.13730551  1
  O  O267  1  0.87819386  0.64019359  0.62328377  1
  O  O268  1  0.26031129  0.26822267  0.13187562  1
  O  O269  1  0.25410067  0.25901754  0.61391316  1
  O  O270  1  0.24468531  0.75699084  0.12549272  1
  O  O271  1  0.25796506  0.76316719  0.61683534  1
  O  O272  1  0.75054266  0.23149475  0.10261678  1
  O  O273  1  0.78724970  0.24312162  0.66713145  1
  O  O274  1  0.74200059  0.75579800  0.12498849  1
  O  O275  1  0.76901259  0.75875586  0.62718637  1
  O  O276  1  0.25100589  0.24229743  0.38307271  1
  O  O277  1  0.21231287  0.24629882  0.83858732  1
  O  O278  1  0.25158511  0.75433674  0.38401436  1
  O  O279  1  0.24886790  0.74575608  0.87973081  1
  O  O280  1  0.73982543  0.23701406  0.37274178  1
  O  O281  1  0.74109580  0.24087710  0.87671105  1
  O  O282  1  0.72920815  0.74897928  0.38063693  1
  O  O283  1  0.74929911  0.73995184  0.88014892  1
  O  O284  1  -0.00060697  0.13626216  0.01930190  1
  O  O285  1  0.00020224  0.10826782  0.51569629  1
  O  O286  1  -0.01239361  0.60948389  0.00596545  1
  O  O287  1  -0.00775825  0.60592978  0.51522629  1
  O  O288  1  0.50095695  0.13297018  -0.00963354  1
  O  O289  1  0.51249445  0.11922319  0.49823973  1
  O  O290  1  0.50960705  0.60979551  -0.01265434  1
  O  O291  1  0.51524324  0.60597841  0.49621368  1
  O  O292  1  0.50928459  0.39053770  0.48484513  1
  O  O293  1  0.49539628  0.38319271  0.99290259  1
  O  O294  1  0.49015781  0.87388689  0.50498276  1
  O  O295  1  0.51571822  0.87239798  0.97789676  1
  O  O296  1  0.98909481  0.38151962  0.50704041  1
  O  O297  1  0.99761040  0.38772725  0.98297558  1
  O  O298  1  0.98775172  0.88710068  0.50736124  1
  O  O299  1  0.97885455  0.86315841  1.02314463  1
  O  O300  1  0.48940970  0.49018988  0.37861332  1
  O  O301  1  0.50322151  0.48457326  0.87649865  1
  O  O302  1  0.48830894  1.00716544  0.36650284  1
  O  O303  1  0.50817261  0.97888545  0.85693173  1
  O  O304  1  1.00612687  0.50014210  0.39114907  1
  O  O305  1  0.99181513  0.49698618  0.88105996  1
  O  O306  1  0.98962015  1.01209967  0.38244975  1
  O  O307  1  0.98874257  0.99031055  0.87321757  1
  O  O308  1  -0.00588025  0.03363175  0.11908937  1
  O  O309  1  0.01996910  0.00112385  0.62024581  1
  O  O310  1  -0.01118728  0.49162111  0.11191119  1
  O  O311  1  0.01332674  0.50494685  0.62107555  1
  O  O312  1  0.45214056  0.00247145  0.09713352  1
  O  O313  1  0.52084023  -0.00344063  0.62947794  1
  O  O314  1  0.50368350  0.49423328  0.11405784  1
  O  O315  1  0.49726408  0.49019505  0.61042495  1
  O  O316  1  0.25028937  0.38599642  0.24141516  1
  O  O317  1  0.25161830  0.37848091  0.73813887  1
  O  O318  1  0.25345328  0.88525364  0.23916088  1
  O  O319  1  0.25567576  0.88338062  0.73299208  1
  O  O320  1  0.74404110  0.39040355  0.24335565  1
  O  O321  1  0.73050917  0.37664588  0.75552496  1
  O  O322  1  0.74975054  0.88197946  0.23949706  1
  O  O323  1  0.74540902  0.87447529  0.74124277  1
  O  O324  1  0.25807849  0.11489440  0.25812944  1
  O  O325  1  0.26115341  0.10976865  0.74427347  1
  O  O326  1  0.24227357  0.61363272  0.23654502  1
  O  O327  1  0.26204024  0.62126513  0.75845860  1
  O  O328  1  0.74546249  0.11387671  0.27024217  1
  O  O329  1  0.75638672  0.10854384  0.75992273  1
  O  O330  1  0.74710894  0.61640576  0.25503875  1
  O  O331  1  0.74091410  0.62395913  0.75994626  1
  O  O332  1  0.36971767  0.11837533  0.36305560  1
  O  O333  1  0.37056557  0.13540400  0.85529351  1
  O  O334  1  0.38483468  0.61758776  0.37287559  1
  O  O335  1  0.36408148  0.63712340  0.85761177  1
  O  O336  1  0.86574440  0.12163492  0.38432605  1
  O  O337  1  0.87308216  0.10863828  0.87301105  1
  O  O338  1  0.86941195  0.62301576  0.36297020  1
  O  O339  1  0.85694451  0.62296464  0.87404213  1
  O  O340  1  0.13838092  0.37203608  0.11926882  1
  O  O341  1  0.13860457  0.37832653  0.62379701  1
  O  O342  1  0.13395080  0.86919089  0.11647758  1
  O  O343  1  0.14185447  0.88309555  0.62668716  1
  O  O344  1  0.64187505  0.34065668  0.13612170  1
  O  O345  1  0.62084126  0.38123344  0.63540795  1
  O  O346  1  0.63744161  0.87894440  0.13760348  1
  O  O347  1  0.63889344  0.88324328  0.62346701  1
  O  O348  1  0.13657587  0.25055830  0.26800281  1
  O  O349  1  0.15939194  0.23947599  0.78393847  1
  O  O350  1  0.12566606  0.76815762  0.26651316  1
  O  O351  1  0.13993937  0.76395352  0.73518509  1
  O  O352  1  0.61173335  0.22328616  0.27978746  1
  O  O353  1  0.61689923  0.25851243  0.74988643  1
  O  O354  1  0.62447869  0.77206485  0.25866658  1
  O  O355  1  0.62817054  0.76270385  0.74023160  1
  O  O356  1  0.37116414  0.23671762  0.24334625  1
  O  O357  1  0.37645257  0.24301750  0.73873157  1
  O  O358  1  0.38025780  0.75586740  0.23126762  1
  O  O359  1  0.38502361  0.75880266  0.73905900  1
  O  O360  1  0.94079767  0.31864317  0.28345799  1
  O  O361  1  0.84419975  0.24394394  0.72492077  1
  O  O362  1  0.86222565  0.73340783  0.25108975  1
  O  O363  1  0.88736002  0.75742049  0.73675485  1
  O  O364  1  0.38700895  0.50398793  0.48769224  1
  O  O365  1  0.38987163  0.48561556  1.00656536  1
  O  O366  1  0.37624113  0.99250090  0.48414212  1
  O  O367  1  0.40127841  0.99443208  1.02829656  1
  O  O368  1  0.88847424  0.48828670  0.50704541  1
  O  O369  1  0.88032140  0.50180453  0.98220711  1
  O  O370  1  0.88501278  0.99259468  0.49302585  1
  O  O371  1  0.86792893  0.97867180  0.98278497  1
  O  O372  1  0.17476885  0.07063590  -0.04837002  1
  O  O373  1  0.12247489  -0.00700554  0.50837469  1
  O  O374  1  0.10501639  0.50664825  0.00322588  1
  O  O375  1  0.11074436  0.49057850  0.51243981  1
  O  O376  1  0.62982657  0.00542573  -0.00183949  1
  O  O377  1  0.63289282  0.00700287  0.51320522  1
  O  O378  1  0.61223468  0.50276392  -0.00415768  1
  O  O379  1  0.61836523  0.50086271  0.51548374  1
  O  O380  1  0.37257137  0.36723527  0.11805162  1
  O  O381  1  0.36008762  0.36129462  0.62602497  1
  O  O382  1  0.36025229  0.85885385  0.11974042  1
  O  O383  1  0.36875010  0.88841795  0.60979954  1
  O  O384  1  0.84339294  0.36355146  0.13039126  1
  O  O385  1  0.87513426  0.38165273  0.62221934  1
  O  O386  1  0.85201337  0.88353327  0.11102423  1
  O  O387  1  0.87510014  0.86570863  0.61498079  1
  O  O388  1  0.14307452  0.13027688  0.37406947  1
  O  O389  1  0.13777791  0.10816628  0.89278588  1
  O  O390  1  0.11967734  0.65121466  0.37607040  1
  O  O391  1  0.14190737  0.62554568  0.85488212  1
  O  O392  1  0.63514116  0.12355458  0.39274276  1
  O  O393  1  0.63296554  0.13365874  0.86351367  1
  O  O394  1  0.62842419  0.63266001  0.39116026  1
  O  O395  1  0.64289330  0.61356548  0.88617038  1
