# generated using pymatgen
data_V35Zn35O128
_symmetry_space_group_name_H-M   'P 1'
_cell_length_a   16.85659251
_cell_length_b   16.89854289
_cell_length_c   16.86029526
_cell_angle_alpha   90.27657204
_cell_angle_beta   89.94899946
_cell_angle_gamma   90.30685075
_symmetry_Int_Tables_number   1
_chemical_formula_structural   V35Zn35O128
_chemical_formula_sum   'V70 Zn70 O256'
_cell_volume   4802.55970119
_cell_formula_units_Z   2
loop_
 _symmetry_equiv_pos_site_id
 _symmetry_equiv_pos_as_xyz
  1  'x, y, z'
loop_
 _atom_site_type_symbol
 _atom_site_label
 _atom_site_symmetry_multiplicity
 _atom_site_fract_x
 _atom_site_fract_y
 _atom_site_fract_z
 _atom_site_occupancy
  V  V0  1  0.38748320  0.72720007  0.14380678  1
  V  V1  1  0.61085733  0.75372009  0.37200159  1
  V  V2  1  0.75846837  0.50800844  0.75691353  1
  V  V3  1  0.48686722  0.49059807  -0.01989649  1
  V  V4  1  0.01185491  0.11809631  0.10903275  1
  V  V5  1  0.75400469  0.63751697  0.37671347  1
  V  V6  1  -0.00503200  0.49314482  0.49443437  1
  V  V7  1  0.75926248  0.86264233  0.12183522  1
  V  V8  1  0.62154016  0.50363462  0.62734449  1
  V  V9  1  0.86495679  0.74669179  0.62670296  1
  V  V10  1  0.37063459  0.75525303  0.63481044  1
  V  V11  1  0.74908499  0.24192346  -0.00193174  1
  V  V12  1  0.11922100  0.50274102  0.12239251  1
  V  V13  1  0.26274754  0.50088965  0.25454887  1
  V  V14  1  0.25258498  0.37688736  0.12060259  1
  V  V15  1  0.88764767  0.37378290  -0.01478878  1
  V  V16  1  -0.00509970  0.23430387  0.25552027  1
  V  V17  1  0.62354517  0.86881074  0.24908001  1
  V  V18  1  0.26689205  0.62480628  0.37203956  1
  V  V19  1  0.38127541  0.87514361  0.02797790  1
  V  V20  1  0.00504249  0.87526869  0.36866473  1
  V  V21  1  0.75029491  0.37039846  0.61591719  1
  V  V22  1  0.88041081  0.87593605  0.00484806  1
  V  V23  1  0.63039421  0.87501868  0.75281081  1
  V  V24  1  0.63040594  0.01416317  0.13056705  1
  V  V25  1  0.24319634  0.00510188  0.74588215  1
  V  V26  1  0.75353439  0.50532083  0.24214012  1
  V  V27  1  0.61537396  0.50897534  0.11944214  1
  V  V28  1  0.75756286  0.01223933  0.25666875  1
  V  V29  1  0.13242007  0.48949320  0.62498306  1
  V  V30  1  0.91312094  0.21801802  0.63276641  1
  V  V31  1  0.88243046  0.64136966  0.24559474  1
  V  V32  1  0.87550235  0.24458023  0.12686354  1
  V  V33  1  0.74087145  0.89794600  0.61946963  1
  V  V34  1  0.23930175  0.25178501  -0.00596593  1
  V  V35  1  0.49159289  0.37971911  0.37384075  1
  V  V36  1  0.49287369  0.24918366  0.73046000  1
  V  V37  1  0.38280824  0.25338848  0.11606056  1
  V  V38  1  0.63894111  0.24458000  0.38037934  1
  V  V39  1  0.75135085  0.12196703  0.85388612  1
  V  V40  1  0.61625217  0.09435888  0.52310209  1
  V  V41  1  0.00394398  0.63513570  0.63569201  1
  V  V42  1  0.87731596  0.87941752  0.50143462  1
  V  V43  1  0.39279895  0.11070511  0.73800883  1
  V  V44  1  0.50049202  0.24660995  0.24802516  1
  V  V45  1  0.49111337  0.62978157  0.63749941  1
  V  V46  1  0.87892353  0.00227625  0.87042216  1
  V  V47  1  0.00479087  0.64811292  0.12781091  1
  V  V48  1  0.12937009  0.86942743  0.72846996  1
  V  V49  1  0.24912602  0.12061500  0.89135905  1
  V  V50  1  0.37002970  0.36277124  0.51232634  1
  V  V51  1  0.13087709  0.63196897  -0.00399067  1
  V  V52  1  0.61903347  0.37519013  0.75424195  1
  V  V53  1  0.36347117  0.12693676  0.25374999  1
  V  V54  1  0.02020003  0.87611437  0.88506804  1
  V  V55  1  0.87549484  0.01993654  0.38123008  1
  V  V56  1  0.26083068  0.75666654  0.49545380  1
  V  V57  1  0.87744516  0.49840301  0.37483620  1
  V  V58  1  0.25623480  0.75036190  0.00315085  1
  V  V59  1  0.62753407  0.38014127  0.25068223  1
  V  V60  1  0.62839980  0.63979376  -0.00804333  1
  V  V61  1  0.61577973  0.24510928  0.87855180  1
  V  V62  1  0.49113419  0.50185887  0.49557341  1
  V  V63  1  0.62769956  0.63270272  0.49978337  1
  V  V64  1  0.38529850  0.00108848  0.88798397  1
  V  V65  1  0.12736431  0.24447637  0.38205099  1
  V  V66  1  0.51150915  0.86121728  0.88209657  1
  V  V67  1  0.11180585  0.37900998  0.25647096  1
  V  V68  1  0.11922656  0.63166847  0.48474029  1
  V  V69  1  0.51121563  0.01451499  0.01428932  1
  Zn  Zn70  1  0.75335541  0.37656806  0.11908634  1
  Zn  Zn71  1  0.25493907  0.13794713  0.38131623  1
  Zn  Zn72  1  0.19738313  0.31206133  0.55808036  1
  Zn  Zn73  1  -0.03520511  0.53627265  -0.05354539  1
  Zn  Zn74  1  0.75991759  0.62593840  0.87908051  1
  Zn  Zn75  1  0.86821592  0.35700384  0.49701367  1
  Zn  Zn76  1  0.18481970  0.19219040  0.18548934  1
  Zn  Zn77  1  0.10047843  0.17294926  0.57369099  1
  Zn  Zn78  1  0.20701905  0.68413952  0.17936212  1
  Zn  Zn79  1  0.18581548  0.68819032  0.67482196  1
  Zn  Zn80  1  0.69204770  0.19230752  0.19518533  1
  Zn  Zn81  1  0.67896831  0.18402241  0.67797172  1
  Zn  Zn82  1  0.69062973  0.68658235  0.18478414  1
  Zn  Zn83  1  0.67924467  0.69330520  0.69897025  1
  Zn  Zn84  1  0.31062610  0.31610494  0.31014633  1
  Zn  Zn85  1  0.26619326  0.21916388  0.70517867  1
  Zn  Zn86  1  0.31369473  0.82196137  0.30346207  1
  Zn  Zn87  1  0.30481177  0.67263810  0.81828078  1
  Zn  Zn88  1  0.81641526  0.31649438  0.31062967  1
  Zn  Zn89  1  0.81548146  0.31190651  0.80077762  1
  Zn  Zn90  1  0.81331328  0.82116047  0.31176738  1
  Zn  Zn91  1  0.81194012  0.82020230  0.80415373  1
  Zn  Zn92  1  0.18657618  0.44152390  0.43600014  1
  Zn  Zn93  1  0.19533025  0.44203020  0.93873721  1
  Zn  Zn94  1  0.21463407  0.92644755  0.40823282  1
  Zn  Zn95  1  0.23760492  0.87873148  0.88694620  1
  Zn  Zn96  1  0.68593238  0.44502649  0.43360832  1
  Zn  Zn97  1  0.69381139  0.43237510  0.93814743  1
  Zn  Zn98  1  0.68739213  0.93799315  0.43781722  1
  Zn  Zn99  1  0.69250508  0.94030213  0.94151356  1
  Zn  Zn100  1  0.31523345  0.06279729  0.07415897  1
  Zn  Zn101  1  0.32418681  0.03595162  0.55932227  1
  Zn  Zn102  1  0.31514787  0.56155121  0.05869924  1
  Zn  Zn103  1  0.31087433  0.56305507  0.55993278  1
  Zn  Zn104  1  0.81522433  0.06053879  0.06019290  1
  Zn  Zn105  1  0.80423131  0.07459100  0.55446921  1
  Zn  Zn106  1  0.83281246  0.58410840  0.03783835  1
  Zn  Zn107  1  0.81205543  0.56489764  0.56763673  1
  Zn  Zn108  1  0.43936887  0.43684504  0.18373608  1
  Zn  Zn109  1  0.43333721  0.43577977  0.69129961  1
  Zn  Zn110  1  0.45461593  0.95853208  0.22637438  1
  Zn  Zn111  1  0.39467990  0.88740253  0.73884964  1
  Zn  Zn112  1  0.93261012  0.43985662  0.17804738  1
  Zn  Zn113  1  0.93663529  0.44595148  0.68470881  1
  Zn  Zn114  1  0.94272608  0.94497538  0.19396535  1
  Zn  Zn115  1  0.93039142  0.90221096  0.70773143  1
  Zn  Zn116  1  0.07557916  0.04158373  0.43463880  1
  Zn  Zn117  1  0.06509475  0.05960901  0.82664354  1
  Zn  Zn118  1  0.06225447  0.56397059  0.30806158  1
  Zn  Zn119  1  0.11949196  0.58453654  0.79405522  1
  Zn  Zn120  1  0.54093365  0.07181882  0.35899453  1
  Zn  Zn121  1  0.56801550  0.05583412  0.81383732  1
  Zn  Zn122  1  0.55895323  0.56635561  0.30941327  1
  Zn  Zn123  1  0.56163147  0.56936725  0.82054837  1
  Zn  Zn124  1  0.44499751  0.19091163  0.43892117  1
  Zn  Zn125  1  0.43845192  0.18914454  0.94078568  1
  Zn  Zn126  1  0.43997823  0.68814286  0.43541438  1
  Zn  Zn127  1  0.44497980  0.67940992  0.95507029  1
  Zn  Zn128  1  0.95724916  0.18556726  0.45547472  1
  Zn  Zn129  1  0.93025205  0.18139333  0.94086879  1
  Zn  Zn130  1  0.93567846  0.69654655  0.43712348  1
  Zn  Zn131  1  0.90743738  0.71473878  0.90522915  1
  Zn  Zn132  1  0.06246392  0.30842008  0.06517140  1
  Zn  Zn133  1  0.06275134  0.32255372  0.69499156  1
  Zn  Zn134  1  0.06970510  0.82676967  0.05670231  1
  Zn  Zn135  1  0.06503408  0.81522949  0.54886152  1
  Zn  Zn136  1  0.56528125  0.32076902  0.05980455  1
  Zn  Zn137  1  0.56515073  0.31442977  0.55700812  1
  Zn  Zn138  1  0.55999073  0.81480623  0.07388392  1
  Zn  Zn139  1  0.56011616  0.81409353  0.56617252  1
  O  O140  1  0.11224763  0.12980083  0.12666510  1
  O  O141  1  0.01754739  0.05161610  0.67253637  1
  O  O142  1  0.11996506  0.62162793  0.12993476  1
  O  O143  1  0.11493966  0.61565790  0.60795441  1
  O  O144  1  0.62927440  0.11252378  0.13602016  1
  O  O145  1  0.60692408  0.11571134  0.62296721  1
  O  O146  1  0.62902105  0.61215608  0.12265821  1
  O  O147  1  0.61340907  0.62390365  0.61804268  1
  O  O148  1  0.38738785  0.37267807  0.38020068  1
  O  O149  1  0.32773642  0.45517530  0.82546976  1
  O  O150  1  0.29866251  0.92187115  0.33784469  1
  O  O151  1  0.39233719  0.89131505  0.88561926  1
  O  O152  1  0.86436096  0.39400640  0.38362806  1
  O  O153  1  0.87142646  0.36621026  0.88545635  1
  O  O154  1  0.88117135  0.87609196  0.38932577  1
  O  O155  1  0.87920699  0.88501172  0.88785061  1
  O  O156  1  0.18001835  -0.00982504  0.26322635  1
  O  O157  1  0.26760481  0.00761628  0.87829291  1
  O  O158  1  0.24633696  0.50716481  0.36125720  1
  O  O159  1  0.25388574  0.48228329  0.84498683  1
  O  O160  1  0.75635166  -0.00377662  0.36337518  1
  O  O161  1  0.74883295  0.01787753  0.87539626  1
  O  O162  1  0.75528266  0.51536875  0.36472593  1
  O  O163  1  0.74361284  0.50023927  0.86040301  1
  O  O164  1  0.24393033  0.49625306  0.13606989  1
  O  O165  1  0.23144231  0.50305255  0.61382261  1
  O  O166  1  0.23857257  0.98752073  0.12441068  1
  O  O167  1  0.25937355  0.99981178  0.64791346  1
  O  O168  1  0.74686443  0.50220694  0.13716113  1
  O  O169  1  0.73502637  0.50024249  0.63265338  1
  O  O170  1  0.74473695  0.99805395  0.13347506  1
  O  O171  1  0.74728474  0.99523380  0.62532103  1
  O  O172  1  0.01053418  0.37673051  0.24350590  1
  O  O173  1  -0.01363800  0.37632822  0.75340098  1
  O  O174  1  -0.00035927  0.87933409  0.26774809  1
  O  O175  1  0.02957638  0.89255633  0.76901025  1
  O  O176  1  0.50793477  0.37428858  0.25569691  1
  O  O177  1  0.50230025  0.35808104  0.74614587  1
  O  O178  1  0.52622928  0.86641837  0.23406906  1
  O  O179  1  0.50109432  0.86982384  0.77785852  1
  O  O180  1  0.48800699  0.14513192  0.25514522  1
  O  O181  1  0.49582386  0.13129533  0.75638855  1
  O  O182  1  0.48496187  0.63595654  0.26978767  1
  O  O183  1  0.50266278  0.62273836  0.73590536  1
  O  O184  1  0.99664271  0.13763300  0.24206338  1
  O  O185  1  1.01856355  0.17072303  0.79868926  1
  O  O186  1  0.99760635  0.62613775  0.23698904  1
  O  O187  1  1.01653620  0.62743583  0.73349838  1
  O  O188  1  0.37465657  0.25292955  0.01266539  1
  O  O189  1  0.37943942  0.26264527  0.49938967  1
  O  O190  1  0.37814603  0.76083642  0.01941436  1
  O  O191  1  0.36668816  0.74524118  0.50435977  1
  O  O192  1  0.86740637  0.25537486  0.00550632  1
  O  O193  1  0.89690453  0.25201845  0.53124603  1
  O  O194  1  0.88144855  0.77693746  0.00617231  1
  O  O195  1  0.87535263  0.76645370  0.51405954  1
  O  O196  1  0.11565215  0.26475133  0.48076998  1
  O  O197  1  0.14001056  0.25042917  0.99866591  1
  O  O198  1  0.13969221  0.73487108  0.50338781  1
  O  O199  1  0.14559174  0.74631404  1.01549899  1
  O  O200  1  0.62077609  0.25219193  0.48113378  1
  O  O201  1  0.63076994  0.25757452  0.98478178  1
  O  O202  1  0.61735322  0.74415462  0.48600594  1
  O  O203  1  0.62016375  0.73711621  1.01313587  1
  O  O204  1  0.48947194  0.26370578  0.13066534  1
  O  O205  1  0.50426387  0.24715845  0.63242010  1
  O  O206  1  0.48620688  0.74801416  0.12889063  1
  O  O207  1  0.48641854  0.73754662  0.61871702  1
  O  O208  1  0.99565199  0.24265435  0.13523075  1
  O  O209  1  1.01897797  0.22548841  0.64583648  1
  O  O210  1  1.01378761  0.74663294  0.12480149  1
  O  O211  1  1.00177245  0.73720114  0.61403381  1
  O  O212  1  0.00787895  0.24578649  0.36208996  1
  O  O213  1  0.00592225  0.22361871  0.85285353  1
  O  O214  1  0.00622936  0.77585923  0.39148651  1
  O  O215  1  0.00077672  0.77723962  0.87955509  1
  O  O216  1  0.51082697  0.26477160  0.36409034  1
  O  O217  1  0.51310144  0.24478528  0.87239481  1
  O  O218  1  0.51157268  0.75164158  0.36912877  1
  O  O219  1  0.50246914  0.76481238  0.89800723  1
  O  O220  1  0.24658557  0.08140324  0.48430009  1
  O  O221  1  0.25897454  0.13325244  0.99907076  1
  O  O222  1  0.23993368  0.61925260  0.48347677  1
  O  O223  1  0.24574679  0.63959687  1.00567291  1
  O  O224  1  0.71432660  0.11937842  0.50159582  1
  O  O225  1  0.75271357  0.13857118  0.99316672  1
  O  O226  1  0.73618544  0.61822005  0.49235573  1
  O  O227  1  0.73162240  0.61955292  1.00251689  1
  O  O228  1  0.24792170  0.36465777  0.00549331  1
  O  O229  1  0.26498585  0.37941423  0.49395873  1
  O  O230  1  0.27628138  0.86944536  0.00232790  1
  O  O231  1  0.24652174  0.85367455  0.49686764  1
  O  O232  1  0.75952407  0.36048696  0.00013636  1
  O  O233  1  0.74497332  0.38581811  0.51111417  1
  O  O234  1  0.75851580  0.87936545  0.01486838  1
  O  O235  1  0.75275425  0.87626772  0.51402982  1
  O  O236  1  0.12959697  0.49068584  0.24309412  1
  O  O237  1  0.11452605  0.49452777  0.72356862  1
  O  O238  1  0.11256843  1.01156130  0.24747137  1
  O  O239  1  0.14106287  1.01164852  0.75282553  1
  O  O240  1  0.63195853  0.49925420  0.24334344  1
  O  O241  1  0.61873231  0.49110026  0.74200715  1
  O  O242  1  0.64065975  0.98545873  0.24151963  1
  O  O243  1  0.60794259  0.97611983  0.74680059  1
  O  O244  1  0.36818067  0.03055527  0.22479498  1
  O  O245  1  0.37714366  0.00223144  0.76627703  1
  O  O246  1  0.36123726  0.49379628  0.24761975  1
  O  O247  1  0.35600577  0.49352804  0.76123848  1
  O  O248  1  0.86535655  0.00003544  0.26566430  1
  O  O249  1  0.87043992  -0.01908175  0.77134667  1
  O  O250  1  0.87119961  0.50837128  0.25503820  1
  O  O251  1  0.85730805  0.50663575  0.74435775  1
  O  O252  1  0.12421206  0.37443981  0.35915498  1
  O  O253  1  0.08465844  0.42512318  0.88821759  1
  O  O254  1  0.09875232  0.91254491  0.40167981  1
  O  O255  1  0.11988545  0.88627205  0.89831197  1
  O  O256  1  0.61984699  0.37402398  0.36428610  1
  O  O257  1  0.63431305  0.35871066  0.86079964  1
  O  O258  1  0.63550831  0.86152829  0.36327365  1
  O  O259  1  0.62091675  0.87803681  0.87206544  1
  O  O260  1  0.36938100  0.14930160  0.13392930  1
  O  O261  1  0.38587087  0.09973818  0.63919322  1
  O  O262  1  0.37620944  0.62773516  0.13022362  1
  O  O263  1  0.38739569  0.62440269  0.62155837  1
  O  O264  1  0.88332013  0.13960445  0.11714411  1
  O  O265  1  0.87955306  0.12283446  0.62484415  1
  O  O266  1  0.89689866  0.62525536  0.12837117  1
  O  O267  1  0.88686462  0.63884183  0.62288705  1
  O  O268  1  0.25648176  0.25896552  0.11427198  1
  O  O269  1  0.19822889  0.21547144  0.61679578  1
  O  O270  1  0.27211304  0.75195118  0.11635007  1
  O  O271  1  0.26390178  0.73469231  0.60597745  1
  O  O272  1  0.75668443  0.25010199  0.11850142  1
  O  O273  1  0.73460608  0.27128801  0.62487494  1
  O  O274  1  0.75770677  0.76365360  0.12975777  1
  O  O275  1  0.76371270  0.74384220  0.63252806  1
  O  O276  1  0.23274728  0.25796421  0.37073307  1
  O  O277  1  0.26180776  0.23295548  0.89148187  1
  O  O278  1  0.25893716  0.73365863  0.38345910  1
  O  O279  1  0.26278501  0.75884419  0.89909166  1
  O  O280  1  0.73881153  0.26026827  0.36958132  1
  O  O281  1  0.74577812  0.23879574  0.87512388  1
  O  O282  1  0.75154399  0.73982591  0.37400941  1
  O  O283  1  0.80005544  0.73046663  0.86417630  1
  O  O284  1  0.00430322  0.13031612  0.00806086  1
  O  O285  1  0.03019807  0.11521010  0.50763647  1
  O  O286  1  0.02124420  0.62376225  0.01919344  1
  O  O287  1  0.01200802  0.62638863  0.49533887  1
  O  O288  1  0.50034521  0.11281883  0.00838685  1
  O  O289  1  0.52225381  0.11559556  0.47063436  1
  O  O290  1  0.52163049  0.60273240  -0.00120288  1
  O  O291  1  0.50981857  0.61802206  0.50111069  1
  O  O292  1  0.49113480  0.38205635  0.49455760  1
  O  O293  1  0.50218392  0.39182146  1.00099345  1
  O  O294  1  0.48775008  0.87677027  0.49376752  1
  O  O295  1  0.49552731  0.88491565  1.00168304  1
  O  O296  1  0.98901705  0.39594573  0.50028175  1
  O  O297  1  0.98806541  0.35697051  0.99504690  1
  O  O298  1  0.97947372  0.88670744  0.51112907  1
  O  O299  1  0.99255676  0.88863773  0.99682829  1
  O  O300  1  0.51191392  0.49035287  0.38554796  1
  O  O301  1  0.50131269  0.49294008  0.87927187  1
  O  O302  1  0.49271123  0.97948661  0.33172766  1
  O  O303  1  0.50479471  0.99778892  0.89871574  1
  O  O304  1  0.99032408  0.50787417  0.38235033  1
  O  O305  1  1.04632153  0.49188674  0.87311976  1
  O  O306  1  0.97727128  0.99533331  0.37879238  1
  O  O307  1  0.98698969  0.99712199  0.87836966  1
  O  O308  1  -0.00593166  0.02007399  0.12792637  1
  O  O309  1  -0.01248718  -0.00478040  0.63501314  1
  O  O310  1  0.01655151  0.49999016  0.12274404  1
  O  O311  1  -0.00180840  0.51651734  0.60775603  1
  O  O312  1  0.51901677  -0.00403294  0.12435832  1
  O  O313  1  0.45820342  -0.05895639  0.52979223  1
  O  O314  1  0.51365043  0.49968884  0.12502294  1
  O  O315  1  0.50342253  0.50976812  0.61986230  1
  O  O316  1  0.23971367  0.38567736  0.24259623  1
  O  O317  1  0.23030542  0.32698783  0.75109495  1
  O  O318  1  0.17337280  0.82593812  0.26861350  1
  O  O319  1  0.23735494  0.89470060  0.76718971  1
  O  O320  1  0.74334890  0.38873501  0.24981909  1
  O  O321  1  0.73794958  0.38761974  0.73794055  1
  O  O322  1  0.75207087  0.88428090  0.23767167  1
  O  O323  1  0.73864455  0.87866429  0.73861250  1
  O  O324  1  0.25945113  0.13987318  0.25357823  1
  O  O325  1  0.27314541  0.11665661  0.76705314  1
  O  O326  1  0.24639568  0.61226348  0.26080743  1
  O  O327  1  0.22032861  0.62745251  0.76092378  1
  O  O328  1  0.75276803  0.11108488  0.24866965  1
  O  O329  1  0.74756352  0.13016775  0.75494257  1
  O  O330  1  0.76136677  0.62206854  0.25513352  1
  O  O331  1  0.73572261  0.60934288  0.75065828  1
  O  O332  1  0.37187746  0.13540768  0.36131175  1
  O  O333  1  0.37909007  0.11225199  0.87795141  1
  O  O334  1  0.36518658  0.61621146  0.38004892  1
  O  O335  1  0.37610230  0.62583836  0.88700771  1
  O  O336  1  0.87809551  0.11806578  0.39350475  1
  O  O337  1  0.86367047  0.11527555  0.87101727  1
  O  O338  1  0.87222934  0.62256934  0.36723450  1
  O  O339  1  0.87932701  0.60748225  0.92607495  1
  O  O340  1  0.13442751  0.38122219  0.13079529  1
  O  O341  1  0.12109471  0.38454701  0.61235986  1
  O  O342  1  0.14024216  0.89945495  0.12001104  1
  O  O343  1  0.11989365  0.88064704  0.62951646  1
  O  O344  1  0.62992004  0.38679569  0.13660557  1
  O  O345  1  0.62535823  0.38644112  0.63076906  1
  O  O346  1  0.64337502  0.87644511  0.13323405  1
  O  O347  1  0.63524113  0.87089963  0.63148986  1
  O  O348  1  0.11276876  0.26327462  0.25210679  1
  O  O349  1  0.15922580  0.32200930  0.78005201  1
  O  O350  1  0.13554065  0.76583043  0.24409524  1
  O  O351  1  0.13429318  0.77161440  0.74088568  1
  O  O352  1  0.61962045  0.26498362  0.24973340  1
  O  O353  1  0.61104920  0.25418167  0.75446872  1
  O  O354  1  0.63606752  0.75738649  0.26054109  1
  O  O355  1  0.61642524  0.77091196  0.74853488  1
  O  O356  1  0.38184093  0.25279135  0.24050053  1
  O  O357  1  0.38440744  0.22661471  0.74081372  1
  O  O358  1  0.36551616  0.74956993  0.24242535  1
  O  O359  1  0.36000137  0.74335410  0.73486128  1
  O  O360  1  0.88830180  0.25865683  0.24365409  1
  O  O361  1  0.87145031  0.25750394  0.71672331  1
  O  O362  1  0.87534791  0.73983192  0.25410194  1
  O  O363  1  0.89361494  0.78437949  0.72064827  1
  O  O364  1  0.38711267  0.49170296  0.50363931  1
  O  O365  1  0.38638583  0.50011550  0.99749020  1
  O  O366  1  0.39578224  0.97164835  0.49051302  1
  O  O367  1  0.39042427  0.99428108  1.00977650  1
  O  O368  1  0.88449157  0.51526763  0.49007613  1
  O  O369  1  0.88387995  0.47668580  1.01071032  1
  O  O370  1  0.85816191  0.99090735  0.48771946  1
  O  O371  1  0.86562941  0.99248821  0.98445540  1
  O  O372  1  0.17317186  -0.03684502  0.08480445  1
  O  O373  1  0.18763325  0.01715747  0.47844349  1
  O  O374  1  0.14725000  0.52155637  0.01191300  1
  O  O375  1  0.11077652  0.50820888  0.49812831  1
  O  O376  1  0.62079778  -0.00186345  0.01755763  1
  O  O377  1  0.61569183  -0.00680624  0.50527263  1
  O  O378  1  0.62725009  0.49456101  0.01499705  1
  O  O379  1  0.61539993  0.50871999  0.50994158  1
  O  O380  1  0.36144754  0.36675339  0.13113899  1
  O  O381  1  0.37466480  0.37371093  0.61315304  1
  O  O382  1  0.38505450  0.88242464  0.12592272  1
  O  O383  1  0.37671971  0.85683511  0.63059255  1
  O  O384  1  0.87428702  0.36029203  0.11719369  1
  O  O385  1  0.85328430  0.38948025  0.61844485  1
  O  O386  1  0.86816048  0.89017418  0.11792775  1
  O  O387  1  0.85759203  0.87795963  0.61472199  1
  O  O388  1  0.13147388  0.14118866  0.37446746  1
  O  O389  1  0.15092141  0.11546560  0.88106639  1
  O  O390  1  0.12960068  0.62376205  0.38167242  1
  O  O391  1  0.11888549  0.63292155  0.89825910  1
  O  O392  1  0.62721474  0.14692168  0.35478308  1
  O  O393  1  0.63537662  0.13791091  0.86792383  1
  O  O394  1  0.63288752  0.63763426  0.37823501  1
  O  O395  1  0.63167912  0.63190922  0.88648564  1
