# generated using pymatgen
data_V35Zn35O128
_symmetry_space_group_name_H-M   'P 1'
_cell_length_a   16.84324095
_cell_length_b   16.89959519
_cell_length_c   16.86290049
_cell_angle_alpha   89.86044617
_cell_angle_beta   89.88961439
_cell_angle_gamma   90.03357867
_symmetry_Int_Tables_number   1
_chemical_formula_structural   V35Zn35O128
_chemical_formula_sum   'V70 Zn70 O256'
_cell_volume   4799.89868313
_cell_formula_units_Z   2
loop_
 _symmetry_equiv_pos_site_id
 _symmetry_equiv_pos_as_xyz
  1  'x, y, z'
loop_
 _atom_site_type_symbol
 _atom_site_label
 _atom_site_symmetry_multiplicity
 _atom_site_fract_x
 _atom_site_fract_y
 _atom_site_fract_z
 _atom_site_occupancy
  V  V0  1  0.01086570  0.62885891  0.11064383  1
  V  V1  1  0.86621775  0.49332028  0.88859602  1
  V  V2  1  -0.00698285  0.74312853  0.25050524  1
  V  V3  1  0.27554778  0.63120566  0.86746633  1
  V  V4  1  0.76227697  0.76240364  0.50831174  1
  V  V5  1  0.38219620  0.62905078  0.24913073  1
  V  V6  1  0.75514244  0.49270912  0.24638330  1
  V  V7  1  0.63187156  0.74361652  0.88264082  1
  V  V8  1  -0.01182746  0.88051153  0.37429337  1
  V  V9  1  0.87219658  0.37594955  0.50441900  1
  V  V10  1  0.36648656  0.75030374  0.12077424  1
  V  V11  1  0.50375417  0.01956291  0.00440995  1
  V  V12  1  0.12932215  0.11104682  -0.03165309  1
  V  V13  1  0.50509220  0.87362585  0.86420637  1
  V  V14  1  0.25050907  0.89647963  0.12435441  1
  V  V15  1  0.47392879  0.50466094  -0.02608882  1
  V  V16  1  0.50749619  0.12669206  0.62605563  1
  V  V17  1  0.50036457  0.25694841  0.75040260  1
  V  V18  1  0.61887858  0.75381905  0.37811830  1
  V  V19  1  0.87916705  0.11275841  0.25200792  1
  V  V20  1  0.63117791  -0.00713593  0.62394981  1
  V  V21  1  0.50188150  0.23884654  0.23799507  1
  V  V22  1  0.39073674  0.49867151  0.37897505  1
  V  V23  1  0.27226064  0.49248839  0.74658255  1
  V  V24  1  0.61874636  0.60871829  0.50892068  1
  V  V25  1  0.75340657  0.88837727  0.11832317  1
  V  V26  1  0.69965682  0.42933437  0.69217189  1
  V  V27  1  0.00152799  0.12647051  0.61500115  1
  V  V28  1  -0.00729396  0.87185209  0.88851334  1
  V  V29  1  0.00784113  0.09865737  0.11795261  1
  V  V30  1  0.12924282  0.49038592  0.63710506  1
  V  V31  1  0.01381183  0.37371021  0.37629177  1
  V  V32  1  0.63146606  0.89261706  0.24559148  1
  V  V33  1  0.25289147  0.62804060  0.37619834  1
  V  V34  1  -0.00545839  0.63582814  0.63740134  1
  V  V35  1  0.43209391  0.69620274  0.67400513  1
  V  V36  1  0.35537196  0.26034163  0.13672620  1
  V  V37  1  0.11892617  0.86184456  0.74492963  1
  V  V38  1  0.50967703  0.75506075  0.23549994  1
  V  V39  1  0.74692419  0.25311452  0.49833450  1
  V  V40  1  0.75364966  0.62699165  0.37180989  1
  V  V41  1  0.87195925  0.24624989  0.62830574  1
  V  V42  1  0.01155136  0.49130762  -0.00325979  1
  V  V43  1  0.24284875  0.49662061  0.23566324  1
  V  V44  1  0.36981793  0.86709062  0.49343402  1
  V  V45  1  0.13307279  0.88898718  0.24892403  1
  V  V46  1  -0.01598601  -0.00700485  0.49885127  1
  V  V47  1  0.85359855  0.62868785  0.75427947  1
  V  V48  1  0.12701068  0.73808390  0.88754484  1
  V  V49  1  0.75151795  0.11923402  0.37354300  1
  V  V50  1  0.50024983  0.00129507  0.49324734  1
  V  V51  1  0.14163030  0.23276980  0.38530991  1
  V  V52  1  0.61553463  0.25851903  0.38145323  1
  V  V53  1  0.25431864  0.85044920  0.62216011  1
  V  V54  1  0.13672611  0.00085988  0.61602411  1
  V  V55  1  -0.00309610  0.25870071  0.24284840  1
  V  V56  1  0.37387010  0.87733841  -0.00083664  1
  V  V57  1  0.37967551  0.37892850  0.51241785  1
  V  V58  1  0.13342621  0.75317219  0.37444536  1
  V  V59  1  0.00400462  0.50290049  0.50567738  1
  V  V60  1  0.35962812  0.11259893  0.75138323  1
  V  V61  1  0.73111919  0.11750292  0.89829355  1
  V  V62  1  0.61391548  0.38469834  0.24379166  1
  V  V63  1  0.32765664  0.23040417  0.62271782  1
  V  V64  1  0.87633491  0.11564330  0.75739555  1
  V  V65  1  0.86825059  0.75062789  0.10832473  1
  V  V66  1  0.36238202  -0.00092786  0.86903523  1
  V  V67  1  0.87707836  0.50610223  0.37618202  1
  V  V68  1  0.35979059  0.01286671  0.36840253  1
  V  V69  1  0.12946082  0.62930190  0.50150575  1
  Zn  Zn70  1  0.60937694  0.25226320  0.87369890  1
  Zn  Zn71  1  0.75177141  -0.00259422  0.75344475  1
  Zn  Zn72  1  0.23502639  0.24218466  -0.04152256  1
  Zn  Zn73  1  0.61313750  0.50566854  0.09993161  1
  Zn  Zn74  1  0.61977653  0.86788102  0.73838520  1
  Zn  Zn75  1  0.74197267  0.62832624  0.91045855  1
  Zn  Zn76  1  0.16832403  0.20324806  0.19124535  1
  Zn  Zn77  1  0.16606684  0.17308835  0.72033988  1
  Zn  Zn78  1  0.18930206  0.69075929  0.19053113  1
  Zn  Zn79  1  0.19138530  0.67767510  0.69052112  1
  Zn  Zn80  1  0.69205039  0.19305209  0.20180399  1
  Zn  Zn81  1  0.68834474  0.18711258  0.69186488  1
  Zn  Zn82  1  0.69376839  0.68010663  0.18063802  1
  Zn  Zn83  1  0.67565619  0.69479292  0.68688754  1
  Zn  Zn84  1  0.31478056  0.31852449  0.31426283  1
  Zn  Zn85  1  0.31083696  0.30549516  0.80916638  1
  Zn  Zn86  1  0.31787566  0.82040257  0.30986828  1
  Zn  Zn87  1  0.30976650  0.81329679  0.80640103  1
  Zn  Zn88  1  0.81600425  0.31488928  0.31773162  1
  Zn  Zn89  1  0.78216790  0.31297187  0.84578448  1
  Zn  Zn90  1  0.80685454  0.81464216  0.31100156  1
  Zn  Zn91  1  0.81340970  0.80086480  0.81950449  1
  Zn  Zn92  1  0.19965795  0.44221374  0.43931119  1
  Zn  Zn93  1  0.22049262  0.49434054  0.95938972  1
  Zn  Zn94  1  0.18771694  0.94131864  0.44025230  1
  Zn  Zn95  1  0.18141267  0.93099285  0.93564254  1
  Zn  Zn96  1  0.68662485  0.43481557  0.43410701  1
  Zn  Zn97  1  0.67054092  0.44024376  0.88650787  1
  Zn  Zn98  1  0.68417891  0.93590479  0.43700146  1
  Zn  Zn99  1  0.68783063  0.94409476  0.94148941  1
  Zn  Zn100  1  0.31595839  0.07946891  0.05163390  1
  Zn  Zn101  1  0.31811730  0.07003623  0.54916296  1
  Zn  Zn102  1  0.32854790  0.56774707  0.05675285  1
  Zn  Zn103  1  0.31489596  0.56302337  0.56341698  1
  Zn  Zn104  1  0.81754926  0.06592040  0.07165249  1
  Zn  Zn105  1  0.81073780  0.06434028  0.55400915  1
  Zn  Zn106  1  0.82700635  0.56387417  0.07358356  1
  Zn  Zn107  1  0.80536119  0.56986741  0.56577829  1
  Zn  Zn108  1  0.42219812  0.44412431  0.18114676  1
  Zn  Zn109  1  0.46578382  0.45566576  0.67510915  1
  Zn  Zn110  1  0.44376085  0.94360270  0.18855395  1
  Zn  Zn111  1  0.43492720  0.93485754  0.67886707  1
  Zn  Zn112  1  0.95136555  0.45077302  0.19293247  1
  Zn  Zn113  1  0.88205853  0.41421793  0.72319490  1
  Zn  Zn114  1  0.93446859  0.93123000  0.18735314  1
  Zn  Zn115  1  0.93399375  0.93031501  0.68879906  1
  Zn  Zn116  1  0.06326472  0.06765209  0.31602214  1
  Zn  Zn117  1  0.05868851  0.04628041  0.79311514  1
  Zn  Zn118  1  0.06694597  0.56272613  0.31198620  1
  Zn  Zn119  1  0.05883755  0.55392910  0.81543893  1
  Zn  Zn120  1  0.56294527  0.07227013  0.31639166  1
  Zn  Zn121  1  0.55897535  0.06121307  0.81311566  1
  Zn  Zn122  1  0.56839378  0.57071228  0.31234498  1
  Zn  Zn123  1  0.57042139  0.55603593  0.80976506  1
  Zn  Zn124  1  0.41771725  0.18838411  0.44715980  1
  Zn  Zn125  1  0.41626960  0.19861278  0.93941152  1
  Zn  Zn126  1  0.44230200  0.68442841  0.44007301  1
  Zn  Zn127  1  0.45339790  0.69067530  0.94244420  1
  Zn  Zn128  1  0.93710541  0.18604539  0.43693460  1
  Zn  Zn129  1  0.94657786  0.04484757  0.93900526  1
  Zn  Zn130  1  0.94060086  0.69191194  0.44003637  1
  Zn  Zn131  1  0.93875392  0.69039234  0.92629337  1
  Zn  Zn132  1  0.04944880  0.29083706  0.03420245  1
  Zn  Zn133  1  0.07000502  0.31046607  0.56200263  1
  Zn  Zn134  1  0.06914613  0.81359760  0.06427405  1
  Zn  Zn135  1  0.06140876  0.81309116  0.55905287  1
  Zn  Zn136  1  0.51950882  0.35918322  0.08372636  1
  Zn  Zn137  1  0.55290599  0.32789494  0.56818169  1
  Zn  Zn138  1  0.56586171  0.82583295  0.05925467  1
  Zn  Zn139  1  0.55782261  0.81536734  0.55664417  1
  O  O140  1  0.10436637  0.12524457  0.14039541  1
  O  O141  1  0.10988453  0.11067107  0.62912839  1
  O  O142  1  0.10994726  0.64338956  0.12495296  1
  O  O143  1  0.11707686  0.62031003  0.61607317  1
  O  O144  1  0.62168511  0.13420700  0.11577136  1
  O  O145  1  0.61271082  0.11463637  0.62883055  1
  O  O146  1  0.65950061  0.61326940  0.08736455  1
  O  O147  1  0.63502973  0.62370523  0.60725145  1
  O  O148  1  0.37942515  0.39829383  0.36978889  1
  O  O149  1  0.33281751  0.27466247  0.91627549  1
  O  O150  1  0.36541555  0.88791096  0.38909874  1
  O  O151  1  0.38060570  0.87925870  0.87933901  1
  O  O152  1  0.88484384  0.38602346  0.38773328  1
  O  O153  1  0.86289508  0.39285999  0.87774541  1
  O  O154  1  0.89015973  0.87667892  0.36386894  1
  O  O155  1  0.89369852  0.86072058  0.87411755  1
  O  O156  1  0.25852086  0.00832148  0.38155949  1
  O  O157  1  0.26437468  -0.01635550  0.87036932  1
  O  O158  1  0.25923286  0.51631283  0.36385107  1
  O  O159  1  0.26461639  0.51352835  0.85517215  1
  O  O160  1  0.73873305  0.02087123  0.38062930  1
  O  O161  1  0.74621214  0.01377442  0.86987424  1
  O  O162  1  0.76062856  0.50734282  0.37397543  1
  O  O163  1  0.76075963  0.51182216  0.90247124  1
  O  O164  1  0.26319242  0.51365232  0.13673845  1
  O  O165  1  0.23688522  0.50946065  0.63339042  1
  O  O166  1  0.26176266  0.99457836  0.12131807  1
  O  O167  1  0.23679644  1.01038231  0.60653292  1
  O  O168  1  0.76103315  0.49865739  0.14657504  1
  O  O169  1  0.75417797  0.49185913  0.63342391  1
  O  O170  1  0.75868647  0.98647324  0.13471606  1
  O  O171  1  0.73154316  1.00882677  0.61392420  1
  O  O172  1  -0.00436524  0.37241283  0.26616289  1
  O  O173  1  -0.00855351  0.39823383  0.73387115  1
  O  O174  1  0.01306976  0.86889244  0.25837620  1
  O  O175  1  0.01530800  0.86939654  0.74242965  1
  O  O176  1  0.51135796  0.37768256  0.24862893  1
  O  O177  1  0.48197194  0.35388290  0.73458382  1
  O  O178  1  0.51701934  0.86295210  0.24357261  1
  O  O179  1  0.49774496  0.88301281  0.76189762  1
  O  O180  1  0.50887714  0.13953125  0.24009188  1
  O  O181  1  0.49166260  0.12735478  0.73949191  1
  O  O182  1  0.49154679  0.63884390  0.24964172  1
  O  O183  1  0.47710931  0.61959795  0.73942102  1
  O  O184  1  0.99090204  0.13702911  0.25364112  1
  O  O185  1  0.98896790  0.11366726  0.72246119  1
  O  O186  1  1.00576160  0.64042617  0.24779075  1
  O  O187  1  1.00533244  0.62507423  0.73711966  1
  O  O188  1  0.36976695  0.18631213  0.06424185  1
  O  O189  1  0.42628091  0.29865405  0.47207707  1
  O  O190  1  0.38309802  0.76084282  0.01553190  1
  O  O191  1  0.38361925  0.76873428  0.48876623  1
  O  O192  1  0.86406426  0.24663276  0.01018493  1
  O  O193  1  0.86745373  0.25748536  0.50089764  1
  O  O194  1  0.87665236  0.75056409  0.00958252  1
  O  O195  1  0.86283405  0.74758680  0.49818741  1
  O  O196  1  0.12992713  0.25544323  0.48409275  1
  O  O197  1  0.12711679  0.22444256  0.99432417  1
  O  O198  1  0.11952404  0.74166233  0.48509223  1
  O  O199  1  0.13337051  0.75495671  0.98645793  1
  O  O200  1  0.62638050  0.26470590  0.48907740  1
  O  O201  1  0.63564216  0.19253248  1.06438602  1
  O  O202  1  0.62797853  0.75317087  0.48307575  1
  O  O203  1  0.61005340  0.75577298  0.98235473  1
  O  O204  1  0.50410778  0.25739938  0.13645561  1
  O  O205  1  0.49972062  0.23265126  0.62666915  1
  O  O206  1  0.49400085  0.75679522  0.13251639  1
  O  O207  1  0.50805529  0.75025399  0.63279905  1
  O  O208  1  1.00784064  0.26354882  0.14259971  1
  O  O209  1  0.99315015  0.23256073  0.60711228  1
  O  O210  1  0.99414856  0.75277987  0.13577124  1
  O  O211  1  1.00055553  0.73409298  0.61587476  1
  O  O212  1  0.00418138  0.26696157  0.38098222  1
  O  O213  1  -0.07363898  0.25360952  0.97190601  1
  O  O214  1  0.00829141  0.76046536  0.36690468  1
  O  O215  1  0.01803947  0.75964671  0.87421504  1
  O  O216  1  0.51620930  0.24075260  0.36131281  1
  O  O217  1  0.49275458  0.24618882  0.85563644  1
  O  O218  1  0.51523070  0.74810313  0.36219251  1
  O  O219  1  0.50302043  0.76886401  0.87452791  1
  O  O220  1  0.32170833  0.18595062  0.52677105  1
  O  O221  1  0.23556674  0.12300291  0.98110864  1
  O  O222  1  0.23958676  0.62073365  0.48834348  1
  O  O223  1  0.25786782  0.60829928  0.97242092  1
  O  O224  1  0.75571785  0.14015566  0.48301940  1
  O  O225  1  0.74319595  0.11051969  0.99817526  1
  O  O226  1  0.74178006  0.63475231  0.48864395  1
  O  O227  1  0.72747444  0.61265096  1.03342721  1
  O  O228  1  0.21841486  0.38138465  0.01740362  1
  O  O229  1  0.27761959  0.38161776  0.49366322  1
  O  O230  1  0.26033261  0.87998898  0.01333759  1
  O  O231  1  0.25787302  0.87554083  0.50994095  1
  O  O232  1  0.69422534  0.24152380  0.09000506  1
  O  O233  1  0.76119481  0.36637427  0.49436194  1
  O  O234  1  0.74157682  0.87896254  0.01853951  1
  O  O235  1  0.75018384  0.86148747  0.48827055  1
  O  O236  1  0.14170932  0.50957596  0.24704396  1
  O  O237  1  0.12786253  0.49933247  0.73909823  1
  O  O238  1  0.12227904  0.98669976  0.25621369  1
  O  O239  1  0.12416122  0.98138532  0.72384838  1
  O  O240  1  0.63612164  0.49461001  0.25632414  1
  O  O241  1  0.64799556  0.47434411  0.77346351  1
  O  O242  1  0.61877415  0.99025574  0.25517727  1
  O  O243  1  0.62921296  0.99351763  0.73655057  1
  O  O244  1  0.38312703  -0.01283951  0.27192071  1
  O  O245  1  0.38003520  0.00278519  0.75829015  1
  O  O246  1  0.37194203  0.51514828  0.25722531  1
  O  O247  1  0.36824959  0.49845626  0.71994644  1
  O  O248  1  0.88425816  0.01377270  0.25553720  1
  O  O249  1  0.87097330  0.01307775  0.73537660  1
  O  O250  1  0.86747059  0.49251266  0.26416968  1
  O  O251  1  0.87584635  0.51717618  0.77779577  1
  O  O252  1  0.11427863  0.38250268  0.38138915  1
  O  O253  1  0.12079257  0.29036732  0.81302454  1
  O  O254  1  0.12727452  0.86976469  0.36469797  1
  O  O255  1  0.12599238  0.86401972  0.85761322  1
  O  O256  1  0.62464161  0.36453041  0.36536047  1
  O  O257  1  0.68186873  0.33053446  0.89958342  1
  O  O258  1  0.63197730  0.86004501  0.35776970  1
  O  O259  1  0.61304227  0.87550748  0.87323841  1
  O  O260  1  0.31665318  0.11434857  0.20537437  1
  O  O261  1  0.38208287  0.11727491  0.64132407  1
  O  O262  1  0.37277787  0.64438592  0.13311062  1
  O  O263  1  0.37876765  0.64494627  0.60467133  1
  O  O264  1  0.89501426  0.12554712  0.14097684  1
  O  O265  1  0.88333888  0.13211287  0.61711474  1
  O  O266  1  0.89209576  0.64478797  0.12864588  1
  O  O267  1  0.88663872  0.61355187  0.64002540  1
  O  O268  1  0.25502318  0.26126964  0.14993578  1
  O  O269  1  0.23194114  0.23758290  0.64864428  1
  O  O270  1  0.26440970  0.76107298  0.13113149  1
  O  O271  1  0.24678079  0.75238698  0.61673104  1
  O  O272  1  0.82645716  0.33580264  0.12784468  1
  O  O273  1  0.76273823  0.23813458  0.61214313  1
  O  O274  1  0.76554065  0.75333825  0.13047143  1
  O  O275  1  0.74038513  0.75018909  0.60569578  1
  O  O276  1  0.23979643  0.24938132  0.36218453  1
  O  O277  1  0.19332344  0.25298177  0.82908230  1
  O  O278  1  0.24406661  0.74195976  0.36444288  1
  O  O279  1  0.24011158  0.73866572  0.86514036  1
  O  O280  1  0.74158043  0.24978078  0.38240374  1
  O  O281  1  0.78022075  0.20368047  0.87611739  1
  O  O282  1  0.74233300  0.74195269  0.37481032  1
  O  O283  1  0.73747648  0.75000723  0.88926600  1
  O  O284  1  0.01396033  0.11564178  0.01242118  1
  O  O285  1  -0.00545894  0.10647841  0.50355234  1
  O  O286  1  0.00214817  0.63143839  0.00921591  1
  O  O287  1  0.00928248  0.61844462  0.50046727  1
  O  O288  1  0.48970499  0.11721215  -0.01903994  1
  O  O289  1  0.48850493  0.11343791  0.51684429  1
  O  O290  1  0.48722781  0.60315165  0.00303094  1
  O  O291  1  0.51977501  0.62840208  0.49662770  1
  O  O292  1  0.47239325  0.41335722  0.56783429  1
  O  O293  1  0.53772100  0.39873114  0.97387836  1
  O  O294  1  0.48271775  0.89213570  0.50842688  1
  O  O295  1  0.48555596  0.88605590  0.99342011  1
  O  O296  1  0.99543939  0.38543173  0.49284021  1
  O  O297  1  1.00617308  0.39154665  1.01086794  1
  O  O298  1  0.99978166  0.87842456  0.48397181  1
  O  O299  1  1.00834102  0.87365123  0.98829966  1
  O  O300  1  0.48957513  0.51131343  0.36930275  1
  O  O301  1  0.48554141  0.50841452  0.87281130  1
  O  O302  1  0.50211033  1.00849300  0.39133180  1
  O  O303  1  0.49022852  0.98899868  0.88058793  1
  O  O304  1  0.99690628  0.49566748  0.38155175  1
  O  O305  1  0.98689505  0.50674825  0.89058422  1
  O  O306  1  1.00555506  0.98834191  0.38445253  1
  O  O307  1  1.00426786  0.97628754  0.86525165  1
  O  O308  1  0.00708829  0.00008518  0.13136023  1
  O  O309  1  -0.00079330  -0.00251011  0.60969979  1
  O  O310  1  -0.00191839  0.51994161  0.11594115  1
  O  O311  1  0.01346741  0.51302313  0.61314057  1
  O  O312  1  0.48027233  0.00792702  0.10442159  1
  O  O313  1  0.50689922  0.00811893  0.62022010  1
  O  O314  1  0.49882274  0.47866849  0.10241978  1
  O  O315  1  0.52345002  0.55922903  0.69956523  1
  O  O316  1  0.25980224  0.39835459  0.25034924  1
  O  O317  1  0.25961913  0.39236758  0.75787527  1
  O  O318  1  0.24266953  0.87791911  0.23977664  1
  O  O319  1  0.24170210  0.87187294  0.72805476  1
  O  O320  1  0.74207671  0.38787478  0.26236472  1
  O  O321  1  0.77290701  0.36787635  0.73881859  1
  O  O322  1  0.73686106  0.87369067  0.24368329  1
  O  O323  1  0.77964613  0.87803881  0.73139102  1
  O  O324  1  0.25256172  0.11510144  0.24314199  1
  O  O325  1  0.26018162  0.11130756  0.74776612  1
  O  O326  1  0.26317585  0.62595919  0.25661254  1
  O  O327  1  0.25368721  0.61408851  0.75858262  1
  O  O328  1  0.76868151  0.13387697  0.25693823  1
  O  O329  1  0.76684266  0.12166204  0.74630019  1
  O  O330  1  0.74360796  0.61037939  0.26325029  1
  O  O331  1  0.75407911  0.62591757  0.74528348  1
  O  O332  1  0.38052126  0.11269236  0.37353361  1
  O  O333  1  0.37401743  0.10761593  0.86212107  1
  O  O334  1  0.37092385  0.62505449  0.36845684  1
  O  O335  1  0.37279714  0.64822940  0.86798900  1
  O  O336  1  0.86504350  0.12949488  0.36571633  1
  O  O337  1  0.90299730  0.11413390  0.85360016  1
  O  O338  1  0.87042522  0.61479496  0.38217661  1
  O  O339  1  0.86061821  0.62625378  0.87257808  1
  O  O340  1  0.16996676  0.37824330  0.07539241  1
  O  O341  1  0.12318328  0.39268011  0.61821852  1
  O  O342  1  0.14008995  0.87470796  0.13569379  1
  O  O343  1  0.13710005  0.87613302  0.62298554  1
  O  O344  1  0.62912030  0.38773826  0.14180286  1
  O  O345  1  0.63606261  0.37617919  0.63408946  1
  O  O346  1  0.63678416  0.87304538  0.13732840  1
  O  O347  1  0.62106237  0.88840977  0.62238023  1
  O  O348  1  0.10356496  0.25023828  0.27334201  1
  O  O349  1  0.08306143  0.25305681  0.75487935  1
  O  O350  1  0.11756629  0.75967688  0.25898370  1
  O  O351  1  0.12880267  0.75935091  0.74658022  1
  O  O352  1  0.61870638  0.26655490  0.25370169  1
  O  O353  1  0.60577701  0.24749100  0.74549998  1
  O  O354  1  0.61678960  0.74101396  0.24939297  1
  O  O355  1  0.63447842  0.76107478  0.76885415  1
  O  O356  1  0.39137774  0.25672618  0.24390592  1
  O  O357  1  0.37392764  0.22880427  0.73836824  1
  O  O358  1  0.38846770  0.75218405  0.24216436  1
  O  O359  1  0.37661387  0.75285458  0.73607284  1
  O  O360  1  0.89162276  0.25013913  0.25882408  1
  O  O361  1  0.87908557  0.23566890  0.72842063  1
  O  O362  1  0.89190487  0.75413014  0.25421200  1
  O  O363  1  0.87599241  0.72727998  0.75606217  1
  O  O364  1  0.37551323  0.49961526  0.48535026  1
  O  O365  1  0.37411050  0.48351714  0.99134317  1
  O  O366  1  0.38214305  0.99609880  0.48880469  1
  O  O367  1  0.37686328  0.99708026  0.98448703  1
  O  O368  1  0.88344633  0.49586741  0.49754113  1
  O  O369  1  0.88939557  0.50850814  0.99616807  1
  O  O370  1  0.88399164  0.99172260  0.50080367  1
  O  O371  1  0.88203360  0.99646578  1.01313631  1
  O  O372  1  0.12800300  0.01156675  -0.00573831  1
  O  O373  1  0.11034341  -0.01025913  0.51247722  1
  O  O374  1  0.11049169  0.50677825  -0.01224619  1
  O  O375  1  0.12178682  0.51075842  0.50250656  1
  O  O376  1  0.60266646  -0.00025516  -0.00322106  1
  O  O377  1  0.60904796  -0.00593550  0.50806927  1
  O  O378  1  0.59689572  0.46404183  -0.01974278  1
  O  O379  1  0.62808489  0.50907805  0.49375574  1
  O  O380  1  0.38220166  0.35537599  0.10932194  1
  O  O381  1  0.35426080  0.32838195  0.60975886  1
  O  O382  1  0.36663193  0.87129575  0.12233824  1
  O  O383  1  0.35970989  0.87937675  0.61306069  1
  O  O384  1  0.87996533  0.38444189  0.11062861  1
  O  O385  1  0.88386238  0.35610007  0.61276416  1
  O  O386  1  0.86446072  0.86179333  0.13245172  1
  O  O387  1  0.83161368  0.87062148  0.66858507  1
  O  O388  1  0.12785982  0.13246105  0.38136080  1
  O  O389  1  0.11292895  0.11379062  0.86785574  1
  O  O390  1  0.13275033  0.63342396  0.37989817  1
  O  O391  1  0.12267507  0.63756683  0.87101818  1
  O  O392  1  0.64270669  0.14620803  0.36042503  1
  O  O393  1  0.62910923  0.13473921  0.87418111  1
  O  O394  1  0.63450160  0.63694774  0.38142353  1
  O  O395  1  0.62409698  0.63880730  0.87119620  1
