# generated using pymatgen
data_V35Zn35O128
_symmetry_space_group_name_H-M   'P 1'
_cell_length_a   16.90241136
_cell_length_b   16.96753909
_cell_length_c   16.94254183
_cell_angle_alpha   90.11251768
_cell_angle_beta   90.13597856
_cell_angle_gamma   89.45157426
_symmetry_Int_Tables_number   1
_chemical_formula_structural   V35Zn35O128
_chemical_formula_sum   'V70 Zn70 O256'
_cell_volume   4858.74554371
_cell_formula_units_Z   2
loop_
 _symmetry_equiv_pos_site_id
 _symmetry_equiv_pos_as_xyz
  1  'x, y, z'
loop_
 _atom_site_type_symbol
 _atom_site_label
 _atom_site_symmetry_multiplicity
 _atom_site_fract_x
 _atom_site_fract_y
 _atom_site_fract_z
 _atom_site_occupancy
  V  V0  1  0.75544549  0.62003059  0.87330779  1
  V  V1  1  0.88447011  0.64130660  0.73858918  1
  V  V2  1  0.86667176  0.11144039  0.24803862  1
  V  V3  1  -0.00011674  0.63189731  0.12881679  1
  V  V4  1  0.49947580  0.36923699  0.87322852  1
  V  V5  1  0.00526773  0.47589816  0.50517457  1
  V  V6  1  0.88390076  0.13146521  0.75345546  1
  V  V7  1  0.49148950  0.12904484  0.63812815  1
  V  V8  1  0.87100933  0.63000235  0.25249424  1
  V  V9  1  0.62217867  0.75016064  0.87595453  1
  V  V10  1  0.63066572  0.48724528  0.12610659  1
  V  V11  1  0.62464873  0.73876675  0.39590643  1
  V  V12  1  0.64432289  0.24646529  0.87074932  1
  V  V13  1  0.23690118  0.12984905  0.88971306  1
  V  V14  1  0.24781574  0.38078058  0.63627135  1
  V  V15  1  0.25470860  0.76947933  0.00432673  1
  V  V16  1  0.86858655  0.38436161  -0.00947795  1
  V  V17  1  0.39766656  0.23061502  0.11510865  1
  V  V18  1  0.35943430  0.00956418  0.37867254  1
  V  V19  1  0.61415265  0.37574711  0.27734986  1
  V  V20  1  0.90290160  0.26237909  0.13318624  1
  V  V21  1  0.24180111  0.87033342  0.61975688  1
  V  V22  1  0.11318271  0.87785006  0.74971577  1
  V  V23  1  0.37046420  0.00770792  0.88548152  1
  V  V24  1  -0.00239518  -0.01698316  0.50219253  1
  V  V25  1  0.87522108  0.24448778  0.60955144  1
  V  V26  1  0.50543546  0.49767377  0.48908228  1
  V  V27  1  0.17095391  0.74338455  0.41030602  1
  V  V28  1  0.50895572  0.61214453  0.62644542  1
  V  V29  1  0.76393021  0.49794252  0.74720419  1
  V  V30  1  0.11066016  0.75947549  0.87280798  1
  V  V31  1  0.88018105  0.87548556  -0.00879430  1
  V  V32  1  0.13624524  0.50257050  0.13802227  1
  V  V33  1  0.87965932  -0.00093948  0.87027130  1
  V  V34  1  0.49915133  0.49974905  0.00495477  1
  V  V35  1  0.75243495  0.62842447  0.39421076  1
  V  V36  1  0.13474799  0.87439135  0.24124898  1
  V  V37  1  0.75495928  0.86607784  0.61959125  1
  V  V38  1  0.12619934  0.63369123  0.00249295  1
  V  V39  1  0.37149144  0.74977262  0.62049009  1
  V  V40  1  0.62258008  0.62659110  0.00878182  1
  V  V41  1  -0.00211789  0.50045612  -0.00745744  1
  V  V42  1  0.00290038  0.00920627  0.00882003  1
  V  V43  1  0.36890047  0.75477709  0.13843166  1
  V  V44  1  0.87081736  0.75966818  0.12191854  1
  V  V45  1  0.00719704  0.25797164  0.75557754  1
  V  V46  1  0.12952652  0.60991815  0.53560981  1
  V  V47  1  0.10957079  0.12548285  0.49151170  1
  V  V48  1  0.24926793  0.62633119  0.87846378  1
  V  V49  1  0.31392406  0.56342259  0.31414575  1
  V  V50  1  0.61418453  0.01024574  0.61983726  1
  V  V51  1  0.75244419  0.37226419  0.61202986  1
  V  V52  1  0.50434885  0.24125279  0.26978334  1
  V  V53  1  0.73911141  0.01574777  0.75822327  1
  V  V54  1  0.37222412  0.62393924  0.75732228  1
  V  V55  1  0.48231115  0.87657479  0.87919391  1
  V  V56  1  0.25478923  0.24161877  0.48659329  1
  V  V57  1  0.38125105  0.37501427  0.48836597  1
  V  V58  1  0.25128588  0.00481245  0.74349763  1
  V  V59  1  0.37583099  0.50011417  0.87818961  1
  V  V60  1  0.51075132  0.73864548  0.24684642  1
  V  V61  1  0.74815793  0.75671238  0.00226890  1
  V  V62  1  0.49920098  0.74848221  0.75091783  1
  V  V63  1  0.75252102  0.24540129  0.00817057  1
  V  V64  1  0.62320772  0.38464469  0.74631435  1
  V  V65  1  -0.00416210  0.76405707  0.26293059  1
  V  V66  1  0.37398068  0.24663715  0.64750676  1
  V  V67  1  0.25263343  0.25780382  0.00590053  1
  V  V68  1  0.50123784  0.87953333  0.38431831  1
  V  V69  1  0.62564582  0.87746153  0.75152246  1
  Zn  Zn70  1  0.89151004  0.51054760  0.37576000  1
  Zn  Zn71  1  0.63112050  0.90168446  0.24029523  1
  Zn  Zn72  1  0.26625659  0.38642583  0.12106721  1
  Zn  Zn73  1  0.37755651  0.87866797  0.50460667  1
  Zn  Zn74  1  0.12279118  0.37250721  0.74159324  1
  Zn  Zn75  1  0.76346428  0.48203735  0.25209000  1
  Zn  Zn76  1  0.16771239  0.18202024  0.12886692  1
  Zn  Zn77  1  0.18518653  0.18283700  0.67206977  1
  Zn  Zn78  1  0.18676011  0.69322335  0.19580845  1
  Zn  Zn79  1  0.18624099  0.69192290  0.69399502  1
  Zn  Zn80  1  0.65679931  0.10267374  0.21508022  1
  Zn  Zn81  1  0.68418096  0.19499036  0.68455798  1
  Zn  Zn82  1  0.68715423  0.68881587  0.18813179  1
  Zn  Zn83  1  0.69310864  0.68289983  0.68382940  1
  Zn  Zn84  1  0.28715987  0.26741071  0.27735024  1
  Zn  Zn85  1  0.30773261  0.31196626  0.82095876  1
  Zn  Zn86  1  0.31512473  0.81647142  0.31910284  1
  Zn  Zn87  1  0.30219811  0.81175099  0.81059516  1
  Zn  Zn88  1  0.74862194  0.26616418  0.22601407  1
  Zn  Zn89  1  0.81983258  0.31892031  0.81485892  1
  Zn  Zn90  1  0.78701307  0.80629893  0.29973965  1
  Zn  Zn91  1  0.81188375  0.81412391  0.80924018  1
  Zn  Zn92  1  0.21721403  0.46636545  0.46227810  1
  Zn  Zn93  1  0.18860358  0.44633070  0.94514689  1
  Zn  Zn94  1  0.15807838  0.95424749  0.40286674  1
  Zn  Zn95  1  0.18203779  0.94471911  0.93523935  1
  Zn  Zn96  1  0.68889494  0.45918985  0.43888259  1
  Zn  Zn97  1  0.68640426  0.43958268  0.93254936  1
  Zn  Zn98  1  0.66785697  0.92705510  0.44726945  1
  Zn  Zn99  1  0.69167129  0.93590575  0.93186934  1
  Zn  Zn100  1  0.49147112  0.06009086  0.05144098  1
  Zn  Zn101  1  0.31486744  0.05885882  0.56262665  1
  Zn  Zn102  1  0.33069575  0.57037954  0.14956098  1
  Zn  Zn103  1  0.32068893  0.56042536  0.56870966  1
  Zn  Zn104  1  0.85890370  0.08953506  0.04888495  1
  Zn  Zn105  1  0.82415542  0.04068094  0.58837810  1
  Zn  Zn106  1  0.80829919  0.56580198  0.06613272  1
  Zn  Zn107  1  0.83032080  0.55076896  0.56368918  1
  Zn  Zn108  1  0.39795835  0.39328923  0.23143992  1
  Zn  Zn109  1  0.43061492  0.43549793  0.69102318  1
  Zn  Zn110  1  0.42243580  0.91677050  0.20076801  1
  Zn  Zn111  1  0.43289057  0.93808543  0.69252158  1
  Zn  Zn112  1  0.93372351  0.44969980  0.17401102  1
  Zn  Zn113  1  0.93682404  0.43219223  0.68148425  1
  Zn  Zn114  1  0.92733140  0.94431575  0.18941956  1
  Zn  Zn115  1  0.93715145  0.94149704  0.67960295  1
  Zn  Zn116  1  0.05177303  0.06351267  0.31832992  1
  Zn  Zn117  1  0.06242240  0.06154619  0.81106371  1
  Zn  Zn118  1  0.07935623  0.56707474  0.33279410  1
  Zn  Zn119  1  0.05929255  0.56603735  0.81004232  1
  Zn  Zn120  1  0.50534464  0.04327267  0.27482491  1
  Zn  Zn121  1  0.53977896  0.08302470  0.84124530  1
  Zn  Zn122  1  0.50221449  0.53125573  0.27759261  1
  Zn  Zn123  1  0.56507342  0.56087080  0.81477157  1
  Zn  Zn124  1  0.43795168  0.17676532  0.45387169  1
  Zn  Zn125  1  0.42810082  0.18730573  0.93255632  1
  Zn  Zn126  1  0.43822317  0.68181953  0.43844486  1
  Zn  Zn127  1  0.40969060  0.65689994  0.98488250  1
  Zn  Zn128  1  0.91201069  0.11298315  0.43625126  1
  Zn  Zn129  1  0.93676086  0.19542371  0.93198078  1
  Zn  Zn130  1  0.94835315  0.68495240  0.45064948  1
  Zn  Zn131  1  0.93514639  0.68389053  0.93447957  1
  Zn  Zn132  1  0.06960427  0.32387288  0.06243719  1
  Zn  Zn133  1  0.06595726  0.29854153  0.56208052  1
  Zn  Zn134  1  0.06123543  0.82321386  0.06615875  1
  Zn  Zn135  1  0.05447640  0.79835653  0.55868542  1
  Zn  Zn136  1  0.56864724  0.31273151  0.05100478  1
  Zn  Zn137  1  0.55639089  0.31136834  0.56938757  1
  Zn  Zn138  1  0.55017006  0.81931570  0.06414970  1
  Zn  Zn139  1  0.56409489  0.81017080  0.56995170  1
  O  O140  1  0.14070560  0.07144662  0.14598099  1
  O  O141  1  0.13926744  0.11990262  0.59224309  1
  O  O142  1  0.11863253  0.62958270  0.11863921  1
  O  O143  1  0.12733474  0.61606532  0.63616946  1
  O  O144  1  0.61335233  0.09143226  0.09523271  1
  O  O145  1  0.61632300  0.11555046  0.63675067  1
  O  O146  1  0.62687774  0.62118285  0.11206284  1
  O  O147  1  0.60723128  0.62671685  0.63384892  1
  O  O148  1  0.38068584  0.37356075  0.39237956  1
  O  O149  1  0.39035483  0.38486958  0.86424776  1
  O  O150  1  0.38868852  0.87849602  0.38158689  1
  O  O151  1  0.37867872  0.87773739  0.86917898  1
  O  O152  1  0.97425807  0.35725666  0.31743609  1
  O  O153  1  0.88463946  0.37633350  0.89146825  1
  O  O154  1  0.85677948  0.86960770  0.38827038  1
  O  O155  1  0.86837704  0.88378704  0.88054710  1
  O  O156  1  0.26187382  -0.00740638  0.36795808  1
  O  O157  1  0.25441776  0.00696224  0.86967448  1
  O  O158  1  0.24980889  0.50113041  0.35982954  1
  O  O159  1  0.26526679  0.51610178  0.89261724  1
  O  O160  1  0.70860330  0.03044486  0.37941265  1
  O  O161  1  0.75818423  -0.00189968  0.86151627  1
  O  O162  1  0.75797252  0.51737408  0.36790863  1
  O  O163  1  0.74550705  0.51176205  0.86384702  1
  O  O164  1  0.24088760  0.50729488  0.11805468  1
  O  O165  1  0.26236090  0.47923918  0.63175369  1
  O  O166  1  0.21097968  1.02958318  0.15910768  1
  O  O167  1  0.25508017  0.98431678  0.63619792  1
  O  O168  1  0.73430151  0.50928328  0.13652818  1
  O  O169  1  0.75743046  0.48545836  0.63830140  1
  O  O170  1  0.66265725  1.04352177  0.05398048  1
  O  O171  1  0.73409817  0.99494753  0.64313295  1
  O  O172  1  0.01071675  0.38470518  0.26022485  1
  O  O173  1  0.00114764  0.36229123  0.74664239  1
  O  O174  1  -0.01127021  0.86537945  0.24864700  1
  O  O175  1  0.01392607  0.88299903  0.74208575  1
  O  O176  1  0.50464834  0.35870048  0.25643902  1
  O  O177  1  0.51519255  0.38402597  0.75897682  1
  O  O178  1  0.50302030  0.85622991  0.27154122  1
  O  O179  1  0.50580888  0.86423680  0.75409934  1
  O  O180  1  0.53759647  0.14773591  0.23699446  1
  O  O181  1  0.49956833  0.12112098  0.74090048  1
  O  O182  1  0.49745440  0.64051740  0.25232870  1
  O  O183  1  0.49380781  0.63174270  0.74846118  1
  O  O184  1  0.97113094  0.11086667  0.25236602  1
  O  O185  1  0.98683713  0.12782183  0.74663914  1
  O  O186  1  0.98986876  0.64113012  0.24171820  1
  O  O187  1  0.98361445  0.62294145  0.75203681  1
  O  O188  1  0.36632371  0.25030546  0.00260941  1
  O  O189  1  0.37410597  0.26234961  0.51080796  1
  O  O190  1  0.35649632  0.75936664  -0.00482808  1
  O  O191  1  0.38116884  0.74616374  0.51973756  1
  O  O192  1  0.87304371  0.26610645  0.00603553  1
  O  O193  1  0.87360922  0.22788495  0.51479999  1
  O  O194  1  0.86774360  0.75563792  0.00130133  1
  O  O195  1  0.87073945  0.83291846  0.45041234  1
  O  O196  1  0.14678667  0.24253279  0.49715302  1
  O  O197  1  0.14664154  0.24341572  1.03179772  1
  O  O198  1  0.13887309  0.72613473  0.51176063  1
  O  O199  1  0.12727680  0.75142334  0.99430676  1
  O  O200  1  0.62299749  0.22961776  0.51556075  1
  O  O201  1  0.64338251  0.25927724  0.98317190  1
  O  O202  1  0.62096815  0.74172903  0.49485543  1
  O  O203  1  0.62763898  0.74750145  0.99612049  1
  O  O204  1  0.49719300  0.25528862  0.11031438  1
  O  O205  1  0.48710315  0.24246290  0.63422478  1
  O  O206  1  0.49632187  0.75512203  0.14127304  1
  O  O207  1  0.49351422  0.74099062  0.63745702  1
  O  O208  1  1.00392810  0.25947963  0.13185553  1
  O  O209  1  0.98016445  0.25362936  0.63370439  1
  O  O210  1  0.98803391  0.74585831  0.12431724  1
  O  O211  1  0.95945300  0.73730497  0.55010605  1
  O  O212  1  0.10967277  0.23116182  0.28897018  1
  O  O213  1  0.00199771  0.24532044  0.85567965  1
  O  O214  1  -0.01015439  0.74991076  0.36009510  1
  O  O215  1  0.01230590  0.74981554  0.88220534  1
  O  O216  1  0.49349111  0.23309103  0.36739554  1
  O  O217  1  0.51014425  0.26822809  0.87980272  1
  O  O218  1  0.51268308  0.74215909  0.37238478  1
  O  O219  1  0.50786184  0.75965279  0.86501773  1
  O  O220  1  0.26608783  0.14230907  0.50009992  1
  O  O221  1  0.24271123  0.12997910  0.98928019  1
  O  O222  1  0.23110039  0.59679085  0.50681372  1
  O  O223  1  0.23579302  0.64229114  0.99282586  1
  O  O224  1  0.72768875  0.24100918  0.43329867  1
  O  O225  1  0.76790546  0.14649993  1.00250639  1
  O  O226  1  0.76172832  0.61791480  0.49203242  1
  O  O227  1  0.74278041  0.63221275  0.99087189  1
  O  O228  1  0.24401457  0.36290456  0.00245942  1
  O  O229  1  0.26611285  0.37016041  0.51200789  1
  O  O230  1  0.23756534  0.86712091  -0.00085198  1
  O  O231  1  0.24468394  0.87434319  0.52163750  1
  O  O232  1  0.76565685  0.38111665  -0.00640377  1
  O  O233  1  0.73968411  0.38559072  0.51521212  1
  O  O234  1  0.75616708  0.86213916  -0.00538244  1
  O  O235  1  0.74161333  0.88525243  0.52093431  1
  O  O236  1  0.12258035  0.52059427  0.23506528  1
  O  O237  1  0.13580583  0.48302446  0.79200972  1
  O  O238  1  0.11263839  0.96485981  0.28910139  1
  O  O239  1  0.13395091  0.98405590  0.75791404  1
  O  O240  1  0.60238381  0.48572922  0.23291918  1
  O  O241  1  0.63658877  0.48986560  0.75318456  1
  O  O242  1  0.61463909  1.01056322  0.26286627  1
  O  O243  1  0.63276067  0.99492903  0.75647660  1
  O  O244  1  0.40037476  -0.00094221  0.27414629  1
  O  O245  1  0.35497878  -0.00803631  0.75898779  1
  O  O246  1  0.38634969  0.51236830  0.24684044  1
  O  O247  1  0.38046725  0.51497934  0.76501109  1
  O  O248  1  0.84664246  0.01339239  0.22906638  1
  O  O249  1  0.86338402  0.01174569  0.75088472  1
  O  O250  1  0.87858962  0.51282808  0.25388038  1
  O  O251  1  0.86547939  0.50082430  0.75244753  1
  O  O252  1  0.11079815  0.28391252  0.33997276  1
  O  O253  1  0.12180260  0.42146099  0.85391268  1
  O  O254  1  0.13680385  0.83576920  0.37889905  1
  O  O255  1  0.12437526  0.86589509  0.86584895  1
  O  O256  1  0.61843624  0.39165622  0.37456587  1
  O  O257  1  0.61840889  0.37369390  0.86499015  1
  O  O258  1  0.61810866  0.85440383  0.37712398  1
  O  O259  1  0.61780186  0.86855525  0.86698211  1
  O  O260  1  0.40918481  0.13069320  0.10359570  1
  O  O261  1  0.37945720  0.13464976  0.63088397  1
  O  O262  1  0.38763017  0.65218095  0.10097849  1
  O  O263  1  0.37937762  0.63157544  0.64135899  1
  O  O264  1  0.87767941  0.15681027  0.13652684  1
  O  O265  1  0.85807317  0.13812876  0.64430992  1
  O  O266  1  0.88146950  0.63420958  0.13087163  1
  O  O267  1  0.86509580  0.62341857  0.64150923  1
  O  O268  1  0.27580790  0.23674482  0.11138903  1
  O  O269  1  0.26513840  0.25402044  0.61897758  1
  O  O270  1  0.25786234  0.74810322  0.11522877  1
  O  O271  1  0.26109685  0.76138999  0.64014402  1
  O  O272  1  0.74859297  0.26823378  0.10483131  1
  O  O273  1  0.75730941  0.26360509  0.62855430  1
  O  O274  1  0.75897359  0.73811803  0.10911943  1
  O  O275  1  0.73772221  0.76718311  0.62827893  1
  O  O276  1  0.26690614  0.25265795  0.38839321  1
  O  O277  1  0.25257680  0.24094542  0.89111305  1
  O  O278  1  0.27085928  0.74611943  0.39763014  1
  O  O279  1  0.24013487  0.74689500  0.88696854  1
  O  O280  1  0.65494172  0.25457067  0.44397209  1
  O  O281  1  0.74897334  0.25893933  0.88357585  1
  O  O282  1  0.73891507  0.74025007  0.37998583  1
  O  O283  1  0.73775760  0.74514081  0.88133248  1
  O  O284  1  -0.02631950  0.10987789  -0.00200058  1
  O  O285  1  0.01127331  0.14741754  0.49215745  1
  O  O286  1  0.00564436  0.62690616  0.01086932  1
  O  O287  1  0.02868751  0.61392340  0.49913733  1
  O  O288  1  0.50406804  0.10822529  -0.04969014  1
  O  O289  1  0.49845183  0.12335211  0.53330670  1
  O  O290  1  0.51553688  0.61066990  -0.01549396  1
  O  O291  1  0.48768712  0.60943196  0.51979861  1
  O  O292  1  0.49201262  0.38525363  0.51098897  1
  O  O293  1  0.51152590  0.39116803  0.98153962  1
  O  O294  1  0.49908139  0.85967141  0.48955048  1
  O  O295  1  0.49947650  0.87230663  0.97661866  1
  O  O296  1  1.01390159  0.37646660  0.49539189  1
  O  O297  1  1.00624414  0.39748547  0.99728369  1
  O  O298  1  1.00892803  0.88429776  0.49619429  1
  O  O299  1  0.98562865  0.88538997  0.99827552  1
  O  O300  1  0.49864531  0.50795716  0.39083191  1
  O  O301  1  0.49592697  0.49379245  0.87897218  1
  O  O302  1  0.51105887  0.97784613  0.38558410  1
  O  O303  1  0.48089554  0.98213767  0.85694813  1
  O  O304  1  1.00812910  0.50348476  0.38844070  1
  O  O305  1  0.99422150  0.52231270  0.89675765  1
  O  O306  1  0.98383293  1.01655637  0.39964936  1
  O  O307  1  0.98357660  1.00285358  0.87682805  1
  O  O308  1  -0.01263906  -0.00220382  0.10730457  1
  O  O309  1  -0.00861188  0.00484953  0.60520638  1
  O  O310  1  0.01090416  0.51792463  0.11844776  1
  O  O311  1  -0.00477190  0.49060233  0.60681296  1
  O  O312  1  0.50530553  -0.03291932  0.12645638  1
  O  O313  1  0.50841656  0.00534051  0.63713790  1
  O  O314  1  0.51278478  0.50084117  0.10523944  1
  O  O315  1  0.49652567  0.51182300  0.63571292  1
  O  O316  1  0.28496647  0.37228429  0.23395969  1
  O  O317  1  0.24565224  0.36396641  0.74079535  1
  O  O318  1  0.23483902  0.85976472  0.24873762  1
  O  O319  1  0.23767065  0.88250655  0.74492520  1
  O  O320  1  0.72010484  0.37670911  0.25297220  1
  O  O321  1  0.74658930  0.38828729  0.75303047  1
  O  O322  1  0.73081831  0.85683999  0.22192890  1
  O  O323  1  0.73693577  0.88176198  0.74717630  1
  O  O324  1  0.26848674  0.06933017  0.18514198  1
  O  O325  1  0.23861376  0.10607815  0.74631731  1
  O  O326  1  0.26554250  0.62465658  0.24402862  1
  O  O327  1  0.26063285  0.63638999  0.76827181  1
  O  O328  1  0.75385468  0.15305601  0.22953288  1
  O  O329  1  0.74855267  0.11617776  0.75016349  1
  O  O330  1  0.76552726  0.63258311  0.25398088  1
  O  O331  1  0.75358816  0.61296906  0.75389169  1
  O  O332  1  0.37900646  0.10841583  0.38252742  1
  O  O333  1  0.35519380  0.11315615  0.87049253  1
  O  O334  1  0.36764123  0.61485495  0.37986266  1
  O  O335  1  0.36954209  0.62186887  0.87593986  1
  O  O336  1  0.85016007  0.13535971  0.34688010  1
  O  O337  1  0.87127082  0.11852139  0.85864273  1
  O  O338  1  0.86868275  0.63621467  0.37126540  1
  O  O339  1  0.85994945  0.63304823  0.86446739  1
  O  O340  1  0.12839666  0.40115576  0.12721717  1
  O  O341  1  0.14440005  0.36612631  0.62314202  1
  O  O342  1  0.11736532  0.88585488  0.14229531  1
  O  O343  1  0.13271984  0.85619883  0.63856378  1
  O  O344  1  0.62988963  0.38950725  0.11202941  1
  O  O345  1  0.63604624  0.36769626  0.64115949  1
  O  O346  1  0.57434616  0.91785235  0.12431128  1
  O  O347  1  0.62343384  0.88727778  0.63829764  1
  O  O348  1  0.17833183  0.23268331  0.23387660  1
  O  O349  1  0.10815371  0.24463732  0.73509151  1
  O  O350  1  0.10346415  0.76249615  0.23937248  1
  O  O351  1  0.12507921  0.75942403  0.76615078  1
  O  O352  1  0.61675728  0.27055310  0.26156208  1
  O  O353  1  0.63939226  0.27121300  0.76275841  1
  O  O354  1  0.61504613  0.74432979  0.25643214  1
  O  O355  1  0.61921716  0.75567122  0.75787197  1
  O  O356  1  0.39786047  0.23595248  0.23189745  1
  O  O357  1  0.36928608  0.24630153  0.74624518  1
  O  O358  1  0.38003785  0.75155077  0.24153008  1
  O  O359  1  0.38334787  0.74226703  0.74989898  1
  O  O360  1  0.87251357  0.27749925  0.22812852  1
  O  O361  1  0.88130858  0.24106886  0.75210976  1
  O  O362  1  0.87939543  0.74913442  0.23998124  1
  O  O363  1  0.87143098  0.74094149  0.74918813  1
  O  O364  1  0.38482355  0.48328395  0.50993986  1
  O  O365  1  0.39503234  0.50941848  0.99103601  1
  O  O366  1  0.37050833  0.99297242  0.48755479  1
  O  O367  1  0.37441939  0.99645591  0.98115221  1
  O  O368  1  0.89474122  0.49472378  0.48978401  1
  O  O369  1  0.88628081  0.49577257  1.01140000  1
  O  O370  1  0.88146093  1.01957900  0.49935423  1
  O  O371  1  0.87154765  0.99122819  0.98838918  1
  O  O372  1  0.10125594  0.00080684  -0.00915614  1
  O  O373  1  0.10669617  0.00840677  0.49285795  1
  O  O374  1  0.11598324  0.51770295  0.00899517  1
  O  O375  1  0.11806211  0.50108670  0.50762457  1
  O  O376  1  0.62186255  0.00219705  -0.00246892  1
  O  O377  1  0.62317573  0.00249857  0.52224275  1
  O  O378  1  0.62458524  0.50801255  0.00642904  1
  O  O379  1  0.60444254  0.49651735  0.50755573  1
  O  O380  1  0.37881822  0.35464632  0.12220302  1
  O  O381  1  0.36966764  0.35965531  0.63276676  1
  O  O382  1  0.37819014  0.85354865  0.11833658  1
  O  O383  1  0.36605709  0.86586425  0.62759014  1
  O  O384  1  0.88808682  0.37165198  0.10608272  1
  O  O385  1  0.86044681  0.36084007  0.62417600  1
  O  O386  1  0.87422362  0.86333396  0.11118093  1
  O  O387  1  0.85358834  0.88014693  0.63530281  1
  O  O388  1  0.13219826  0.11469221  0.38903785  1
  O  O389  1  0.13834674  0.12226173  0.86919320  1
  O  O390  1  0.13709043  0.66034947  0.36109755  1
  O  O391  1  0.12990297  0.63926174  0.88167696  1
  O  O392  1  0.68965424  0.09508875  0.40879931  1
  O  O393  1  0.63320491  0.14927991  0.86126539  1
  O  O394  1  0.64382620  0.63304042  0.37894141  1
  O  O395  1  0.63260320  0.63554587  0.87930392  1
