# generated using pymatgen
data_V35Zn35O128
_symmetry_space_group_name_H-M   'P 1'
_cell_length_a   16.88966289
_cell_length_b   16.88933334
_cell_length_c   16.89229160
_cell_angle_alpha   89.98765045
_cell_angle_beta   89.93458282
_cell_angle_gamma   89.89780861
_symmetry_Int_Tables_number   1
_chemical_formula_structural   V35Zn35O128
_chemical_formula_sum   'V70 Zn70 O256'
_cell_volume   4818.60220123
_cell_formula_units_Z   2
loop_
 _symmetry_equiv_pos_site_id
 _symmetry_equiv_pos_as_xyz
  1  'x, y, z'
loop_
 _atom_site_type_symbol
 _atom_site_label
 _atom_site_symmetry_multiplicity
 _atom_site_fract_x
 _atom_site_fract_y
 _atom_site_fract_z
 _atom_site_occupancy
  V  V0  1  0.01510934  0.88190417  0.85454064  1
  V  V1  1  0.39514164  0.73249139  0.63181877  1
  V  V2  1  0.74744959  0.88708534  0.63030061  1
  V  V3  1  0.00365378  0.14007618  0.13445026  1
  V  V4  1  0.62847752  0.35952878  0.24911378  1
  V  V5  1  0.75574028  0.37235913  0.61188385  1
  V  V6  1  0.24265110  -0.00816191  0.26443255  1
  V  V7  1  0.50431880  0.10052736  0.62649138  1
  V  V8  1  0.61574181  0.62844206  0.01176839  1
  V  V9  1  0.87428820  0.74476314  0.62861798  1
  V  V10  1  0.88208593  0.74973682  0.14754179  1
  V  V11  1  0.50213242  0.88173167  0.88993460  1
  V  V12  1  0.62449874  0.51017379  0.62669827  1
  V  V13  1  0.86223789  0.11488418  0.74664229  1
  V  V14  1  0.61686160  0.87278522  0.25864172  1
  V  V15  1  0.25784044  0.64921165  0.89177601  1
  V  V16  1  0.47838556  0.24925333  0.73828736  1
  V  V17  1  0.48960426  0.14736535  0.11813755  1
  V  V18  1  0.11540710  0.39660297  0.75578793  1
  V  V19  1  0.12683916  0.74399141  0.36111219  1
  V  V20  1  0.61074404  0.50266629  0.13117428  1
  V  V21  1  0.12863900  0.12122079  0.50636697  1
  V  V22  1  0.88147118  0.87103454  0.50064026  1
  V  V23  1  0.24773341  0.89060696  0.62662457  1
  V  V24  1  0.86693077  0.51621317  0.38079505  1
  V  V25  1  0.00956895  0.86693720  0.36336057  1
  V  V26  1  0.76448173  0.74093813  -0.00312267  1
  V  V27  1  0.12043620  0.24736597  0.38015485  1
  V  V28  1  0.00818628  -0.00511712  0.51318753  1
  V  V29  1  0.63036398  0.74229181  0.86487684  1
  V  V30  1  0.27532516  0.51172989  0.77161262  1
  V  V31  1  0.75887442  0.00033517  0.24840645  1
  V  V32  1  0.24456898  0.49467810  0.24967847  1
  V  V33  1  0.39319035  0.87098054  0.48608158  1
  V  V34  1  0.11892560  0.49290697  0.11493432  1
  V  V35  1  0.37738492  0.49702460  0.37419232  1
  V  V36  1  0.13194851  0.24008298  0.87384223  1
  V  V37  1  0.62500918  0.23745367  0.87878907  1
  V  V38  1  0.88130318  0.00792483  0.36948584  1
  V  V39  1  0.60171872  -0.00431842  0.11418238  1
  V  V40  1  0.87657338  0.37700644  0.00692686  1
  V  V41  1  0.37724002  0.62364082  0.23495879  1
  V  V42  1  0.37676155  0.13083538  0.26095092  1
  V  V43  1  0.86627010  -0.00425478  0.88363557  1
  V  V44  1  0.74798315  0.74258468  0.48954297  1
  V  V45  1  0.00427391  0.62383540  0.62254562  1
  V  V46  1  0.25806852  0.25913700  0.51124482  1
  V  V47  1  0.62156336  0.89625236  0.74813818  1
  V  V48  1  0.75075109  0.51659661  0.25064999  1
  V  V49  1  0.37881929  0.76092096  0.10874227  1
  V  V50  1  0.12081185  0.00107218  0.10695985  1
  V  V51  1  0.50194274  0.36421941  0.37331179  1
  V  V52  1  -0.01076857  0.36775346  0.38412042  1
  V  V53  1  0.37472984  0.00095383  0.84735927  1
  V  V54  1  0.25355381  0.36580825  0.12295259  1
  V  V55  1  0.24517432  0.74169972  0.51094434  1
  V  V56  1  0.00894250  0.50393298  0.50256156  1
  V  V57  1  -0.00215811  0.14046057  0.62112656  1
  V  V58  1  0.49572422  0.50733140  0.49992819  1
  V  V59  1  0.25081645  0.23597309  -0.00087261  1
  V  V60  1  0.13073063  0.65156215  0.00807551  1
  V  V61  1  0.11554244  0.36605895  0.25296261  1
  V  V62  1  0.74629527  0.50322835  0.76182390  1
  V  V63  1  0.24633024  0.61933477  0.38307422  1
  V  V64  1  0.75735175  0.87508011  0.11958191  1
  V  V65  1  0.62643275  0.62724212  0.48519843  1
  V  V66  1  0.38086925  0.37941148  -0.00590311  1
  V  V67  1  0.86601714  0.62417920  0.75912692  1
  V  V68  1  -0.00215291  0.62467101  0.14002452  1
  V  V69  1  -0.00814138  0.25554376  0.75838941  1
  Zn  Zn70  1  0.23994951  0.86919867  0.13368570  1
  Zn  Zn71  1  0.24754762  0.37998812  0.63247261  1
  Zn  Zn72  1  0.49307787  0.37753033  0.86609545  1
  Zn  Zn73  1  0.50127800  0.75422795  0.25491094  1
  Zn  Zn74  1  0.25577590  0.12262315  0.38112081  1
  Zn  Zn75  1  0.61910545  0.36464385  0.74518780  1
  Zn  Zn76  1  0.18547118  0.17934449  0.19258960  1
  Zn  Zn77  1  0.17916647  0.19577377  0.68329194  1
  Zn  Zn78  1  0.19837909  0.68406275  0.18081454  1
  Zn  Zn79  1  0.20269427  0.65574178  0.69053682  1
  Zn  Zn80  1  0.74270400  0.20890761  0.20484620  1
  Zn  Zn81  1  0.66749653  0.18360004  0.67713624  1
  Zn  Zn82  1  0.68988397  0.69026263  0.18846613  1
  Zn  Zn83  1  0.69014938  0.68878400  0.67822753  1
  Zn  Zn84  1  0.30852587  0.30882456  0.31881205  1
  Zn  Zn85  1  0.30550431  0.32049364  0.81435439  1
  Zn  Zn86  1  0.31194545  0.80777828  0.31204002  1
  Zn  Zn87  1  0.31462445  0.81771172  0.80686314  1
  Zn  Zn88  1  0.80265314  0.32331699  0.33001672  1
  Zn  Zn89  1  0.77876352  0.28321886  0.76144467  1
  Zn  Zn90  1  0.81359274  0.81734109  0.31114569  1
  Zn  Zn91  1  0.81362625  0.81758769  0.81436746  1
  Zn  Zn92  1  0.18372826  0.43592247  0.43840252  1
  Zn  Zn93  1  0.18427609  0.43099362  0.93280676  1
  Zn  Zn94  1  0.19170411  0.92874722  0.44565329  1
  Zn  Zn95  1  0.19009227  0.94960711  0.92586423  1
  Zn  Zn96  1  0.68369447  0.43655235  0.43413578  1
  Zn  Zn97  1  0.63550845  0.45726287  0.92196379  1
  Zn  Zn98  1  0.70467787  0.92030966  0.42695946  1
  Zn  Zn99  1  0.68889835  0.93696966  0.93948519  1
  Zn  Zn100  1  0.30933849  0.06050996  0.08115136  1
  Zn  Zn101  1  0.33206839  0.05750821  0.54500080  1
  Zn  Zn102  1  0.33850032  0.57949115  0.03494447  1
  Zn  Zn103  1  0.32151196  0.54228715  0.58929129  1
  Zn  Zn104  1  0.83870225  0.05935260  0.07476932  1
  Zn  Zn105  1  0.82173051  0.06613185  0.55784362  1
  Zn  Zn106  1  0.80559913  0.56760522  0.07329542  1
  Zn  Zn107  1  0.81305829  0.55744074  0.56080282  1
  Zn  Zn108  1  0.43762458  0.42800516  0.19020945  1
  Zn  Zn109  1  0.42897451  0.43447637  0.68434852  1
  Zn  Zn110  1  0.42735669  0.93962845  0.19784403  1
  Zn  Zn111  1  0.43351332  0.91826138  0.67919020  1
  Zn  Zn112  1  0.93602106  0.43987315  0.19819431  1
  Zn  Zn113  1  0.93106431  0.44154641  0.68854200  1
  Zn  Zn114  1  0.94748343  0.93931082  0.18152064  1
  Zn  Zn115  1  0.93940966  0.93194762  0.69339359  1
  Zn  Zn116  1  0.06677266  0.05849415  0.31594788  1
  Zn  Zn117  1  0.05562310  0.06805287  0.81528326  1
  Zn  Zn118  1  0.06009743  0.55838028  0.31701566  1
  Zn  Zn119  1  0.06639037  0.60995968  0.81125631  1
  Zn  Zn120  1  0.58902099  0.09190456  0.26531816  1
  Zn  Zn121  1  0.55006428  0.06866623  0.81046110  1
  Zn  Zn122  1  0.55498562  0.58517649  0.31703913  1
  Zn  Zn123  1  0.54711753  0.56853591  0.81262397  1
  Zn  Zn124  1  0.43716379  0.17888288  0.44980918  1
  Zn  Zn125  1  0.43562244  0.18699494  0.92908423  1
  Zn  Zn126  1  0.43434788  0.70250137  0.42555179  1
  Zn  Zn127  1  0.44669195  0.68548165  0.91550364  1
  Zn  Zn128  1  0.90554674  0.16984402  0.26788496  1
  Zn  Zn129  1  0.93504121  0.17570659  0.93212829  1
  Zn  Zn130  1  0.94006234  0.68773553  0.43676992  1
  Zn  Zn131  1  0.94787178  0.66796727  0.93999823  1
  Zn  Zn132  1  0.04788515  0.27253501  0.04939038  1
  Zn  Zn133  1  0.06946921  0.32129985  0.56667984  1
  Zn  Zn134  1  0.05494933  0.81769354  0.06604290  1
  Zn  Zn135  1  0.06978477  0.80420913  0.56870807  1
  Zn  Zn136  1  0.56803062  0.31198231  0.06457661  1
  Zn  Zn137  1  0.54550888  0.33179115  0.57350353  1
  Zn  Zn138  1  0.56146412  0.80710991  0.07072697  1
  Zn  Zn139  1  0.56708241  0.81080194  0.56545934  1
  O  O140  1  0.11619144  0.11311657  0.12941775  1
  O  O141  1  0.11123980  0.12779611  0.61668393  1
  O  O142  1  0.12433854  0.60906379  0.12560332  1
  O  O143  1  0.10162789  0.62772041  0.62452027  1
  O  O144  1  0.59383792  0.10296287  0.14270082  1
  O  O145  1  0.60166650  0.12295495  0.60579783  1
  O  O146  1  0.62437126  0.61899183  0.12130636  1
  O  O147  1  0.63044920  0.61573688  0.60921838  1
  O  O148  1  0.38537498  0.38815066  0.36381615  1
  O  O149  1  0.37292628  0.37849347  0.89012686  1
  O  O150  1  0.39109518  0.83390020  0.38797939  1
  O  O151  1  0.39908581  0.87659544  0.86647566  1
  O  O152  1  0.88731201  0.38095194  0.37986733  1
  O  O153  1  0.87250712  0.39942765  0.90602797  1
  O  O154  1  0.89253078  0.86823657  0.38593761  1
  O  O155  1  0.88464805  0.89069106  0.86374974  1
  O  O156  1  0.24043191  0.00127829  0.36994445  1
  O  O157  1  0.27616794  -0.02164464  0.86218359  1
  O  O158  1  0.25494166  0.49912481  0.37068095  1
  O  O159  1  0.23826445  0.50940943  0.87085865  1
  O  O160  1  0.77442988  -0.01205465  0.36827592  1
  O  O161  1  0.76543819  -0.00668687  0.87663561  1
  O  O162  1  0.76106805  0.50017371  0.37354178  1
  O  O163  1  0.72786724  0.50270648  0.85903116  1
  O  O164  1  0.23405447  0.48302188  0.13542912  1
  O  O165  1  0.23692800  0.54082271  0.67388073  1
  O  O166  1  0.23330499  0.99610948  0.13731642  1
  O  O167  1  0.26416711  0.98947800  0.60861269  1
  O  O168  1  0.74744769  0.50152099  0.14646331  1
  O  O169  1  0.73647345  0.49457723  0.62287619  1
  O  O170  1  0.77064310  0.98450745  0.13219747  1
  O  O171  1  0.75658037  0.98478854  0.60996237  1
  O  O172  1  0.00701114  0.38212500  0.26929913  1
  O  O173  1  0.00149193  0.36272172  0.74373427  1
  O  O174  1  0.00179144  0.87322632  0.26574838  1
  O  O175  1  0.00189880  0.86059690  0.75501377  1
  O  O176  1  0.51143251  0.37373205  0.26239948  1
  O  O177  1  0.49512263  0.36479313  0.74316913  1
  O  O178  1  0.51350784  0.87880388  0.25048107  1
  O  O179  1  0.52193352  0.87385946  0.74740651  1
  O  O180  1  0.48141684  0.12202320  0.24753676  1
  O  O181  1  0.48949708  0.13241348  0.72968243  1
  O  O182  1  0.47405779  0.60053512  0.23472034  1
  O  O183  1  0.47115589  0.64745217  0.80730421  1
  O  O184  1  1.00540845  0.12306532  0.24789428  1
  O  O185  1  0.99796679  0.13459141  0.73577528  1
  O  O186  1  1.01007738  0.62743622  0.23967603  1
  O  O187  1  0.97371497  0.61576846  0.72918891  1
  O  O188  1  0.35354524  0.25886492  -0.00668526  1
  O  O189  1  0.35489988  0.25750755  0.49166446  1
  O  O190  1  0.39160770  0.75140699  0.01079395  1
  O  O191  1  0.36739390  0.74435877  0.50912919  1
  O  O192  1  0.87385294  0.27416268  -0.01274683  1
  O  O193  1  0.78863920  0.20688459  0.46690850  1
  O  O194  1  0.86552777  0.73487028  -0.00145606  1
  O  O195  1  0.86760748  0.75464766  0.50510167  1
  O  O196  1  0.12633346  0.24040685  0.49860138  1
  O  O197  1  0.13657985  0.26180586  0.98193795  1
  O  O198  1  0.14159513  0.74421950  0.49339431  1
  O  O199  1  0.13911051  0.74911115  1.02491870  1
  O  O200  1  0.62615416  0.25912680  0.50488946  1
  O  O201  1  0.61701778  0.25747168  0.97957416  1
  O  O202  1  0.63769472  0.73966321  0.50176259  1
  O  O203  1  0.63695306  0.73923035  1.00690153  1
  O  O204  1  0.50444273  0.24469650  0.13437729  1
  O  O205  1  0.49214249  0.25257157  0.63320774  1
  O  O206  1  0.48535465  0.75278203  0.13828754  1
  O  O207  1  0.49544401  0.74488104  0.62327255  1
  O  O208  1  1.01841747  0.24156205  0.15333669  1
  O  O209  1  1.00077522  0.24364769  0.62953023  1
  O  O210  1  0.98853803  0.74443725  0.13077678  1
  O  O211  1  0.98601291  0.73647295  0.61301494  1
  O  O212  1  0.00638131  0.26564370  0.38429663  1
  O  O213  1  0.00654687  0.24543643  0.86223152  1
  O  O214  1  0.01511995  0.75510026  0.38047182  1
  O  O215  1  0.00158221  0.77860532  0.90773690  1
  O  O216  1  0.49047747  0.26694460  0.39017522  1
  O  O217  1  0.49784130  0.25208438  0.85707439  1
  O  O218  1  0.51547824  0.69627918  0.35006153  1
  O  O219  1  0.52624835  0.76737945  0.88002530  1
  O  O220  1  0.24281758  0.13409179  0.50286553  1
  O  O221  1  0.25309975  0.13814273  1.01095432  1
  O  O222  1  0.25805890  0.62687146  0.48746677  1
  O  O223  1  0.23192522  0.61858323  1.00860364  1
  O  O224  1  0.75518449  0.13810559  0.49366373  1
  O  O225  1  0.75348818  0.14947870  1.03648396  1
  O  O226  1  0.74673969  0.63762588  0.50180073  1
  O  O227  1  0.74445616  0.63674283  1.00581496  1
  O  O228  1  0.25307702  0.37149039  0.01363060  1
  O  O229  1  0.23154795  0.36155487  0.50844573  1
  O  O230  1  0.28538672  0.90993214  0.00569667  1
  O  O231  1  0.26016379  0.85235146  0.50182540  1
  O  O232  1  0.77474191  0.37059777  0.02022997  1
  O  O233  1  0.73999318  0.37335121  0.51143062  1
  O  O234  1  0.74819508  0.85937104  0.01417859  1
  O  O235  1  0.75934863  0.86546663  0.50889436  1
  O  O236  1  0.13199024  0.48706804  0.25457355  1
  O  O237  1  0.09815043  0.49294706  0.76621636  1
  O  O238  1  0.13793854  0.99961418  0.24911404  1
  O  O239  1  0.16284711  1.03587997  0.74792179  1
  O  O240  1  0.62946125  0.51026247  0.24170007  1
  O  O241  1  0.62677637  0.51905840  0.73385139  1
  O  O242  1  0.63732716  0.98544515  0.23117688  1
  O  O243  1  0.62531234  0.99458995  0.75104175  1
  O  O244  1  0.35467315  0.01219871  0.24708122  1
  O  O245  1  0.38410655  -0.00124173  0.74737283  1
  O  O246  1  0.36015985  0.49967710  0.25077607  1
  O  O247  1  0.37385107  0.49801139  0.76879342  1
  O  O248  1  0.87626388  -0.01221516  0.26298433  1
  O  O249  1  0.87345206  0.01165370  0.74661295  1
  O  O250  1  0.86009095  0.49395227  0.26379815  1
  O  O251  1  0.85753748  0.51029368  0.75228874  1
  O  O252  1  0.11568798  0.36791642  0.37112076  1
  O  O253  1  0.12413840  0.36263580  0.85968951  1
  O  O254  1  0.11634315  0.86019809  0.38191377  1
  O  O255  1  0.11518011  0.88931220  0.86697526  1
  O  O256  1  0.61130458  0.37532086  0.36545260  1
  O  O257  1  0.61491960  0.36182516  0.86286676  1
  O  O258  1  0.62648442  0.88551755  0.35919730  1
  O  O259  1  0.62450611  0.87544893  0.86182871  1
  O  O260  1  0.38438626  0.12347728  0.13693632  1
  O  O261  1  0.42917612  0.12260025  0.55195357  1
  O  O262  1  0.36125453  0.63431002  0.13182735  1
  O  O263  1  0.38096359  0.63220009  0.62397743  1
  O  O264  1  0.89630896  0.12503797  0.14407238  1
  O  O265  1  0.89083692  0.12324401  0.63104804  1
  O  O266  1  0.89047441  0.63127798  0.12490898  1
  O  O267  1  0.87257516  0.63367457  0.62451767  1
  O  O268  1  0.23090424  0.26042772  0.11346661  1
  O  O269  1  0.25135369  0.25151175  0.61728376  1
  O  O270  1  0.26680685  0.75614087  0.12882446  1
  O  O271  1  0.25010795  0.73527033  0.61331433  1
  O  O272  1  0.72942998  0.20399388  0.08289715  1
  O  O273  1  0.73961699  0.27313858  0.64548658  1
  O  O274  1  0.76774724  0.75186077  0.11954960  1
  O  O275  1  0.75800591  0.76006444  0.61218422  1
  O  O276  1  0.23443007  0.25073731  0.39047253  1
  O  O277  1  0.24045898  0.24805643  0.88193281  1
  O  O278  1  0.24072106  0.73836839  0.38081897  1
  O  O279  1  0.26478471  0.74898605  0.88594284  1
  O  O280  1  0.75508836  0.23203692  0.40053893  1
  O  O281  1  0.72637777  0.24988858  0.85498077  1
  O  O282  1  0.75534688  0.75907020  0.39119561  1
  O  O283  1  0.74100038  0.76253279  0.89146038  1
  O  O284  1  -0.00461025  0.16152667  0.02482678  1
  O  O285  1  0.00670846  0.11489959  0.51499681  1
  O  O286  1  0.02261828  0.63491940  0.02679570  1
  O  O287  1  -0.00712762  0.61347088  0.50792948  1
  O  O288  1  0.48885664  0.13626202  0.01889908  1
  O  O289  1  0.60059333  0.19952868  0.47006005  1
  O  O290  1  0.51802481  0.62953866  -0.00097452  1
  O  O291  1  0.51723406  0.61606124  0.49111758  1
  O  O292  1  0.50672057  0.39608567  0.48466356  1
  O  O293  1  0.48011179  0.36051577  1.00615540  1
  O  O294  1  0.49299201  0.86981108  0.50450032  1
  O  O295  1  0.51291465  0.87664662  0.98848812  1
  O  O296  1  1.00496524  0.38719224  0.49230474  1
  O  O297  1  0.98289897  0.36755776  1.00426155  1
  O  O298  1  0.99461636  0.87597908  0.50208418  1
  O  O299  1  0.99186140  0.83992011  0.96629199  1
  O  O300  1  0.49357295  0.49881998  0.37995882  1
  O  O301  1  0.53018737  0.48553452  0.88488281  1
  O  O302  1  0.52388589  1.05402799  0.42991458  1
  O  O303  1  0.49597309  0.98679550  0.87153303  1
  O  O304  1  0.98994329  0.49486534  0.38496680  1
  O  O305  1  0.99327509  0.57528454  0.88849830  1
  O  O306  1  0.99670208  0.98244022  0.38412931  1
  O  O307  1  0.99253748  0.98928707  0.86222119  1
  O  O308  1  0.01275408  0.00887381  0.12182880  1
  O  O309  1  -0.00273956  -0.00042060  0.61620142  1
  O  O310  1  0.01071871  0.50961802  0.13652991  1
  O  O311  1  -0.01063089  0.50750790  0.61022789  1
  O  O312  1  0.50272284  -0.01913563  0.11444429  1
  O  O313  1  0.50127411  0.00112661  0.62960513  1
  O  O314  1  0.51196831  0.49436712  0.12770058  1
  O  O315  1  0.51064171  0.49867678  0.60801028  1
  O  O316  1  0.23936373  0.37560193  0.24386836  1
  O  O317  1  0.23784776  0.39946867  0.75589104  1
  O  O318  1  0.25475529  0.88699475  0.25591515  1
  O  O319  1  0.25669315  0.87513762  0.72568446  1
  O  O320  1  0.72761219  0.39124871  0.26724713  1
  O  O321  1  0.74156277  0.39694508  0.73918166  1
  O  O322  1  0.74596691  0.87988286  0.24083519  1
  O  O323  1  0.74596846  0.87666232  0.73544052  1
  O  O324  1  0.25449990  0.11514377  0.25838352  1
  O  O325  1  0.21622099  0.08855505  0.74198797  1
  O  O326  1  0.25230071  0.60918530  0.25725319  1
  O  O327  1  0.27140890  0.62615708  0.78839004  1
  O  O328  1  0.74306874  0.09995925  0.24224680  1
  O  O329  1  0.76540856  0.13168958  0.72981662  1
  O  O330  1  0.74855401  0.61682792  0.25481409  1
  O  O331  1  0.75634536  0.61405356  0.73891979  1
  O  O332  1  0.37483304  0.12404571  0.36829826  1
  O  O333  1  0.38431143  0.09703220  0.87984956  1
  O  O334  1  0.36285453  0.61093208  0.35976454  1
  O  O335  1  0.35363061  0.61920405  0.92511082  1
  O  O336  1  0.88688967  0.10568666  0.37160197  1
  O  O337  1  0.87950911  0.11239593  0.85627104  1
  O  O338  1  0.87947308  0.61510306  0.37239394  1
  O  O339  1  0.86469221  0.64227256  0.85583217  1
  O  O340  1  0.12341796  0.38327196  0.13779346  1
  O  O341  1  0.12889115  0.37574512  0.64884236  1
  O  O342  1  0.12142550  0.89201577  0.11920480  1
  O  O343  1  0.14692152  0.87509728  0.60984290  1
  O  O344  1  0.62294407  0.38743860  0.14112960  1
  O  O345  1  0.62764087  0.39477492  0.62734913  1
  O  O346  1  0.63631078  0.88288332  0.12971767  1
  O  O347  1  0.63937436  0.87237009  0.63376825  1
  O  O348  1  0.13237798  0.25792282  0.26675324  1
  O  O349  1  0.11442958  0.25290938  0.75952929  1
  O  O350  1  0.13531568  0.74859004  0.26271070  1
  O  O351  1  0.11979966  0.69307063  0.75797278  1
  O  O352  1  0.64298239  0.26034683  0.24111244  1
  O  O353  1  0.60352852  0.24578085  0.75201486  1
  O  O354  1  0.62908313  0.76996702  0.24114314  1
  O  O355  1  0.64061883  0.74938148  0.76360645  1
  O  O356  1  0.35890454  0.23144916  0.25253343  1
  O  O357  1  0.37755428  0.25588876  0.75172923  1
  O  O358  1  0.37441919  0.72819287  0.25129479  1
  O  O359  1  0.37367194  0.75631914  0.72834436  1
  O  O360  1  0.83549635  0.25272620  0.24880506  1
  O  O361  1  0.88804693  0.23940620  0.75488936  1
  O  O362  1  0.87255251  0.74316854  0.24566586  1
  O  O363  1  0.85998222  0.73982984  0.73642001  1
  O  O364  1  0.39074675  0.51570476  0.48727808  1
  O  O365  1  0.37402901  0.47582792  1.02034106  1
  O  O366  1  0.36899497  0.96883705  0.47867332  1
  O  O367  1  0.34051764  0.96395415  1.00757571  1
  O  O368  1  0.87995133  0.50105761  0.48583146  1
  O  O369  1  0.87685439  0.48117894  1.02207602  1
  O  O370  1  0.88592305  0.98945393  0.48910841  1
  O  O371  1  0.88103222  1.01073696  0.98287130  1
  O  O372  1  0.13478642  0.00711463  0.00756289  1
  O  O373  1  0.11722851  0.00852000  0.49296869  1
  O  O374  1  0.12169660  0.48763324  0.01578320  1
  O  O375  1  0.10886676  0.50479543  0.49409263  1
  O  O376  1  0.63717642  0.00028866  0.02014453  1
  O  O377  1  0.60014985  0.05144174  0.42979370  1
  O  O378  1  0.63858460  0.51450213  0.02151218  1
  O  O379  1  0.62102647  0.51087625  0.50446573  1
  O  O380  1  0.35539108  0.36682519  0.13063322  1
  O  O381  1  0.34559071  0.43043194  0.61143758  1
  O  O382  1  0.37106550  0.86301691  0.13250851  1
  O  O383  1  0.36592692  0.85737661  0.60692863  1
  O  O384  1  0.89051540  0.36780137  0.11251324  1
  O  O385  1  0.85536720  0.38361461  0.62482508  1
  O  O386  1  0.87518810  0.85776766  0.13188162  1
  O  O387  1  0.86888712  0.86680928  0.61838828  1
  O  O388  1  0.12074697  0.13392823  0.39014932  1
  O  O389  1  0.12162998  0.13994535  0.87456153  1
  O  O390  1  0.13230105  0.63331443  0.37126720  1
  O  O391  1  0.14008319  0.64203085  0.90236417  1
  O  O392  1  0.63853767  0.09380424  0.36957117  1
  O  O393  1  0.61180551  0.13583242  0.87374507  1
  O  O394  1  0.64353654  0.61178435  0.38909932  1
  O  O395  1  0.62947476  0.64092043  0.88805425  1
