# generated using pymatgen
data_V35Zn35O128
_symmetry_space_group_name_H-M   'P 1'
_cell_length_a   16.94310919
_cell_length_b   16.92450926
_cell_length_c   16.96312033
_cell_angle_alpha   89.83418282
_cell_angle_beta   90.33845624
_cell_angle_gamma   90.24266111
_symmetry_Int_Tables_number   1
_chemical_formula_structural   V35Zn35O128
_chemical_formula_sum   'V70 Zn70 O256'
_cell_volume   4864.09084118
_cell_formula_units_Z   2
loop_
 _symmetry_equiv_pos_site_id
 _symmetry_equiv_pos_as_xyz
  1  'x, y, z'
loop_
 _atom_site_type_symbol
 _atom_site_label
 _atom_site_symmetry_multiplicity
 _atom_site_fract_x
 _atom_site_fract_y
 _atom_site_fract_z
 _atom_site_occupancy
  V  V0  1  0.63166063  0.62696831  -0.01064440  1
  V  V1  1  0.49157706  0.50980592  0.00429767  1
  V  V2  1  0.74682168  -0.00081763  0.73656992  1
  V  V3  1  0.36669065  0.10480386  0.24979196  1
  V  V4  1  0.13492213  0.50673529  0.12414479  1
  V  V5  1  0.67845219  0.33158941  0.69249622  1
  V  V6  1  0.73689231  0.50753836  0.75150568  1
  V  V7  1  0.63244100  0.37808446  0.25037442  1
  V  V8  1  0.14888042  0.37108710  0.75433504  1
  V  V9  1  0.01382294  0.63081505  0.62798457  1
  V  V10  1  0.61705852  0.86348347  0.75483182  1
  V  V11  1  0.62478701  0.86473738  0.25955132  1
  V  V12  1  0.25235536  0.36103871  0.12226199  1
  V  V13  1  0.74580371  0.74625667  -0.00623785  1
  V  V14  1  0.12411590  0.37306361  0.25768730  1
  V  V15  1  -0.00026197  0.36085914  0.86257855  1
  V  V16  1  0.74041315  0.12667090  0.88255553  1
  V  V17  1  0.50994481  0.37158518  0.87472436  1
  V  V18  1  0.37008491  0.36139084  -0.00242746  1
  V  V19  1  0.62108021  0.24423771  0.37470124  1
  V  V20  1  0.77593461  0.62354637  0.36670995  1
  V  V21  1  0.48857749  0.25230854  0.24408519  1
  V  V22  1  0.49052633  0.86655476  0.37307812  1
  V  V23  1  0.63069034  0.00615063  0.11888528  1
  V  V24  1  0.73596931  0.25741585  0.50756122  1
  V  V25  1  0.50311921  0.13168218  0.11682998  1
  V  V26  1  0.00644732  0.12607039  0.12289276  1
  V  V27  1  0.37413887  0.73637583  0.63170596  1
  V  V28  1  0.88308358  0.87844662  0.00213213  1
  V  V29  1  -0.00642035  0.86004589  0.85946950  1
  V  V30  1  0.63204715  0.63755364  0.48061905  1
  V  V31  1  0.27520169  0.23706593  0.49104465  1
  V  V32  1  0.24567167  0.73140313  0.48915157  1
  V  V33  1  0.73547646  0.24953104  0.00036522  1
  V  V34  1  0.87212776  0.63583358  0.74096261  1
  V  V35  1  0.87960728  0.36686498  0.00110420  1
  V  V36  1  0.50451726  0.62593356  0.62786706  1
  V  V37  1  0.12414830  0.23920421  0.38992012  1
  V  V38  1  0.63077424  0.50986270  0.13230195  1
  V  V39  1  0.13437557  0.86301413  0.74594145  1
  V  V40  1  0.13360347  0.86243011  0.24800720  1
  V  V41  1  0.75458736  0.87687612  0.12902430  1
  V  V42  1  0.25051731  0.87539648  0.62657257  1
  V  V43  1  0.74596154  0.84923564  0.61743051  1
  V  V44  1  -0.00139031  0.11857250  0.61567706  1
  V  V45  1  0.37940494  0.62677619  0.23033722  1
  V  V46  1  0.00843485  0.49901696  0.50711055  1
  V  V47  1  0.49483833  -0.01285291  -0.00864138  1
  V  V48  1  0.87335401  0.00366976  0.38659914  1
  V  V49  1  0.26991985  0.38742402  0.60590964  1
  V  V50  1  0.87940452  0.74617890  0.13227266  1
  V  V51  1  0.75589909  0.37520363  0.12919071  1
  V  V52  1  0.01294836  0.87919262  0.38545011  1
  V  V53  1  0.80452303  0.18582090  0.32604080  1
  V  V54  1  0.00636941  0.50614446  -0.00517215  1
  V  V55  1  0.88191068  0.12889138  0.75417504  1
  V  V56  1  0.50069386  0.49747533  0.49333303  1
  V  V57  1  0.00169086  0.62674259  0.12380275  1
  V  V58  1  0.87412524  0.38241531  0.50187243  1
  V  V59  1  0.24582102  0.74481100  0.01612614  1
  V  V60  1  0.37439113  0.77566217  0.13061308  1
  V  V61  1  0.36546747  0.51473747  0.36371193  1
  V  V62  1  0.37533950  0.23342386  0.65565180  1
  V  V63  1  0.75372026  0.00527337  0.26023812  1
  V  V64  1  0.37262670  0.88526259  0.49910612  1
  V  V65  1  0.49357474  0.38067509  0.37085123  1
  V  V66  1  0.87754820  -0.00066659  0.87880111  1
  V  V67  1  0.88834603  0.25837205  0.63480306  1
  V  V68  1  0.86921809  0.50991207  0.87861677  1
  V  V69  1  0.87514232  0.85809368  0.50534447  1
  Zn  Zn70  1  0.12152188  0.70659308  0.37939032  1
  Zn  Zn71  1  0.13422014  0.01067855  0.61805481  1
  Zn  Zn72  1  0.63156748  0.49846744  0.61401162  1
  Zn  Zn73  1  -0.00268752  0.74505432  0.26464967  1
  Zn  Zn74  1  0.63983554  0.10347336  0.47530217  1
  Zn  Zn75  1  0.51406496  0.00393980  0.49764878  1
  Zn  Zn76  1  0.18912895  0.19389657  0.19819736  1
  Zn  Zn77  1  0.15682629  0.23280930  0.63756630  1
  Zn  Zn78  1  0.18992242  0.68066894  0.20038162  1
  Zn  Zn79  1  0.18796273  0.68754343  0.69437370  1
  Zn  Zn80  1  0.68431460  0.19373211  0.18467824  1
  Zn  Zn81  1  0.68253520  0.17088803  0.69529730  1
  Zn  Zn82  1  0.69681513  0.68954088  0.19697964  1
  Zn  Zn83  1  0.67990610  0.68012630  0.69359314  1
  Zn  Zn84  1  0.30578541  0.32024381  0.31286507  1
  Zn  Zn85  1  0.36019572  0.35444609  0.78308661  1
  Zn  Zn86  1  0.31248683  0.80163643  0.31075736  1
  Zn  Zn87  1  0.34038191  0.70084686  0.83625034  1
  Zn  Zn88  1  0.82450118  0.43490030  0.32081381  1
  Zn  Zn89  1  0.81235850  0.31380726  0.81881984  1
  Zn  Zn90  1  0.81323923  0.81233890  0.31986417  1
  Zn  Zn91  1  0.80544302  0.81499273  0.81136078  1
  Zn  Zn92  1  0.15370026  0.51408839  0.38970462  1
  Zn  Zn93  1  0.18602335  0.43311859  0.93303683  1
  Zn  Zn94  1  0.20437322  0.94143958  0.44788735  1
  Zn  Zn95  1  0.18376441  0.90282018  0.93528348  1
  Zn  Zn96  1  0.68780131  0.44345344  0.43563932  1
  Zn  Zn97  1  0.68854853  0.44201603  0.94066820  1
  Zn  Zn98  1  0.68816870  0.93261101  0.44234630  1
  Zn  Zn99  1  0.68722093  0.93546043  0.93573077  1
  Zn  Zn100  1  0.32897479  0.05729294  0.06583706  1
  Zn  Zn101  1  0.33191068  0.05660318  0.55640658  1
  Zn  Zn102  1  0.30370574  0.57538654  0.05489551  1
  Zn  Zn103  1  0.32013820  0.55817528  0.55092984  1
  Zn  Zn104  1  0.81080542  0.06195087  0.06213752  1
  Zn  Zn105  1  0.81449732  0.07272844  0.55885973  1
  Zn  Zn106  1  0.82347495  0.55731129  0.18479764  1
  Zn  Zn107  1  0.80375037  0.56835118  0.56666549  1
  Zn  Zn108  1  0.43768269  0.44062450  0.18325282  1
  Zn  Zn109  1  0.48530481  0.38602531  0.65851409  1
  Zn  Zn110  1  0.44845413  0.94251211  0.18749580  1
  Zn  Zn111  1  0.44619297  0.93584590  0.66660724  1
  Zn  Zn112  1  0.95205626  0.42907803  0.18052079  1
  Zn  Zn113  1  0.92788585  0.44511676  0.68488202  1
  Zn  Zn114  1  0.94135391  0.93788761  0.20144353  1
  Zn  Zn115  1  0.92864016  0.93721822  0.68446217  1
  Zn  Zn116  1  0.06040248  0.05936233  0.44610957  1
  Zn  Zn117  1  0.05486371  0.03706638  0.79300613  1
  Zn  Zn118  1  -0.01959297  0.56053266  0.31816360  1
  Zn  Zn119  1  0.03961990  0.53286475  0.78164001  1
  Zn  Zn120  1  0.55429628  0.05412272  0.30691269  1
  Zn  Zn121  1  0.56421036  0.05328367  0.80792225  1
  Zn  Zn122  1  0.55822148  0.57411228  0.30546914  1
  Zn  Zn123  1  0.51059101  0.60465212  0.84064365  1
  Zn  Zn124  1  0.44078349  0.17539312  0.42337324  1
  Zn  Zn125  1  0.44647590  0.19099564  0.93774080  1
  Zn  Zn126  1  0.44039082  0.69215698  0.43757911  1
  Zn  Zn127  1  0.44879384  0.70602924  0.99359677  1
  Zn  Zn128  1  0.93915358  0.21051358  0.44482161  1
  Zn  Zn129  1  0.93906496  0.18373574  0.94037169  1
  Zn  Zn130  1  0.94558658  0.68587931  0.44804650  1
  Zn  Zn131  1  0.93126347  0.68783149  0.94452036  1
  Zn  Zn132  1  0.07253060  0.31426742  0.05217188  1
  Zn  Zn133  1  0.10356830  0.36435465  0.52887937  1
  Zn  Zn134  1  0.06439375  0.81734195  0.06220420  1
  Zn  Zn135  1  0.06641690  0.80468347  0.55711595  1
  Zn  Zn136  1  0.56150850  0.32190579  0.06234989  1
  Zn  Zn137  1  0.53678503  0.20668718  0.56579509  1
  Zn  Zn138  1  0.56796301  0.81663360  0.06951950  1
  Zn  Zn139  1  0.56281395  0.81101537  0.55991185  1
  O  O140  1  0.10950228  0.12554574  0.13028117  1
  O  O141  1  0.10205548  0.12919980  0.63308144  1
  O  O142  1  0.11930755  0.61464653  0.12765709  1
  O  O143  1  0.11251197  0.62019302  0.64170871  1
  O  O144  1  0.61511964  0.11643889  0.13523032  1
  O  O145  1  0.58405517  0.12641958  0.65455332  1
  O  O146  1  0.63849760  0.61074517  0.13214801  1
  O  O147  1  0.61545592  0.62163187  0.61265557  1
  O  O148  1  0.38960387  0.39124895  0.35785103  1
  O  O149  1  0.38240685  0.38373220  0.89676544  1
  O  O150  1  0.38647780  0.86538451  0.37608769  1
  O  O151  1  0.35070328  0.97507959  0.81132642  1
  O  O152  1  0.87231093  0.36760871  0.40294254  1
  O  O153  1  0.88112315  0.38063643  0.88550496  1
  O  O154  1  0.87686842  0.88215543  0.39116170  1
  O  O155  1  0.87650360  0.87952740  0.88206343  1
  O  O156  1  0.18383487  0.01430374  0.31529969  1
  O  O157  1  0.20217108  0.01784204  0.87419104  1
  O  O158  1  0.26835425  0.50161934  0.37686657  1
  O  O159  1  0.24098248  0.53612846  0.87984851  1
  O  O160  1  0.75509698  0.00057927  0.36852938  1
  O  O161  1  0.75852310  0.01078314  0.87252942  1
  O  O162  1  0.75430146  0.51009258  0.37200960  1
  O  O163  1  0.76431942  0.49435948  0.87028520  1
  O  O164  1  0.23585967  0.50142629  0.11024684  1
  O  O165  1  0.26645705  0.48760530  0.61739305  1
  O  O166  1  0.22877443  0.99344234  0.08213345  1
  O  O167  1  0.25737198  0.97656745  0.62228170  1
  O  O168  1  0.74241288  0.48735878  0.12773866  1
  O  O169  1  0.74458122  0.50161445  0.64494156  1
  O  O170  1  0.75122971  0.99642562  0.13651399  1
  O  O171  1  0.75543785  1.01023750  0.63807584  1
  O  O172  1  0.02712550  0.36214160  0.23012493  1
  O  O173  1  -0.01942047  0.37482253  0.76525015  1
  O  O174  1  0.00942175  0.87587664  0.27217005  1
  O  O175  1  -0.01840289  0.86654187  0.75822824  1
  O  O176  1  0.51117327  0.37035786  0.24898570  1
  O  O177  1  0.47935971  0.39137095  0.77648370  1
  O  O178  1  0.51693995  0.88058325  0.25887798  1
  O  O179  1  0.52000128  0.88984821  0.73463532  1
  O  O180  1  0.49205918  0.13246440  0.24079627  1
  O  O181  1  0.52703365  0.10823177  0.71134520  1
  O  O182  1  0.48289313  0.62973276  0.24550432  1
  O  O183  1  0.50700162  0.61327372  0.72588879  1
  O  O184  1  0.99476247  0.13675737  0.22456954  1
  O  O185  1  0.98513798  0.11954597  0.74730435  1
  O  O186  1  0.99556496  0.63162064  0.22746603  1
  O  O187  1  0.98417262  0.62136015  0.73964936  1
  O  O188  1  0.37911711  0.26342031  0.00309826  1
  O  O189  1  0.37586378  0.24845139  0.48674276  1
  O  O190  1  0.35068992  0.76729618  0.01779265  1
  O  O191  1  0.36494191  0.75804672  0.50203251  1
  O  O192  1  0.87172910  0.26432322  -0.00298307  1
  O  O193  1  0.86147358  0.25817905  0.52277855  1
  O  O194  1  0.86235557  0.75935986  0.01042396  1
  O  O195  1  0.87342840  0.76004891  0.50126826  1
  O  O196  1  0.14846740  0.26189600  0.49921214  1
  O  O197  1  0.11371412  0.22146084  1.01058799  1
  O  O198  1  0.14009973  0.74286824  0.49433950  1
  O  O199  1  0.16056859  0.80834976  1.00301663  1
  O  O200  1  0.62328840  0.25355477  0.48755365  1
  O  O201  1  0.63742969  0.25663701  0.99937549  1
  O  O202  1  0.62455641  0.73537777  0.49935880  1
  O  O203  1  0.63619139  0.73886108  1.01551960  1
  O  O204  1  0.51306185  0.23900260  0.13016774  1
  O  O205  1  0.47422730  0.27001266  0.63024746  1
  O  O206  1  0.47470070  0.75766456  0.09957641  1
  O  O207  1  0.48977030  0.73541712  0.61651512  1
  O  O208  1  1.00304116  0.23067595  0.11504143  1
  O  O209  1  0.98643871  0.24319705  0.62954599  1
  O  O210  1  0.99298625  0.74226016  0.11311712  1
  O  O211  1  1.00117631  0.73055414  0.61557689  1
  O  O212  1  0.02623299  0.26582740  0.39751705  1
  O  O213  1  -0.00747202  0.26192624  0.87798903  1
  O  O214  1  0.00346225  0.76434488  0.38235369  1
  O  O215  1  -0.00868498  0.76258329  0.88137100  1
  O  O216  1  0.50550770  0.26174338  0.36242186  1
  O  O217  1  0.50041496  0.27006450  0.88163382  1
  O  O218  1  0.50642528  0.76640161  0.37517051  1
  O  O219  1  0.43629793  0.67766811  0.88697462  1
  O  O220  1  0.26485871  0.13725882  0.50247864  1
  O  O221  1  0.29620700  0.12240538  0.96521370  1
  O  O222  1  0.25415564  0.63159767  0.49714474  1
  O  O223  1  0.23452012  0.64726260  0.99519969  1
  O  O224  1  0.73896748  0.14834820  0.51837532  1
  O  O225  1  0.75449249  0.13761652  0.99421786  1
  O  O226  1  0.73934471  0.61849995  0.48593711  1
  O  O227  1  0.74271712  0.64106149  0.99982390  1
  O  O228  1  0.26172570  0.38035951  0.00321419  1
  O  O229  1  0.27506506  0.36956751  0.50885177  1
  O  O230  1  0.28234094  0.85230065  -0.10256800  1
  O  O231  1  0.25306724  0.85196888  0.51714604  1
  O  O232  1  0.75931110  0.36573474  0.00309833  1
  O  O233  1  0.75164239  0.36452102  0.50294909  1
  O  O234  1  0.75401417  0.86914223  0.01456748  1
  O  O235  1  0.75844982  0.86778416  0.51038460  1
  O  O236  1  0.12574289  0.48547941  0.22307663  1
  O  O237  1  0.11372360  0.46714774  0.73710398  1
  O  O238  1  0.13763989  0.98924530  0.26236539  1
  O  O239  1  0.11049183  0.97063940  0.72321574  1
  O  O240  1  0.61905951  0.49148577  0.23861262  1
  O  O241  1  0.64056178  0.51058934  0.76250383  1
  O  O242  1  0.63793528  0.99372626  0.24264491  1
  O  O243  1  0.64548730  0.99249557  0.74982930  1
  O  O244  1  0.37474569  0.00467812  0.24558229  1
  O  O245  1  0.38406037  0.01091097  0.75630053  1
  O  O246  1  0.38081227  0.51126438  0.25403442  1
  O  O247  1  0.35228397  0.51333137  0.74804282  1
  O  O248  1  0.86395402  -0.00531224  0.26718817  1
  O  O249  1  0.86308955  0.00739494  0.75883752  1
  O  O250  1  0.89525192  0.49460710  0.25248069  1
  O  O251  1  0.86760694  0.50886785  0.76345562  1
  O  O252  1  0.12964968  0.39976075  0.35396426  1
  O  O253  1  0.10840795  0.37572572  0.86660417  1
  O  O254  1  0.11526993  0.88250189  0.38170123  1
  O  O255  1  0.10265639  0.88180368  0.85406114  1
  O  O256  1  0.61956316  0.37014471  0.36421055  1
  O  O257  1  0.60988087  0.38404897  0.88368814  1
  O  O258  1  0.63339199  0.86990255  0.36094881  1
  O  O259  1  0.63352075  0.87928768  0.85405293  1
  O  O260  1  0.39687276  0.12065945  0.13177304  1
  O  O261  1  0.37729623  0.13591339  0.63212595  1
  O  O262  1  0.37461379  0.63168078  0.12685849  1
  O  O263  1  0.39031371  0.63008847  0.61173667  1
  O  O264  1  0.90041958  0.12173733  0.11226056  1
  O  O265  1  0.87913424  0.13784042  0.63428546  1
  O  O266  1  0.88129499  0.63768802  0.12140233  1
  O  O267  1  0.87078737  0.62859330  0.63890301  1
  O  O268  1  0.24440193  0.26235856  0.11891152  1
  O  O269  1  0.27243786  0.25277790  0.61074908  1
  O  O270  1  0.25498215  0.74821221  0.12272691  1
  O  O271  1  0.26231077  0.73882989  0.61837969  1
  O  O272  1  0.74830012  0.25985879  0.11145171  1
  O  O273  1  0.72929065  0.26218834  0.62808007  1
  O  O274  1  0.76109597  0.76122660  0.12456257  1
  O  O275  1  0.75136654  0.75206677  0.62838919  1
  O  O276  1  0.24586625  0.25878125  0.38855739  1
  O  O277  1  0.20961569  0.21324826  0.86765252  1
  O  O278  1  0.24738682  0.74591937  0.38700488  1
  O  O279  1  0.26483603  0.77203132  0.89657787  1
  O  O280  1  0.73903467  0.24493540  0.38739498  1
  O  O281  1  0.75573112  0.23754097  0.88760671  1
  O  O282  1  0.76061275  0.72538143  0.36998583  1
  O  O283  1  0.74837959  0.76229275  0.89644936  1
  O  O284  1  0.00609042  0.11808437  0.01616946  1
  O  O285  1  -0.00916520  0.12930299  0.51252539  1
  O  O286  1  -0.00320927  0.61550165  0.00632637  1
  O  O287  1  -0.00084420  0.61116147  0.51632554  1
  O  O288  1  0.50089051  0.12185989  0.01426356  1
  O  O289  1  0.51635691  0.12462209  0.49102613  1
  O  O290  1  0.52290600  0.61533638  0.01573845  1
  O  O291  1  0.51341699  0.61792595  0.49787997  1
  O  O292  1  0.50677604  0.39312619  0.48224311  1
  O  O293  1  0.48922151  0.38768462  0.99999955  1
  O  O294  1  0.48988202  0.86978487  0.48866714  1
  O  O295  1  0.52054139  0.88959511  0.99406417  1
  O  O296  1  0.98312311  0.38602724  0.52328102  1
  O  O297  1  0.99119789  0.37914276  0.99489631  1
  O  O298  1  0.98755623  0.87130988  0.49644375  1
  O  O299  1  0.98695097  0.87399799  0.99180137  1
  O  O300  1  0.50109308  0.49632402  0.37487832  1
  O  O301  1  0.50665829  0.50089373  0.90179016  1
  O  O302  1  0.51110614  0.97771673  0.37970082  1
  O  O303  1  0.50495518  1.01760770  0.89424034  1
  O  O304  1  0.97809885  0.49526663  0.41151181  1
  O  O305  1  0.98996958  0.49070184  0.87846442  1
  O  O306  1  0.98829057  0.98777841  0.38418830  1
  O  O307  1  0.98186438  0.98700307  0.86906363  1
  O  O308  1  0.00509063  0.02124006  0.13393014  1
  O  O309  1  -0.01416220  0.01818218  0.62472079  1
  O  O310  1  0.00857460  0.50762744  0.11159424  1
  O  O311  1  -0.01059895  0.51345831  0.61925500  1
  O  O312  1  0.51380358  0.00806276  0.11558250  1
  O  O313  1  0.42399882  -0.01837425  0.56638631  1
  O  O314  1  0.52263331  0.48898327  0.11369813  1
  O  O315  1  0.49672714  0.50563494  0.60288368  1
  O  O316  1  0.24304734  0.37454345  0.22892878  1
  O  O317  1  0.24651807  0.37481487  0.77997974  1
  O  O318  1  0.23258381  0.86727435  0.26116592  1
  O  O319  1  0.23939179  0.86361835  0.73717962  1
  O  O320  1  0.74319013  0.37483067  0.24257319  1
  O  O321  1  0.74620816  0.38562009  0.75374450  1
  O  O322  1  0.74627800  0.88317427  0.24530495  1
  O  O323  1  0.75215976  0.88413372  0.73353345  1
  O  O324  1  0.27010964  0.12293439  0.22220378  1
  O  O325  1  0.22953987  0.17650818  0.80932845  1
  O  O326  1  0.27550270  0.62917629  0.25161708  1
  O  O327  1  0.24369345  0.64256887  0.79042847  1
  O  O328  1  0.75351384  0.12491418  0.25385303  1
  O  O329  1  0.75801626  0.11576202  0.76223256  1
  O  O330  1  0.76052802  0.61911963  0.25880251  1
  O  O331  1  0.75873102  0.61568152  0.75308101  1
  O  O332  1  0.37364342  0.12681219  0.34832241  1
  O  O333  1  0.34762538  0.12390253  0.90938401  1
  O  O334  1  0.38214858  0.61706900  0.36619556  1
  O  O335  1  0.37622977  0.54243105  0.81043595  1
  O  O336  1  0.87230835  0.12786280  0.38337311  1
  O  O337  1  0.87060096  0.11842751  0.87211713  1
  O  O338  1  0.87848955  0.62140964  0.37676655  1
  O  O339  1  0.87976632  0.61268862  0.87113826  1
  O  O340  1  0.13960027  0.38190097  0.11646500  1
  O  O341  1  0.16590562  0.36380120  0.63294034  1
  O  O342  1  0.11204206  0.87391063  0.15159713  1
  O  O343  1  0.14154657  0.86092189  0.62647513  1
  O  O344  1  0.63760750  0.38069288  0.13095886  1
  O  O345  1  0.60555462  0.38730390  0.64484656  1
  O  O346  1  0.63814705  0.88524727  0.13529065  1
  O  O347  1  0.64222652  0.86763696  0.62868969  1
  O  O348  1  0.14017393  0.26232109  0.27658157  1
  O  O349  1  0.11759889  0.27451581  0.73938907  1
  O  O350  1  0.11936312  0.75333702  0.26185050  1
  O  O351  1  0.11605937  0.76434105  0.74559000  1
  O  O352  1  0.61960802  0.26151008  0.25550989  1
  O  O353  1  0.63394756  0.26642965  0.75184034  1
  O  O354  1  0.62825783  0.76720575  0.23911328  1
  O  O355  1  0.62490720  0.76254796  0.74863327  1
  O  O356  1  0.38867309  0.25865907  0.24772775  1
  O  O357  1  0.36833041  0.23757334  0.75535483  1
  O  O358  1  0.37627706  0.74528285  0.23411788  1
  O  O359  1  0.37198840  0.73832866  0.73042534  1
  O  O360  1  0.85490075  0.25090192  0.27761054  1
  O  O361  1  0.86155806  0.24088851  0.74115241  1
  O  O362  1  0.88250560  0.76527699  0.23525218  1
  O  O363  1  0.86449074  0.73299902  0.76115961  1
  O  O364  1  0.39465875  0.50863894  0.47706250  1
  O  O365  1  0.39144248  0.51488766  1.01015773  1
  O  O366  1  0.31914627  0.96915535  0.46287403  1
  O  O367  1  0.39525937  0.98676303  1.00650974  1
  O  O368  1  0.86106687  0.48128688  0.51812417  1
  O  O369  1  0.88540820  0.48972908  0.98432333  1
  O  O370  1  0.86346078  0.99716752  0.49020466  1
  O  O371  1  0.86398213  0.98861579  0.99107241  1
  O  O372  1  0.17996876  -0.00578183  0.02319275  1
  O  O373  1  0.12960159  -0.00218673  0.50742642  1
  O  O374  1  0.11214218  0.49176781  0.00397898  1
  O  O375  1  0.11015355  0.48041705  0.49988538  1
  O  O376  1  0.63394246  0.00000081  0.01578009  1
  O  O377  1  0.62886060  -0.00244894  0.50994388  1
  O  O378  1  0.63347413  0.51477337  0.01262792  1
  O  O379  1  0.61567897  0.51064077  0.49611556  1
  O  O380  1  0.36145026  0.38480085  0.11310477  1
  O  O381  1  0.36413032  0.36642234  0.65665210  1
  O  O382  1  0.36908005  0.87402105  0.13979618  1
  O  O383  1  0.36499130  0.85432460  0.61997840  1
  O  O384  1  0.86967176  0.38323274  0.10855488  1
  O  O385  1  0.87012088  0.36059074  0.62998103  1
  O  O386  1  0.87283780  0.87566442  0.12065102  1
  O  O387  1  0.86221100  0.87791204  0.61181614  1
  O  O388  1  0.11985903  0.14041558  0.38801106  1
  O  O389  1  0.14020321  0.06073690  0.87815094  1
  O  O390  1  0.09069540  0.60038646  0.35647706  1
  O  O391  1  0.20335714  0.57148894  0.82198630  1
  O  O392  1  0.61865864  0.14084900  0.36233212  1
  O  O393  1  0.64303663  0.12122581  0.87062051  1
  O  O394  1  0.62955261  0.62672392  0.37842582  1
  O  O395  1  0.61901374  0.62867737  0.89211486  1
