# generated using pymatgen
data_V35Zn35O128
_symmetry_space_group_name_H-M   'P 1'
_cell_length_a   16.86553474
_cell_length_b   16.85266493
_cell_length_c   16.84553881
_cell_angle_alpha   90.06656233
_cell_angle_beta   90.01865276
_cell_angle_gamma   90.13956810
_symmetry_Int_Tables_number   1
_chemical_formula_structural   V35Zn35O128
_chemical_formula_sum   'V70 Zn70 O256'
_cell_volume   4787.97642634
_cell_formula_units_Z   2
loop_
 _symmetry_equiv_pos_site_id
 _symmetry_equiv_pos_as_xyz
  1  'x, y, z'
loop_
 _atom_site_type_symbol
 _atom_site_label
 _atom_site_symmetry_multiplicity
 _atom_site_fract_x
 _atom_site_fract_y
 _atom_site_fract_z
 _atom_site_occupancy
  V  V0  1  0.23889583  0.62556661  0.87073741  1
  V  V1  1  -0.00631364  0.73449015  0.73962971  1
  V  V2  1  0.63128025  -0.00712074  0.62431382  1
  V  V3  1  0.62493496  0.62601518  0.50398604  1
  V  V4  1  0.37915169  -0.00077992  0.87693970  1
  V  V5  1  0.64070974  0.87793306  0.24436098  1
  V  V6  1  0.12396044  0.11412600  0.01183822  1
  V  V7  1  0.88593922  0.24972537  0.13842405  1
  V  V8  1  -0.00766263  0.74181524  0.25990847  1
  V  V9  1  0.37099490  0.62894119  0.75142053  1
  V  V10  1  0.24020664  0.75329641  -0.00345643  1
  V  V11  1  0.87519698  0.10068915  0.24848803  1
  V  V12  1  0.25165253  0.12960448  0.87126623  1
  V  V13  1  0.36702952  0.85547275  0.50615750  1
  V  V14  1  0.11127065  0.37383006  0.75812977  1
  V  V15  1  0.76632692  0.75088869  0.51041678  1
  V  V16  1  0.80684449  0.29648758  0.55607949  1
  V  V17  1  0.75081889  0.10193680  0.38171388  1
  V  V18  1  0.62454448  0.49051702  0.63699583  1
  V  V19  1  0.77261403  0.62365842  0.88061949  1
  V  V20  1  0.11804982  0.24850580  0.87726941  1
  V  V21  1  0.86323637  0.87653888  -0.00593195  1
  V  V22  1  0.23650216  0.85788554  0.62249788  1
  V  V23  1  0.50924218  0.24969783  0.23473575  1
  V  V24  1  0.49398017  0.63318681  0.62466360  1
  V  V25  1  -0.00311042  -0.00791123  0.01411501  1
  V  V26  1  0.38201641  0.50592205  0.88390492  1
  V  V27  1  0.75563033  0.61944906  0.37228958  1
  V  V28  1  -0.01407536  0.23217254  0.74245692  1
  V  V29  1  0.36881593  0.60892156  0.25458756  1
  V  V30  1  0.38760171  0.12585565  0.23667925  1
  V  V31  1  0.62862638  0.23514893  0.38672206  1
  V  V32  1  0.37692291  0.00463458  0.38405979  1
  V  V33  1  0.38367945  0.37982263  0.00612330  1
  V  V34  1  0.37884748  0.38218180  0.48768117  1
  V  V35  1  0.76477953  0.11082870  0.86982162  1
  V  V36  1  0.36678208  0.75360428  0.12400728  1
  V  V37  1  0.25280149  0.37303442  0.64358865  1
  V  V38  1  0.50941298  0.88280718  0.87849861  1
  V  V39  1  0.50161916  0.11151319  0.60272441  1
  V  V40  1  0.01438466  0.88092096  0.85838588  1
  V  V41  1  0.50596232  0.76030177  0.74561565  1
  V  V42  1  0.24230294  0.26610749  0.48302406  1
  V  V43  1  0.23774740  -0.00762415  0.74360630  1
  V  V44  1  0.86802553  0.61385562  0.23750177  1
  V  V45  1  0.51136225  0.37439030  0.36756695  1
  V  V46  1  0.50958689  0.62577158  0.10507424  1
  V  V47  1  0.86928706  0.48460975  0.38369723  1
  V  V48  1  0.07784605  0.05834207  0.53545551  1
  V  V49  1  0.62467016  0.25571027  0.86224913  1
  V  V50  1  0.61165322  0.12431394  -0.00254227  1
  V  V51  1  0.38193799  0.12649005  0.74208398  1
  V  V52  1  0.75735716  0.25463098  0.01051963  1
  V  V53  1  0.49783678  0.75026593  0.24785057  1
  V  V54  1  0.62343978  0.01060620  0.12293272  1
  V  V55  1  0.49887700  0.50184333  0.48846395  1
  V  V56  1  0.75468824  0.87814416  0.64266718  1
  V  V57  1  0.63258757  0.74311243  0.88590640  1
  V  V58  1  0.24501433  0.13547211  0.37311865  1
  V  V59  1  0.49815517  0.87986623  0.38271391  1
  V  V60  1  0.11602972  0.85136356  0.26109446  1
  V  V61  1  -0.01624284  0.60060876  0.61942424  1
  V  V62  1  0.24009078  -0.00183832  0.24688591  1
  V  V63  1  0.88271970  0.90183486  0.49431186  1
  V  V64  1  0.86717214  0.76457350  0.12221985  1
  V  V65  1  0.62615429  0.75218349  0.37737285  1
  V  V66  1  0.38679513  0.25011691  0.61827287  1
  V  V67  1  0.25805761  0.25867025  0.00865738  1
  V  V68  1  0.11795152  0.61374149  0.02329055  1
  V  V69  1  0.63538682  0.48439076  0.11883689  1
  Zn  Zn70  1  0.11706715  0.49174575  0.62771700  1
  Zn  Zn71  1  0.37775006  0.88254466  0.00299545  1
  Zn  Zn72  1  0.75393493  0.49947767  0.75929694  1
  Zn  Zn73  1  0.52050563  0.38745259  0.86200958  1
  Zn  Zn74  1  -0.01604041  0.36794263  0.38491695  1
  Zn  Zn75  1  0.24144664  0.88776062  0.12060123  1
  Zn  Zn76  1  0.19763926  0.18395947  0.18642372  1
  Zn  Zn77  1  0.18002349  0.17850580  0.68654488  1
  Zn  Zn78  1  0.19651371  0.65191443  0.33230565  1
  Zn  Zn79  1  0.16651317  0.68727362  0.68719942  1
  Zn  Zn80  1  0.69316307  0.18410237  0.19480066  1
  Zn  Zn81  1  0.70218173  0.17769285  0.68298628  1
  Zn  Zn82  1  0.68769802  0.69033905  0.18361954  1
  Zn  Zn83  1  0.69462818  0.68720827  0.69771828  1
  Zn  Zn84  1  0.32931999  0.31409273  0.30373449  1
  Zn  Zn85  1  0.36586512  0.32952556  0.79444468  1
  Zn  Zn86  1  0.30903616  0.81098024  0.31682770  1
  Zn  Zn87  1  0.31332629  0.81255191  0.80906603  1
  Zn  Zn88  1  0.80702207  0.29212406  0.31264558  1
  Zn  Zn89  1  0.79689969  0.30584353  0.80628865  1
  Zn  Zn90  1  0.82208432  0.81205537  0.32218277  1
  Zn  Zn91  1  0.82308149  0.80888767  0.81688384  1
  Zn  Zn92  1  0.19016508  0.46859893  0.41735096  1
  Zn  Zn93  1  0.19273275  0.44044109  0.93740562  1
  Zn  Zn94  1  0.17155710  0.94067844  0.44049848  1
  Zn  Zn95  1  0.18851260  0.93751938  0.93231642  1
  Zn  Zn96  1  0.68796657  0.43008971  0.43842340  1
  Zn  Zn97  1  0.69420585  0.44308740  0.94469714  1
  Zn  Zn98  1  0.68600600  0.93858454  0.44927733  1
  Zn  Zn99  1  0.68298357  0.94066586  0.93986951  1
  Zn  Zn100  1  0.31262689  0.06674295  0.06093845  1
  Zn  Zn101  1  0.28771247  0.06322908  0.55495397  1
  Zn  Zn102  1  0.30748475  0.56692705  0.07213761  1
  Zn  Zn103  1  0.31684455  0.55127797  0.57966277  1
  Zn  Zn104  1  0.80224003  0.06363640  0.06705127  1
  Zn  Zn105  1  0.82579495  0.08333181  0.57184814  1
  Zn  Zn106  1  0.80985903  0.56199438  0.05338110  1
  Zn  Zn107  1  0.81107019  0.55261669  0.56686702  1
  Zn  Zn108  1  0.45369216  0.44043910  0.18136814  1
  Zn  Zn109  1  0.44451324  0.44557667  0.68651111  1
  Zn  Zn110  1  0.44122980  0.93945464  0.18924668  1
  Zn  Zn111  1  0.42939712  0.93973811  0.68590167  1
  Zn  Zn112  1  0.79501622  0.42346626  0.19115926  1
  Zn  Zn113  1  0.91516762  0.41848948  0.69202495  1
  Zn  Zn114  1  0.94323390  0.93674355  0.19056871  1
  Zn  Zn115  1  0.94515038  0.96075882  0.66881937  1
  Zn  Zn116  1  0.05578738  0.05778831  0.33621071  1
  Zn  Zn117  1  0.05487945  0.05613395  0.82154940  1
  Zn  Zn118  1  0.04420399  0.55103966  0.30710547  1
  Zn  Zn119  1  0.06156577  0.56159167  0.80737971  1
  Zn  Zn120  1  0.56562236  0.05804993  0.31111828  1
  Zn  Zn121  1  0.57056245  0.06620422  0.80540561  1
  Zn  Zn122  1  0.56824372  0.56304877  0.30104287  1
  Zn  Zn123  1  0.56309091  0.57091956  0.81471344  1
  Zn  Zn124  1  0.43611597  0.19277997  0.43004551  1
  Zn  Zn125  1  0.43892371  0.19286646  0.93116413  1
  Zn  Zn126  1  0.43344857  0.68596594  0.43205448  1
  Zn  Zn127  1  0.43459457  0.69900682  0.93202672  1
  Zn  Zn128  1  0.93645544  0.18588076  0.41908934  1
  Zn  Zn129  1  0.93647945  0.18053009  0.94679552  1
  Zn  Zn130  1  0.97360060  0.69822330  0.45913204  1
  Zn  Zn131  1  0.95153726  0.69942886  0.93617150  1
  Zn  Zn132  1  0.06350562  0.30662658  0.06826233  1
  Zn  Zn133  1  0.05323035  0.22573843  0.55060657  1
  Zn  Zn134  1  0.05795616  0.80932175  0.07755881  1
  Zn  Zn135  1  0.05613245  0.79797144  0.56332055  1
  Zn  Zn136  1  0.56478587  0.31437029  0.04995675  1
  Zn  Zn137  1  0.59905956  0.28614777  0.58857467  1
  Zn  Zn138  1  0.56194885  0.81565507  0.06292562  1
  Zn  Zn139  1  0.56539194  0.81988903  0.56238351  1
  O  O140  1  0.13013519  0.13224404  0.11006136  1
  O  O141  1  0.12592891  0.14002998  0.59749529  1
  O  O142  1  0.12178460  0.61531306  0.12040935  1
  O  O143  1  0.10410032  0.60482009  0.64014982  1
  O  O144  1  0.62418660  0.11701965  0.11779063  1
  O  O145  1  0.60669733  0.11763168  0.62311473  1
  O  O146  1  0.60917320  0.64798488  0.11519958  1
  O  O147  1  0.61489775  0.62461711  0.61741751  1
  O  O148  1  0.39310373  0.37494415  0.37933170  1
  O  O149  1  0.36075283  0.40012191  0.88477060  1
  O  O150  1  0.37870932  0.88092353  0.38533103  1
  O  O151  1  0.38341164  0.88426945  0.87360457  1
  O  O152  1  0.86141393  0.38310990  0.36602656  1
  O  O153  1  0.93692433  0.46726073  0.86351379  1
  O  O154  1  0.87057153  0.88269499  0.39389825  1
  O  O155  1  0.88552255  0.87565242  0.89256983  1
  O  O156  1  0.25901425  0.01782824  0.36335369  1
  O  O157  1  0.25738801  0.00793901  0.86482269  1
  O  O158  1  0.24826032  0.58229478  0.44947782  1
  O  O159  1  0.25986773  0.52147859  0.87800804  1
  O  O160  1  0.73642740  0.00189707  0.37028267  1
  O  O161  1  0.74697495  0.01088140  0.88037427  1
  O  O162  1  0.74468207  0.51491974  0.37770311  1
  O  O163  1  0.75543032  0.51540376  0.88013816  1
  O  O164  1  0.23482806  0.49372819  0.11484829  1
  O  O165  1  0.24041024  0.47464957  0.61468346  1
  O  O166  1  0.25495630  1.00509008  0.14110075  1
  O  O167  1  0.25926905  0.99196702  0.64257658  1
  O  O168  1  0.74565898  0.49077260  0.11470011  1
  O  O169  1  0.72673949  0.50363860  0.62797958  1
  O  O170  1  0.72395576  0.99002407  0.11409244  1
  O  O171  1  0.73822611  0.99062790  0.62490238  1
  O  O172  1  0.00968570  0.40396523  0.21970280  1
  O  O173  1  0.01109507  0.35744526  0.75649754  1
  O  O174  1  0.01038826  0.86467340  0.25521113  1
  O  O175  1  -0.00721085  0.90841319  0.76217168  1
  O  O176  1  0.49434573  0.36097387  0.25607084  1
  O  O177  1  0.46957670  0.36828478  0.76166175  1
  O  O178  1  0.50600921  0.86419458  0.26190002  1
  O  O179  1  0.49179149  0.86414721  0.75382039  1
  O  O180  1  0.49403682  0.13166584  0.25150786  1
  O  O181  1  0.48425975  0.12139153  0.74009614  1
  O  O182  1  0.49671271  0.64085187  0.24232947  1
  O  O183  1  0.49424329  0.63664209  0.74128430  1
  O  O184  1  0.97840032  0.10207476  0.26876079  1
  O  O185  1  1.00480312  0.13307669  0.75774653  1
  O  O186  1  0.97785023  0.62941370  0.25533126  1
  O  O187  1  0.99083439  0.63336892  0.75928144  1
  O  O188  1  0.36553854  0.26491100  -0.01416249  1
  O  O189  1  0.37323465  0.26673477  0.50073374  1
  O  O190  1  0.36654448  0.75432528  0.01030368  1
  O  O191  1  0.37134687  0.75574881  0.49808373  1
  O  O192  1  0.86419947  0.23810474  0.01604011  1
  O  O193  1  0.86591133  0.25147205  0.48568276  1
  O  O194  1  0.88653894  0.76618738  0.01302204  1
  O  O195  1  0.86366101  0.73844125  0.50245837  1
  O  O196  1  0.14438612  0.27170766  0.49051246  1
  O  O197  1  0.13673778  0.24727494  0.99325312  1
  O  O198  1  0.08164567  0.73098381  0.47488406  1
  O  O199  1  0.13894986  0.74484437  1.01353151  1
  O  O200  1  0.60871762  0.24065601  0.48408664  1
  O  O201  1  0.63520521  0.23894175  0.99637359  1
  O  O202  1  0.62746640  0.74329132  0.49337138  1
  O  O203  1  0.62777258  0.76587548  0.98353218  1
  O  O204  1  0.50867408  0.25391691  0.13583237  1
  O  O205  1  0.49066412  0.23833390  0.61669693  1
  O  O206  1  0.48910311  0.74996441  0.12972557  1
  O  O207  1  0.50673632  0.74629695  0.63539758  1
  O  O208  1  0.98574575  0.24331605  0.11985107  1
  O  O209  1  0.99191922  0.24826905  0.64287979  1
  O  O210  1  0.98155821  0.75128615  0.14438799  1
  O  O211  1  0.99361987  0.71789475  0.62878482  1
  O  O212  1  0.01223288  0.26449322  0.38473541  1
  O  O213  1  0.01703449  0.24581604  0.88505014  1
  O  O214  1  -0.03317117  0.74976442  0.35732118  1
  O  O215  1  -0.00240914  0.77327294  0.85892904  1
  O  O216  1  0.50773381  0.25639617  0.36458474  1
  O  O217  1  0.52042386  0.25139319  0.87545657  1
  O  O218  1  0.50788948  0.75620052  0.36943362  1
  O  O219  1  0.50848261  0.76289507  0.86589672  1
  O  O220  1  0.26179907  0.15312327  0.48076298  1
  O  O221  1  0.24410529  0.13225386  0.99158502  1
  O  O222  1  0.23555551  0.61686349  0.51789666  1
  O  O223  1  0.24182441  0.63696861  0.99281786  1
  O  O224  1  0.75466066  0.11016537  0.48275231  1
  O  O225  1  0.73937488  0.13179576  0.99214226  1
  O  O226  1  0.74198233  0.63310201  0.49670865  1
  O  O227  1  0.75719511  0.63181552  0.98284880  1
  O  O228  1  0.25577309  0.36376913  0.00024464  1
  O  O229  1  0.26252757  0.37812291  0.47487323  1
  O  O230  1  0.24981380  0.86510970  0.00223959  1
  O  O231  1  0.26017919  0.87303659  0.50950557  1
  O  O232  1  0.75237675  0.35397003  -0.00518336  1
  O  O233  1  0.74720067  0.36142799  0.50204566  1
  O  O234  1  0.76428854  0.87744713  -0.00708184  1
  O  O235  1  0.75988528  0.86009424  0.50326243  1
  O  O236  1  0.04342001  0.46848027  0.20428293  1
  O  O237  1  0.12315987  0.47525098  0.76111114  1
  O  O238  1  0.13971215  1.00267673  0.25748784  1
  O  O239  1  0.14013154  1.00733341  0.75441719  1
  O  O240  1  0.63098124  0.52172254  0.21960065  1
  O  O241  1  0.61610482  0.50171898  0.74007569  1
  O  O242  1  0.62286905  0.98557035  0.23939953  1
  O  O243  1  0.61087410  0.99821340  0.72638391  1
  O  O244  1  0.37346439  0.00991259  0.25822054  1
  O  O245  1  0.36586165  0.00768844  0.75904126  1
  O  O246  1  0.38427477  0.50982684  0.24053708  1
  O  O247  1  0.37687760  0.52059437  0.76059230  1
  O  O248  1  0.86259037  0.00002840  0.23847720  1
  O  O249  1  0.88637538  0.05772311  0.66351394  1
  O  O250  1  0.86097587  0.51242012  0.25481320  1
  O  O251  1  0.91484181  0.49965036  0.79575005  1
  O  O252  1  0.18513708  0.39505672  0.31544889  1
  O  O253  1  0.13932589  0.35723060  0.86725863  1
  O  O254  1  0.14117943  0.87135777  0.35733667  1
  O  O255  1  0.11575627  0.87920296  0.86851515  1
  O  O256  1  0.61570187  0.36044109  0.37786159  1
  O  O257  1  0.63341796  0.36280843  0.87794116  1
  O  O258  1  0.61748856  0.86729999  0.37336744  1
  O  O259  1  0.61265135  0.87477111  0.87159467  1
  O  O260  1  0.38109415  0.11796353  0.13726256  1
  O  O261  1  0.37802894  0.13021537  0.62211960  1
  O  O262  1  0.38611214  0.63735058  0.13055694  1
  O  O263  1  0.38495972  0.62402579  0.63345670  1
  O  O264  1  0.86568366  0.12798356  0.14027391  1
  O  O265  1  0.79891870  0.19161732  0.61370853  1
  O  O266  1  0.86806425  0.62486351  0.13626111  1
  O  O267  1  0.88141750  0.59955889  0.64131819  1
  O  O268  1  0.26106097  0.24317302  0.10697249  1
  O  O269  1  0.25989493  0.26605911  0.60229269  1
  O  O270  1  0.26402259  0.74747740  0.11510990  1
  O  O271  1  0.24571321  0.75877798  0.63509758  1
  O  O272  1  0.75034309  0.24453881  0.11504775  1
  O  O273  1  0.71029998  0.27736285  0.62318678  1
  O  O274  1  0.76808954  0.74579089  0.12493097  1
  O  O275  1  0.74312446  0.75865396  0.61632490  1
  O  O276  1  0.26004435  0.24811911  0.37224223  1
  O  O277  1  0.24498753  0.23559084  0.88115138  1
  O  O278  1  0.24260668  0.74282973  0.37243179  1
  O  O279  1  0.25738110  0.74425153  0.89026578  1
  O  O280  1  0.73132700  0.23666972  0.37989882  1
  O  O281  1  0.74279067  0.23978321  0.88484053  1
  O  O282  1  0.74438468  0.74109271  0.39026391  1
  O  O283  1  0.73810949  0.74252248  0.86414067  1
  O  O284  1  0.01598997  0.10889837  -0.00257145  1
  O  O285  1  0.00840544  0.13214860  0.49657293  1
  O  O286  1  0.02095446  0.63488383  -0.00397054  1
  O  O287  1  -0.01521008  0.60092027  0.51752637  1
  O  O288  1  0.51186061  0.13449765  -0.00087538  1
  O  O289  1  0.49066884  0.12197543  0.50405338  1
  O  O290  1  0.49287883  0.63558158  0.00700411  1
  O  O291  1  0.50559699  0.62357474  0.50351455  1
  O  O292  1  0.49500327  0.38777011  0.48816389  1
  O  O293  1  0.48473353  0.37044187  0.98334807  1
  O  O294  1  0.48613981  0.86645002  0.49025816  1
  O  O295  1  0.49674888  0.87265095  0.98162446  1
  O  O296  1  1.04841127  0.39750572  0.49567976  1
  O  O297  1  0.99930624  0.39234718  1.01513552  1
  O  O298  1  0.97531497  0.86874228  0.51911450  1
  O  O299  1  1.00396352  0.88257320  0.99875387  1
  O  O300  1  0.51601583  0.49382897  0.38034819  1
  O  O301  1  0.48579633  0.50602897  0.87515404  1
  O  O302  1  0.49170786  0.98777155  0.36845318  1
  O  O303  1  0.49409697  0.98926486  0.86342575  1
  O  O304  1  0.97579524  0.48350891  0.36991306  1
  O  O305  1  1.00504966  0.49535964  0.89146737  1
  O  O306  1  1.06525216  1.00386045  0.43523833  1
  O  O307  1  1.00408989  0.98870220  0.89724103  1
  O  O308  1  0.01232440  -0.00921013  0.11372668  1
  O  O309  1  0.03484239  -0.00020178  0.60374614  1
  O  O310  1  -0.03701314  0.45329699  0.05319598  1
  O  O311  1  -0.00406200  0.49336611  0.64331719  1
  O  O312  1  0.52310846  -0.02269882  0.11992111  1
  O  O313  1  0.49359741  0.00927310  0.61935824  1
  O  O314  1  0.51115331  0.52144669  0.12105213  1
  O  O315  1  0.50557017  0.51558017  0.61454659  1
  O  O316  1  0.24726959  0.39708422  0.27037193  1
  O  O317  1  0.26411708  0.36908803  0.74258699  1
  O  O318  1  0.25218670  0.89185721  0.25112674  1
  O  O319  1  0.25217797  0.88228863  0.73931878  1
  O  O320  1  0.73568010  0.36500820  0.26398494  1
  O  O321  1  0.80899008  0.40142339  0.75086184  1
  O  O322  1  0.73732858  0.86563646  0.26243641  1
  O  O323  1  0.75608922  0.87079394  0.74109059  1
  O  O324  1  0.26561704  0.12314782  0.25513872  1
  O  O325  1  0.25573001  0.11592859  0.75301320  1
  O  O326  1  0.26976466  0.62229055  0.24339083  1
  O  O327  1  0.25661666  0.64335515  0.76361692  1
  O  O328  1  0.75781863  0.12209589  0.26369294  1
  O  O329  1  0.74780057  0.12268891  0.76990722  1
  O  O330  1  0.75705139  0.63762730  0.26516055  1
  O  O331  1  0.74389519  0.61636886  0.76861232  1
  O  O332  1  0.37276267  0.11971355  0.36423409  1
  O  O333  1  0.37051462  0.12227383  0.86438617  1
  O  O334  1  0.38345412  0.62179787  0.35580579  1
  O  O335  1  0.36889979  0.62162248  0.87290789  1
  O  O336  1  0.85949669  0.11756710  0.36419007  1
  O  O337  1  0.86507626  0.11993573  0.88377254  1
  O  O338  1  0.86009391  0.61380625  0.37248377  1
  O  O339  1  0.87175944  0.63940761  0.87693203  1
  O  O340  1  0.13779462  0.33483556  0.16237775  1
  O  O341  1  0.14173882  0.36269538  0.65175059  1
  O  O342  1  0.13401745  0.85888811  0.15374603  1
  O  O343  1  0.13859106  0.86825321  0.60782076  1
  O  O344  1  0.61295981  0.38587942  0.12561438  1
  O  O345  1  0.60316056  0.39404615  0.62244838  1
  O  O346  1  0.63018880  0.86043142  0.14441577  1
  O  O347  1  0.63867281  0.87980105  0.62523137  1
  O  O348  1  0.13469896  0.28185295  0.21833671  1
  O  O349  1  0.12107511  0.24789026  0.76479719  1
  O  O350  1  0.10256229  0.74304534  0.26578286  1
  O  O351  1  0.09447857  0.76388077  0.73597779  1
  O  O352  1  0.61140963  0.23983374  0.25910346  1
  O  O353  1  0.63467396  0.24300792  0.76412488  1
  O  O354  1  0.61982829  0.75534093  0.26233114  1
  O  O355  1  0.60999861  0.74796840  0.75974894  1
  O  O356  1  0.38901975  0.23560446  0.24770163  1
  O  O357  1  0.36091826  0.23577791  0.72862449  1
  O  O358  1  0.38110925  0.75069246  0.23933939  1
  O  O359  1  0.39162252  0.73963649  0.76058537  1
  O  O360  1  0.87744341  0.23233526  0.24439797  1
  O  O361  1  0.89151827  0.24948794  0.77157406  1
  O  O362  1  0.87386273  0.74347805  0.24046837  1
  O  O363  1  0.89669126  0.77148164  0.74082676  1
  O  O364  1  0.38851481  0.49569036  0.50360094  1
  O  O365  1  0.37138893  0.49670591  0.99245772  1
  O  O366  1  0.36417254  0.99912481  0.48541007  1
  O  O367  1  0.36835594  1.00270786  0.98225784  1
  O  O368  1  0.85950084  0.49271811  0.48261986  1
  O  O369  1  0.89533942  0.47298138  1.01899301  1
  O  O370  1  0.87966609  1.00195293  0.50319277  1
  O  O371  1  0.88743782  0.98755930  1.01523618  1
  O  O372  1  0.13049595  0.01055892  0.00336637  1
  O  O373  1  0.18099632  0.02211850  0.51894370  1
  O  O374  1  0.13182188  0.51336278  -0.00230076  1
  O  O375  1  0.10208009  0.45372520  0.50266162  1
  O  O376  1  0.62002266  0.01584765  0.00456166  1
  O  O377  1  0.61435703  -0.00986411  0.51978005  1
  O  O378  1  0.62621652  0.50269743  0.01605220  1
  O  O379  1  0.61711780  0.51155513  0.50623250  1
  O  O380  1  0.38434112  0.38357603  0.10589732  1
  O  O381  1  0.36785008  0.37224712  0.61310755  1
  O  O382  1  0.37224098  0.86527022  0.12441990  1
  O  O383  1  0.37117957  0.87378189  0.60958050  1
  O  O384  1  0.86998124  0.35068186  0.14152569  1
  O  O385  1  0.87030297  0.35695525  0.60631805  1
  O  O386  1  0.87268684  0.86888198  0.12068512  1
  O  O387  1  0.85580347  0.88906980  0.61632025  1
  O  O388  1  0.14733191  0.13569774  0.36022123  1
  O  O389  1  0.13348450  0.13268425  0.88479118  1
  O  O390  1  0.14558375  0.55295040  0.34855052  1
  O  O391  1  0.13866442  0.62507758  0.87000666  1
  O  O392  1  0.63119230  0.12728269  0.37236829  1
  O  O393  1  0.62712405  0.13080968  0.88503701  1
  O  O394  1  0.63124774  0.63373433  0.38235291  1
  O  O395  1  0.61815096  0.64215868  0.88398319  1
