# generated using pymatgen
data_V35Zn35O128
_symmetry_space_group_name_H-M   'P 1'
_cell_length_a   16.89330139
_cell_length_b   16.82893055
_cell_length_c   16.86205285
_cell_angle_alpha   89.79555901
_cell_angle_beta   89.98694625
_cell_angle_gamma   89.93741686
_symmetry_Int_Tables_number   1
_chemical_formula_structural   V35Zn35O128
_chemical_formula_sum   'V70 Zn70 O256'
_cell_volume   4793.78398211
_cell_formula_units_Z   2
loop_
 _symmetry_equiv_pos_site_id
 _symmetry_equiv_pos_as_xyz
  1  'x, y, z'
loop_
 _atom_site_type_symbol
 _atom_site_label
 _atom_site_symmetry_multiplicity
 _atom_site_fract_x
 _atom_site_fract_y
 _atom_site_fract_z
 _atom_site_occupancy
  V  V0  1  0.25941856  0.59870533  0.38259169  1
  V  V1  1  0.86628078  0.86188527  0.48962258  1
  V  V2  1  0.38904440  0.87787986  0.49672627  1
  V  V3  1  0.75459763  0.75429710  -0.00020552  1
  V  V4  1  0.62818958  0.13158481  0.51858443  1
  V  V5  1  0.51245138  0.76082457  0.26578568  1
  V  V6  1  0.62396616  0.87940096  0.74725294  1
  V  V7  1  0.75541498  0.85654299  0.62123820  1
  V  V8  1  0.62578955  0.13726188  -0.00556566  1
  V  V9  1  0.22463990  0.77297086  0.02218879  1
  V  V10  1  0.49362681  0.49969515  0.00117344  1
  V  V11  1  0.36662120  0.37217857  -0.01296331  1
  V  V12  1  0.37815081  0.74451723  0.62918862  1
  V  V13  1  0.11394547  0.74346828  0.86721016  1
  V  V14  1  -0.02039554  0.64299400  0.63201341  1
  V  V15  1  0.35836809  0.12175947  0.76299643  1
  V  V16  1  0.22956666  0.50174136  0.21787907  1
  V  V17  1  0.38274348  0.76183142  0.13221440  1
  V  V18  1  0.63824596  0.61351582  0.00439739  1
  V  V19  1  0.24629395  0.86619197  0.62689317  1
  V  V20  1  0.50035185  0.48877761  0.49580928  1
  V  V21  1  0.87538873  0.75477259  0.12934765  1
  V  V22  1  0.49528981  0.75024750  0.75295111  1
  V  V23  1  0.25177454  0.74674106  0.48731675  1
  V  V24  1  0.11166137  0.09668610  -0.01434819  1
  V  V25  1  0.24260502  0.36159255  0.64041726  1
  V  V26  1  0.09911502  0.86942821  0.73773688  1
  V  V27  1  0.38134473  0.61066517  0.25035501  1
  V  V28  1  -0.01121156  0.26016460  0.76091663  1
  V  V29  1  0.50082124  0.37208363  0.35299179  1
  V  V30  1  0.36631888  0.01926038  0.36998675  1
  V  V31  1  0.75851041  0.12061137  0.37028801  1
  V  V32  1  0.75753247  0.27143119  0.50219174  1
  V  V33  1  0.24471959  0.23200140  -0.02162025  1
  V  V34  1  0.11977133  0.62642161  0.03028901  1
  V  V35  1  0.50805892  0.01103003  0.51369708  1
  V  V36  1  0.62650298  0.74803056  0.87655084  1
  V  V37  1  -0.02989371  0.23914193  0.23940757  1
  V  V38  1  -0.00271576  0.48579943  0.49544253  1
  V  V39  1  0.86219803  0.36229297  0.00961921  1
  V  V40  1  0.72985559  0.48871305  0.24122074  1
  V  V41  1  0.51233697  -0.00876309  -0.01435821  1
  V  V42  1  0.00730998  0.49218638  0.03522004  1
  V  V43  1  0.76073176  0.00317380  0.74032487  1
  V  V44  1  0.86921053  0.49997364  0.87109770  1
  V  V45  1  0.38703073  0.87160364  -0.01499194  1
  V  V46  1  0.52041527  0.37578546  0.86691454  1
  V  V47  1  -0.00697129  0.87608626  0.89516606  1
  V  V48  1  0.00447850  0.36162891  0.35897719  1
  V  V49  1  0.25746663  0.62864193  0.87023835  1
  V  V50  1  0.62612762  0.63582519  0.49856993  1
  V  V51  1  -0.01731279  0.13099886  0.62303128  1
  V  V52  1  0.00313284  0.74391275  0.25813704  1
  V  V53  1  0.87448858  -0.00288632  0.88801733  1
  V  V54  1  0.01179983  0.86894010  0.37267929  1
  V  V55  1  0.74220701  0.63448284  0.37692806  1
  V  V56  1  0.12022428  0.51188948  0.64060662  1
  V  V57  1  0.75369490  0.13383402  0.87917720  1
  V  V58  1  -0.00725371  0.00424994  0.48958639  1
  V  V59  1  0.39952648  0.24602807  0.62137492  1
  V  V60  1  0.12662644  0.00676127  0.61898309  1
  V  V61  1  0.87159783  0.61532494  0.24886035  1
  V  V62  1  0.73422134  0.88072182  0.13596853  1
  V  V63  1  0.37230083  0.24631473  0.12957591  1
  V  V64  1  0.62167596  0.25297341  0.36471657  1
  V  V65  1  0.51959222  0.23659908  0.75927438  1
  V  V66  1  0.11706924  0.62514079  0.48717207  1
  V  V67  1  0.73878900  0.37677195  0.65700447  1
  V  V68  1  0.50496758  0.61439266  0.62856139  1
  V  V69  1  0.50092418  0.11941250  0.13441139  1
  Zn  Zn70  1  0.50668221  0.61622482  0.13399556  1
  Zn  Zn71  1  0.86128446  0.48435882  0.38045663  1
  Zn  Zn72  1  0.34431681  0.35547092  0.47929793  1
  Zn  Zn73  1  0.00212347  0.11144254  0.12128347  1
  Zn  Zn74  1  0.76655852  0.00421009  0.24908586  1
  Zn  Zn75  1  0.20617429  0.93711764  0.16971966  1
  Zn  Zn76  1  0.21108961  0.13501392  0.14890356  1
  Zn  Zn77  1  0.17595493  0.19065594  0.70173726  1
  Zn  Zn78  1  0.19375461  0.77058057  0.19907016  1
  Zn  Zn79  1  0.19678545  0.66425015  0.67188092  1
  Zn  Zn80  1  0.67606601  0.17854602  0.18862214  1
  Zn  Zn81  1  0.70913484  0.19336630  0.69296131  1
  Zn  Zn82  1  0.68637848  0.68452672  0.18667026  1
  Zn  Zn83  1  0.68501958  0.68512559  0.68964905  1
  Zn  Zn84  1  0.30370172  0.32343818  0.30982259  1
  Zn  Zn85  1  0.32384397  0.31172517  0.80669435  1
  Zn  Zn86  1  0.32229581  0.82263344  0.31060727  1
  Zn  Zn87  1  0.29559826  0.83278313  0.82436325  1
  Zn  Zn88  1  0.81259208  0.31290710  0.31728578  1
  Zn  Zn89  1  0.83250048  0.31741900  0.82237570  1
  Zn  Zn90  1  0.80998477  0.81242538  0.31193127  1
  Zn  Zn91  1  0.80978889  0.81588006  0.81549537  1
  Zn  Zn92  1  0.19018087  0.41425907  0.44865147  1
  Zn  Zn93  1  0.18667602  0.45228343  0.94506675  1
  Zn  Zn94  1  0.18937315  0.93609155  0.43965853  1
  Zn  Zn95  1  0.19174152  0.94854910  0.91686511  1
  Zn  Zn96  1  0.67579114  0.44874252  0.43025311  1
  Zn  Zn97  1  0.69798881  0.43805386  0.93072440  1
  Zn  Zn98  1  0.69034564  0.94569311  0.44061491  1
  Zn  Zn99  1  0.69040158  0.93453108  0.93638617  1
  Zn  Zn100  1  0.32115929  0.05444163  0.04983428  1
  Zn  Zn101  1  0.33326800  0.04084457  0.60591055  1
  Zn  Zn102  1  0.31089641  0.58240562  0.05703986  1
  Zn  Zn103  1  0.32292477  0.52276160  0.58880849  1
  Zn  Zn104  1  0.80658277  0.05617256  0.06240035  1
  Zn  Zn105  1  0.81093024  0.05838640  0.55289573  1
  Zn  Zn106  1  0.81998975  0.55357620  0.06559543  1
  Zn  Zn107  1  0.80968391  0.55051835  0.56016694  1
  Zn  Zn108  1  0.43627634  0.42760656  0.17363541  1
  Zn  Zn109  1  0.43274053  0.42713224  0.69918288  1
  Zn  Zn110  1  0.44430493  0.94461268  0.18998515  1
  Zn  Zn111  1  0.43873748  0.93602052  0.69295383  1
  Zn  Zn112  1  0.92897929  0.42567409  0.19026519  1
  Zn  Zn113  1  0.91757469  0.44977857  0.67252075  1
  Zn  Zn114  1  0.94125497  0.93009245  0.18135333  1
  Zn  Zn115  1  0.93065033  0.94245209  0.67478259  1
  Zn  Zn116  1  0.05165680  0.04950600  0.29599664  1
  Zn  Zn117  1  0.05435360  0.06165277  0.80216524  1
  Zn  Zn118  1  0.06365138  0.55715341  0.31089536  1
  Zn  Zn119  1  0.02822596  0.57326266  0.81542316  1
  Zn  Zn120  1  0.55305632  0.06636861  0.33312756  1
  Zn  Zn121  1  0.56868327  0.05964928  0.81279604  1
  Zn  Zn122  1  0.56145735  0.56173971  0.31614973  1
  Zn  Zn123  1  0.55531441  0.57128861  0.82353874  1
  Zn  Zn124  1  0.44045118  0.18647314  0.43563708  1
  Zn  Zn125  1  0.43900211  0.18496626  0.93255867  1
  Zn  Zn126  1  0.43735219  0.68411105  0.43842061  1
  Zn  Zn127  1  0.44268836  0.69027762  0.94006870  1
  Zn  Zn128  1  0.93870172  0.19803653  0.44225121  1
  Zn  Zn129  1  0.94477021  0.18661356  0.93251501  1
  Zn  Zn130  1  0.92546171  0.68366646  0.43565589  1
  Zn  Zn131  1  0.94227983  0.67938939  0.94845028  1
  Zn  Zn132  1  0.06337396  0.29057097  0.06092168  1
  Zn  Zn133  1  0.04889180  0.32560591  0.61959906  1
  Zn  Zn134  1  0.05639257  0.81764068  0.07005876  1
  Zn  Zn135  1  0.06094171  0.80679355  0.55030282  1
  Zn  Zn136  1  0.55389145  0.30578954  0.05741234  1
  Zn  Zn137  1  0.57697913  0.31972926  0.57415128  1
  Zn  Zn138  1  0.56250094  0.80536024  0.06908477  1
  Zn  Zn139  1  0.56703863  0.81165908  0.56617372  1
  O  O140  1  0.11481545  0.13853729  0.08955272  1
  O  O141  1  0.12525002  0.10714308  0.62432983  1
  O  O142  1  0.13158324  0.64217731  0.12457705  1
  O  O143  1  0.10040145  0.62734140  0.60854176  1
  O  O144  1  0.61457464  0.12841997  0.10652178  1
  O  O145  1  0.64308226  0.12917882  0.61631906  1
  O  O146  1  0.61920242  0.63036965  0.10721507  1
  O  O147  1  0.61489637  0.63189472  0.61348798  1
  O  O148  1  0.40085952  0.36509176  0.37584326  1
  O  O149  1  0.39077215  0.37270605  0.88450025  1
  O  O150  1  0.37609496  0.88154678  0.39607038  1
  O  O151  1  0.39296848  0.84961131  0.88847718  1
  O  O152  1  0.89531218  0.37348505  0.37448250  1
  O  O153  1  0.88372648  0.39229834  0.89474983  1
  O  O154  1  0.87107754  0.87751095  0.38614028  1
  O  O155  1  0.88605174  0.87771733  0.87205396  1
  O  O156  1  0.26689811  -0.00197951  0.38844508  1
  O  O157  1  0.26906492  -0.05552633  0.84266170  1
  O  O158  1  0.25657587  0.50103502  0.39145951  1
  O  O159  1  0.24040387  0.52916140  0.88043598  1
  O  O160  1  0.75482199  0.01518812  0.37495321  1
  O  O161  1  0.76345738  -0.00726612  0.86544648  1
  O  O162  1  0.74735206  0.51059049  0.36248124  1
  O  O163  1  0.77126892  0.51705706  0.88907452  1
  O  O164  1  0.24929983  0.50874305  0.11874821  1
  O  O165  1  0.21815745  0.54677916  0.63582992  1
  O  O166  1  0.25699475  1.03149869  0.13942963  1
  O  O167  1  0.23131337  0.98418526  0.61380305  1
  O  O168  1  0.75231940  0.50450887  0.14257675  1
  O  O169  1  0.70127648  0.52733615  0.70001425  1
  O  O170  1  0.74105209  0.98432097  0.12434945  1
  O  O171  1  0.75367361  0.99850170  0.63807621  1
  O  O172  1  0.00101889  0.35575184  0.25188998  1
  O  O173  1  -0.02334963  0.35767418  0.70954531  1
  O  O174  1  -0.01121045  0.86104646  0.26565851  1
  O  O175  1  -0.00089166  0.86758621  0.73510160  1
  O  O176  1  0.50274524  0.37670781  0.25394201  1
  O  O177  1  0.50245832  0.36511398  0.76133450  1
  O  O178  1  0.49747622  0.85994047  0.24697403  1
  O  O179  1  0.51760616  0.86889638  0.74388601  1
  O  O180  1  0.51566974  0.11321379  0.23365951  1
  O  O181  1  0.50114109  0.13375456  0.75844845  1
  O  O182  1  0.49007097  0.63214720  0.25642017  1
  O  O183  1  0.50818253  0.63339335  0.73731982  1
  O  O184  1  1.00604926  0.14030315  0.24828741  1
  O  O185  1  0.99837902  0.13626225  0.72815118  1
  O  O186  1  0.98105024  0.63381721  0.26775915  1
  O  O187  1  0.98893664  0.64194392  0.73122782  1
  O  O188  1  0.36795358  0.25726800  -0.00568377  1
  O  O189  1  0.39698364  0.25587738  0.51697765  1
  O  O190  1  0.39120720  0.75960338  0.01827570  1
  O  O191  1  0.37541241  0.76196454  0.50818100  1
  O  O192  1  0.88692692  0.26415632  -0.00594451  1
  O  O193  1  0.85516189  0.25364927  0.49812325  1
  O  O194  1  0.86466005  0.73606162  0.01662345  1
  O  O195  1  0.86723583  0.76229370  0.49517011  1
  O  O196  1  0.17138091  0.21843381  0.45080535  1
  O  O197  1  0.14881307  0.26456851  0.99241614  1
  O  O198  1  0.13708990  0.73372012  0.49824873  1
  O  O199  1  0.11498900  0.74095284  0.99423375  1
  O  O200  1  0.63529876  0.24311766  0.50356573  1
  O  O201  1  0.62038917  0.23601670  0.98901495  1
  O  O202  1  0.62193106  0.73719565  0.49777185  1
  O  O203  1  0.63529435  0.74387044  0.99542135  1
  O  O204  1  0.48995345  0.23503459  0.11955642  1
  O  O205  1  0.50320175  0.25461013  0.64187798  1
  O  O206  1  0.49247035  0.74195933  0.13712737  1
  O  O207  1  0.49681785  0.74648209  0.63478369  1
  O  O208  1  0.99351469  0.24478302  0.13776715  1
  O  O209  1  1.00425572  0.22295164  0.58363319  1
  O  O210  1  0.98478122  0.75783300  0.14199478  1
  O  O211  1  0.98900981  0.74119848  0.60583359  1
  O  O212  1  -0.00406931  0.25284280  0.35864783  1
  O  O213  1  0.00365746  0.25735271  0.86066506  1
  O  O214  1  -0.00945052  0.75874772  0.36892763  1
  O  O215  1  0.00330641  0.76402615  0.88679272  1
  O  O216  1  0.51327165  0.25746334  0.37839506  1
  O  O217  1  0.50496441  0.25976220  0.86700481  1
  O  O218  1  0.49500454  0.74944469  0.36580615  1
  O  O219  1  0.51356294  0.74256627  0.86406305  1
  O  O220  1  0.20514730  0.15629164  0.46699450  1
  O  O221  1  0.23751323  0.12644988  0.98587782  1
  O  O222  1  0.24647053  0.62705323  0.48831309  1
  O  O223  1  0.23120671  0.64573358  0.99433202  1
  O  O224  1  0.73929507  0.12683790  0.49122965  1
  O  O225  1  0.73958902  0.12004928  0.99239951  1
  O  O226  1  0.73764381  0.61432611  0.49043959  1
  O  O227  1  0.74267111  0.63342266  1.01109525  1
  O  O228  1  0.26555713  0.37845487  -0.01259714  1
  O  O229  1  0.26927388  0.41727550  0.54522392  1
  O  O230  1  0.27310583  0.86463011  -0.00471299  1
  O  O231  1  0.25448200  0.86287351  0.50899183  1
  O  O232  1  0.76207081  0.36976588  -0.00502446  1
  O  O233  1  0.74560848  0.37023680  0.48851812  1
  O  O234  1  0.74646081  0.85973862  0.01360333  1
  O  O235  1  0.75468641  0.88170103  0.51042447  1
  O  O236  1  0.13061039  0.50252163  0.23860043  1
  O  O237  1  0.09746861  0.51751774  0.73725904  1
  O  O238  1  0.09475032  0.98268495  0.20830235  1
  O  O239  1  0.11008505  0.98216837  0.72943698  1
  O  O240  1  0.62962060  0.50273719  0.24678192  1
  O  O241  1  0.67107278  0.56199346  0.76004765  1
  O  O242  1  0.61764071  0.96742024  0.29541707  1
  O  O243  1  0.63865194  0.98324925  0.75732471  1
  O  O244  1  0.38307299  -0.00231017  0.27260549  1
  O  O245  1  0.37261492  0.02341621  0.72076829  1
  O  O246  1  0.39248745  0.51205315  0.24071752  1
  O  O247  1  0.36163142  0.50837368  0.69625356  1
  O  O248  1  0.88077419  0.02580982  0.21045673  1
  O  O249  1  0.86358774  -0.00506159  0.75454322  1
  O  O250  1  0.87374005  0.51051515  0.25347180  1
  O  O251  1  0.88005007  0.49190095  0.77154051  1
  O  O252  1  0.10025595  0.36988291  0.38953442  1
  O  O253  1  0.09291463  0.41717720  0.87344621  1
  O  O254  1  0.11056237  0.86868259  0.38120489  1
  O  O255  1  0.10062195  0.87577707  0.85780255  1
  O  O256  1  0.61403730  0.36178171  0.38112424  1
  O  O257  1  0.61985781  0.37695269  0.87320866  1
  O  O258  1  0.62254250  0.90966870  0.34765528  1
  O  O259  1  0.63944286  0.86017062  0.85939245  1
  O  O260  1  0.39200314  0.13358731  0.11326573  1
  O  O261  1  0.36126383  0.14912114  0.62811517  1
  O  O262  1  0.38259628  0.63062935  0.13783126  1
  O  O263  1  0.39377545  0.63948845  0.61557184  1
  O  O264  1  0.88557160  0.08251800  0.14366853  1
  O  O265  1  0.88323228  0.12220234  0.61593014  1
  O  O266  1  0.86807843  0.63408516  0.14317194  1
  O  O267  1  0.88153258  0.62190096  0.61168455  1
  O  O268  1  0.26951696  0.23061770  0.10136653  1
  O  O269  1  0.22801595  0.26432228  0.62092464  1
  O  O270  1  0.27476230  0.73754180  0.11755171  1
  O  O271  1  0.26018875  0.74568094  0.61168189  1
  O  O272  1  0.70969161  0.28649954  0.12816552  1
  O  O273  1  0.75096400  0.27294849  0.61805928  1
  O  O274  1  0.75728548  0.75700574  0.12338228  1
  O  O275  1  0.75010928  0.75759930  0.62332215  1
  O  O276  1  0.25452591  0.32126621  0.41069871  1
  O  O277  1  0.25978237  0.25062137  0.88060297  1
  O  O278  1  0.26400075  0.74567655  0.38637848  1
  O  O279  1  0.22122965  0.75851397  0.89088893  1
  O  O280  1  0.73808934  0.24606789  0.38672078  1
  O  O281  1  0.75984921  0.23109434  0.87013547  1
  O  O282  1  0.74711887  0.73438398  0.36976641  1
  O  O283  1  0.74973308  0.75187679  0.89437791  1
  O  O284  1  0.00396131  0.11122844  -0.00306727  1
  O  O285  1  -0.00452676  0.10633562  0.48943273  1
  O  O286  1  0.01351465  0.61627799  0.01647846  1
  O  O287  1  0.01337912  0.62265635  0.47897242  1
  O  O288  1  0.51381846  0.11282422  -0.00744011  1
  O  O289  1  0.51547341  0.12292852  0.50994305  1
  O  O290  1  0.50810340  0.60847783  -0.00511517  1
  O  O291  1  0.50973358  0.62162367  0.50775525  1
  O  O292  1  0.50618312  0.38773331  0.51247833  1
  O  O293  1  0.50231487  0.38265484  0.98732522  1
  O  O294  1  0.49361319  0.88269731  0.50775879  1
  O  O295  1  0.49894471  0.88158079  1.00663948  1
  O  O296  1  1.00322882  0.38746775  0.51580780  1
  O  O297  1  1.01565823  0.39004725  1.02335098  1
  O  O298  1  0.98674676  0.87494275  0.48638861  1
  O  O299  1  0.99939968  0.88314005  0.99376863  1
  O  O300  1  0.50855707  0.48128520  0.38386733  1
  O  O301  1  0.50578197  0.48699830  0.88097960  1
  O  O302  1  0.47992166  1.01078716  0.40352693  1
  O  O303  1  0.50616877  0.99338892  0.88529301  1
  O  O304  1  1.00250238  0.48533827  0.38219182  1
  O  O305  1  1.03584234  0.46824353  0.88456739  1
  O  O306  1  1.00433455  0.98575454  0.38029416  1
  O  O307  1  0.98283421  0.98690903  0.86413153  1
  O  O308  1  0.03662444  -0.01357908  0.14411058  1
  O  O309  1  0.00372253  0.01116924  0.61144371  1
  O  O310  1  -0.00236562  0.50256418  0.13321871  1
  O  O311  1  0.00097603  0.51612129  0.60935942  1
  O  O312  1  0.49405706  0.01472913  0.10988074  1
  O  O313  1  0.50065843  -0.00225290  0.61341196  1
  O  O314  1  0.50618511  0.49433908  0.10497562  1
  O  O315  1  0.50526832  0.51287501  0.62241840  1
  O  O316  1  0.26819539  0.41350309  0.24769300  1
  O  O317  1  0.25195123  0.37419380  0.74077906  1
  O  O318  1  0.23671541  0.86189488  0.25097869  1
  O  O319  1  0.23134730  0.85583763  0.72839677  1
  O  O320  1  0.75134691  0.39055048  0.25984299  1
  O  O321  1  0.75016904  0.36674327  0.75610818  1
  O  O322  1  0.75721204  0.88422668  0.24108816  1
  O  O323  1  0.74824406  0.87832239  0.73718780  1
  O  O324  1  0.19757479  0.15504115  0.27678584  1
  O  O325  1  0.25834577  0.13534780  0.75450603  1
  O  O326  1  0.26431588  0.60122528  0.26391493  1
  O  O327  1  0.24600216  0.65337492  0.77232036  1
  O  O328  1  0.73802554  0.11975675  0.26333887  1
  O  O329  1  0.74540236  0.10896088  0.76440876  1
  O  O330  1  0.75436671  0.61817225  0.25882366  1
  O  O331  1  0.78947022  0.66088551  0.75458402  1
  O  O332  1  0.36843221  0.12182680  0.37978553  1
  O  O333  1  0.37726262  0.11731984  0.86215984  1
  O  O334  1  0.36658045  0.62315308  0.36507177  1
  O  O335  1  0.35592826  0.64110596  0.88922640  1
  O  O336  1  0.85586356  0.13721144  0.37921083  1
  O  O337  1  0.86365832  0.10849872  0.88265327  1
  O  O338  1  0.85712492  0.62206263  0.36648242  1
  O  O339  1  0.92858695  0.59036512  0.87912746  1
  O  O340  1  0.14627752  0.33904062  0.15844958  1
  O  O341  1  0.13780320  0.40293618  0.62550059  1
  O  O342  1  0.16256628  0.83823469  0.10092078  1
  O  O343  1  0.12307146  0.86967381  0.62750158  1
  O  O344  1  0.65450583  0.33831617  0.12353477  1
  O  O345  1  0.64161707  0.39245473  0.63466737  1
  O  O346  1  0.63628794  0.86462551  0.13272830  1
  O  O347  1  0.64001133  0.87033570  0.63739944  1
  O  O348  1  0.15806840  0.29471334  0.21661226  1
  O  O349  1  0.08982580  0.25840464  0.71894529  1
  O  O350  1  0.10106943  0.73536139  0.25352462  1
  O  O351  1  0.11540046  0.76035824  0.76218141  1
  O  O352  1  0.62783410  0.24918409  0.26622648  1
  O  O353  1  0.61861396  0.24081574  0.74937068  1
  O  O354  1  0.61105365  0.74035608  0.25070716  1
  O  O355  1  0.62063267  0.75588730  0.75657357  1
  O  O356  1  0.35786005  0.25865452  0.22818924  1
  O  O357  1  0.39101116  0.23374017  0.74666522  1
  O  O358  1  0.38105465  0.74246966  0.24279430  1
  O  O359  1  0.38790010  0.76357049  0.74174954  1
  O  O360  1  0.87059300  0.24245681  0.24431174  1
  O  O361  1  0.88603224  0.24125864  0.75474488  1
  O  O362  1  0.87515035  0.73973264  0.24375773  1
  O  O363  1  0.84259041  0.71598131  0.75524358  1
  O  O364  1  0.40006401  0.50868668  0.50263268  1
  O  O365  1  0.38777642  0.49038764  1.00128717  1
  O  O366  1  0.38169758  0.98897499  0.51133723  1
  O  O367  1  0.38812598  0.97954433  0.99461458  1
  O  O368  1  0.89505711  0.50863911  0.49089688  1
  O  O369  1  0.89745562  0.49364039  1.00213139  1
  O  O370  1  0.88891456  0.98655853  0.50228798  1
  O  O371  1  0.86890756  0.98998428  0.98677631  1
  O  O372  1  0.13036447  -0.00338869  -0.00457908  1
  O  O373  1  0.10668270  -0.01428304  0.51096258  1
  O  O374  1  0.11874278  0.51542364  0.01653166  1
  O  O375  1  0.11517012  0.51233074  0.50542943  1
  O  O376  1  0.61590402  -0.00335187  -0.00136777  1
  O  O377  1  0.61537407  0.01334185  0.49842468  1
  O  O378  1  0.62598161  0.51094167  -0.00663900  1
  O  O379  1  0.61038103  0.51562465  0.49911463  1
  O  O380  1  0.38557261  0.35616523  0.10125033  1
  O  O381  1  0.36341323  0.34474407  0.63953795  1
  O  O382  1  0.37949667  0.86430971  0.12600093  1
  O  O383  1  0.36634179  0.86666440  0.61947496  1
  O  O384  1  0.87036198  0.37410488  0.11110121  1
  O  O385  1  0.80924587  0.44794802  0.62072312  1
  O  O386  1  0.86522425  0.85944710  0.12722794  1
  O  O387  1  0.86138175  0.87370391  0.61337097  1
  O  O388  1  0.16559355  0.10375084  0.32292188  1
  O  O389  1  0.11357580  0.11498820  0.88328891  1
  O  O390  1  0.14322341  0.61603365  0.38094053  1
  O  O391  1  0.11415617  0.64089248  0.87248233  1
  O  O392  1  0.62877349  0.13911874  0.38816717  1
  O  O393  1  0.64245187  0.11534895  0.88434365  1
  O  O394  1  0.63234285  0.62467105  0.38484969  1
  O  O395  1  0.62740433  0.63669464  0.89012686  1
