# generated using pymatgen
data_V35Zn35O128
_symmetry_space_group_name_H-M   'P 1'
_cell_length_a   16.93361515
_cell_length_b   16.90848288
_cell_length_c   16.90066872
_cell_angle_alpha   90.07016564
_cell_angle_beta   89.76828672
_cell_angle_gamma   90.05222191
_symmetry_Int_Tables_number   1
_chemical_formula_structural   V35Zn35O128
_chemical_formula_sum   'V70 Zn70 O256'
_cell_volume   4838.98371676
_cell_formula_units_Z   2
loop_
 _symmetry_equiv_pos_site_id
 _symmetry_equiv_pos_as_xyz
  1  'x, y, z'
loop_
 _atom_site_type_symbol
 _atom_site_label
 _atom_site_symmetry_multiplicity
 _atom_site_fract_x
 _atom_site_fract_y
 _atom_site_fract_z
 _atom_site_occupancy
  V  V0  1  0.63694241  0.13141615  0.51255954  1
  V  V1  1  0.49166667  0.36765799  0.85981728  1
  V  V2  1  0.49287468  0.75597882  0.24584195  1
  V  V3  1  0.75375663  0.61249075  0.38075437  1
  V  V4  1  -0.00529747  0.26145488  0.24719602  1
  V  V5  1  0.76851941  0.13446792  0.87647291  1
  V  V6  1  0.61475251  0.01397097  0.10621637  1
  V  V7  1  0.12766140  0.25289753  0.87108751  1
  V  V8  1  0.12565751  0.63318322  0.48312050  1
  V  V9  1  0.12154670  0.86782919  0.26142513  1
  V  V10  1  -0.00247470  0.23343809  0.74512950  1
  V  V11  1  0.27399956  0.75793604  0.49678743  1
  V  V12  1  0.12293154  0.51066275  0.61939129  1
  V  V13  1  0.38185227  -0.01125026  0.89500583  1
  V  V14  1  0.75711116  0.12662430  0.37313889  1
  V  V15  1  0.62280573  0.86010292  0.76492300  1
  V  V16  1  0.37613614  0.62626924  0.72977382  1
  V  V17  1  -0.01624549  0.74346487  0.74020959  1
  V  V18  1  0.25056469  0.37009267  0.61748784  1
  V  V19  1  0.60880968  0.24918172  0.37227534  1
  V  V20  1  0.61687954  0.50407223  0.61867498  1
  V  V21  1  0.53874362  0.53272108  -0.05111648  1
  V  V22  1  0.38303572  0.38369985  0.49839719  1
  V  V23  1  0.63783533  -0.00173155  0.64235807  1
  V  V24  1  0.87193748  0.79048457  0.13961342  1
  V  V25  1  0.13092986  0.24937641  0.36883537  1
  V  V26  1  -0.00154550  0.38001579  0.86963464  1
  V  V27  1  0.25923608  0.86946209  0.12093418  1
  V  V28  1  0.48120575  0.25139999  0.73786339  1
  V  V29  1  0.12122306  0.37675336  0.74252156  1
  V  V30  1  0.62796319  0.15813402  -0.01228489  1
  V  V31  1  -0.01327664  0.13557575  0.12766280  1
  V  V32  1  0.87358227  0.51580592  0.86655191  1
  V  V33  1  0.12856240  -0.00307571  0.60583976  1
  V  V34  1  -0.00990516  0.48912276  0.48926284  1
  V  V35  1  0.38125013  0.49539271  0.34942298  1
  V  V36  1  0.64369497  0.36629889  0.74183815  1
  V  V37  1  0.62733208  0.76013952  0.38111789  1
  V  V38  1  0.00486663  0.11559916  0.59638940  1
  V  V39  1  0.13186037  0.12935833  0.00344366  1
  V  V40  1  -0.00456226  -0.00056584  -0.00688641  1
  V  V41  1  0.75033424  0.00764946  0.24938700  1
  V  V42  1  0.77741138  -0.00377287  0.76048413  1
  V  V43  1  0.25811742  0.12511434  0.86880850  1
  V  V44  1  0.86404332  0.36662666  0.00269756  1
  V  V45  1  0.69425276  0.37640411  0.17332051  1
  V  V46  1  0.52101613  0.61750834  0.12677120  1
  V  V47  1  0.84042632  0.76055220  0.57914457  1
  V  V48  1  0.87358489  0.25239278  0.60905632  1
  V  V49  1  0.86646871  0.59755698  0.24721882  1
  V  V50  1  0.86686867  0.88525981  -0.01168293  1
  V  V51  1  -0.00747827  0.75042428  0.26657055  1
  V  V52  1  0.11928249  0.87645486  0.74779746  1
  V  V53  1  0.49321990  -0.00801425  0.50353224  1
  V  V54  1  0.10058620  0.63321543  0.00948703  1
  V  V55  1  0.14035716  0.38944708  0.23476117  1
  V  V56  1  0.61452932  0.62367278  0.50284681  1
  V  V57  1  0.25808877  0.26270364  0.00587404  1
  V  V58  1  0.25615350  0.75188361  0.00175122  1
  V  V59  1  0.25767220  -0.00756610  0.74754504  1
  V  V60  1  0.12564651  -0.00481228  0.12507519  1
  V  V61  1  -0.00433174  0.50557601  0.01117204  1
  V  V62  1  0.61984523  0.88803064  0.24653648  1
  V  V63  1  0.49063028  0.12357082  0.63399189  1
  V  V64  1  0.24759073  0.61465022  0.88361175  1
  V  V65  1  0.25995251  0.01696053  0.24744248  1
  V  V66  1  0.11124658  0.75798005  0.87551420  1
  V  V67  1  0.75830799  0.52104317  0.73852318  1
  V  V68  1  0.24792136  0.23736083  0.49510255  1
  V  V69  1  0.38683419  0.38521048  0.00281136  1
  Zn  Zn70  1  0.35459438  0.64073413  0.22106211  1
  Zn  Zn71  1  -0.01898528  0.62644528  0.62170169  1
  Zn  Zn72  1  0.25116781  0.49217451  0.76907236  1
  Zn  Zn73  1  0.68024272  0.67148287  0.92514139  1
  Zn  Zn74  1  0.44286452  0.82820566  0.43820280  1
  Zn  Zn75  1  0.24641998  0.62025733  0.35847620  1
  Zn  Zn76  1  0.18904667  0.19589098  0.18455878  1
  Zn  Zn77  1  0.18503375  0.18059791  0.68315903  1
  Zn  Zn78  1  0.17757645  0.68634214  0.18649385  1
  Zn  Zn79  1  0.22605170  0.71089968  0.70054395  1
  Zn  Zn80  1  0.67420041  0.19192234  0.18545485  1
  Zn  Zn81  1  0.70065819  0.18061358  0.69628958  1
  Zn  Zn82  1  0.69483552  0.69531258  0.19703748  1
  Zn  Zn83  1  0.69544116  0.69544124  0.67823994  1
  Zn  Zn84  1  0.30993045  0.31843493  0.31750444  1
  Zn  Zn85  1  0.31014461  0.31186724  0.80649599  1
  Zn  Zn86  1  0.30307450  0.80981603  0.31677281  1
  Zn  Zn87  1  0.31303831  0.80899949  0.82083116  1
  Zn  Zn88  1  0.79777367  0.29361603  0.30491515  1
  Zn  Zn89  1  0.82068242  0.31186537  0.80371874  1
  Zn  Zn90  1  0.80490561  0.82317011  0.32777195  1
  Zn  Zn91  1  0.80265145  0.81113148  0.81326648  1
  Zn  Zn92  1  0.18949698  0.43929940  0.42625313  1
  Zn  Zn93  1  0.20961544  0.47079515  1.00770103  1
  Zn  Zn94  1  0.21411148  0.93524695  0.42788485  1
  Zn  Zn95  1  0.18805485  0.93808170  0.93647890  1
  Zn  Zn96  1  0.66583819  0.43610933  0.35335406  1
  Zn  Zn97  1  0.69171489  0.43287993  0.91654741  1
  Zn  Zn98  1  0.65320650  0.96586248  0.42044970  1
  Zn  Zn99  1  0.69388486  0.94076908  0.93167626  1
  Zn  Zn100  1  0.40197336  -0.00034428  0.11244232  1
  Zn  Zn101  1  0.31183410  0.05871635  0.56780759  1
  Zn  Zn102  1  0.31247618  0.44579220  0.16766100  1
  Zn  Zn103  1  0.30329162  0.56218678  0.56056670  1
  Zn  Zn104  1  0.80316508  0.06417608  0.06351308  1
  Zn  Zn105  1  0.81666677  0.06439257  0.56762296  1
  Zn  Zn106  1  0.76765419  0.55361557  0.08280301  1
  Zn  Zn107  1  0.80874955  0.57197990  0.55811246  1
  Zn  Zn108  1  0.51265737  0.43429001  0.21424415  1
  Zn  Zn109  1  0.42963993  0.44659143  0.68635081  1
  Zn  Zn110  1  0.43189056  0.94896073  0.30655993  1
  Zn  Zn111  1  0.46663826  0.96074056  0.73480778  1
  Zn  Zn112  1  0.93308985  0.42838423  0.18651398  1
  Zn  Zn113  1  0.93563055  0.43606826  0.67791408  1
  Zn  Zn114  1  0.94982785  0.95935447  0.21819512  1
  Zn  Zn115  1  0.94238118  0.92561788  0.66435767  1
  Zn  Zn116  1  0.06941093  0.06884296  0.31107408  1
  Zn  Zn117  1  0.06763625  0.05938549  0.81466111  1
  Zn  Zn118  1  0.04875705  0.55941609  0.30719716  1
  Zn  Zn119  1  0.06313329  0.56995879  0.80977211  1
  Zn  Zn120  1  0.55301266  0.08078646  0.32434838  1
  Zn  Zn121  1  0.56241692  0.07917678  0.83033429  1
  Zn  Zn122  1  0.55401239  0.57190694  0.32218234  1
  Zn  Zn123  1  0.55564680  0.56295805  0.78350032  1
  Zn  Zn124  1  0.45062988  0.21117503  0.48843362  1
  Zn  Zn125  1  0.42102440  0.16179560  0.97603369  1
  Zn  Zn126  1  0.43549487  0.66368415  0.42060410  1
  Zn  Zn127  1  0.36115935  0.58037145  1.03188707  1
  Zn  Zn128  1  0.94489831  0.18824533  0.42563695  1
  Zn  Zn129  1  0.94282867  0.18726565  0.93825031  1
  Zn  Zn130  1  0.93629956  0.67953668  0.44010372  1
  Zn  Zn131  1  0.83739790  0.69333925  0.96301364  1
  Zn  Zn132  1  0.06404167  0.32200796  0.06198402  1
  Zn  Zn133  1  0.06152855  0.30981434  0.55571622  1
  Zn  Zn134  1  0.04356675  0.81137668  0.07217492  1
  Zn  Zn135  1  0.06554376  0.81272362  0.55894580  1
  Zn  Zn136  1  0.57984829  0.35130435  0.04169529  1
  Zn  Zn137  1  0.57310731  0.31882970  0.56618910  1
  Zn  Zn138  1  0.57711724  0.81119210  0.07688608  1
  Zn  Zn139  1  0.59568940  0.82209767  0.56365948  1
  O  O140  1  0.12920124  0.11964034  0.11333681  1
  O  O141  1  0.11575637  0.10886679  0.62401055  1
  O  O142  1  0.10462876  0.64264635  0.10748946  1
  O  O143  1  0.13320819  0.61005967  0.61902595  1
  O  O144  1  0.62866323  0.12404038  0.10075099  1
  O  O145  1  0.62763260  0.11715889  0.62295444  1
  O  O146  1  0.61981764  0.65241320  0.12193546  1
  O  O147  1  0.63063518  0.62145089  0.61230471  1
  O  O148  1  0.37444032  0.38353069  0.39042566  1
  O  O149  1  0.38811825  0.37388800  0.86314378  1
  O  O150  1  0.37097012  0.88220216  0.37231834  1
  O  O151  1  0.36848238  0.89096508  0.87330562  1
  O  O152  1  0.85336032  0.37037479  0.40388992  1
  O  O153  1  0.89030439  0.37722128  0.87110327  1
  O  O154  1  0.86972339  0.90162218  0.39402362  1
  O  O155  1  0.87481094  0.87272694  0.89094122  1
  O  O156  1  0.25494995  0.00443707  0.34748783  1
  O  O157  1  0.26017090  0.00500632  0.86923921  1
  O  O158  1  0.27439128  0.50077020  0.37626419  1
  O  O159  1  0.22621669  0.51330259  0.89064764  1
  O  O160  1  0.73829959  0.01619141  0.36563735  1
  O  O161  1  0.76238441  0.00696140  0.86505438  1
  O  O162  1  0.74319732  0.51328348  0.38274559  1
  O  O163  1  0.76599757  0.49965028  0.85653890  1
  O  O164  1  0.28069734  0.51356682  0.08476311  1
  O  O165  1  0.23268343  0.48380517  0.62090646  1
  O  O166  1  0.23968633  0.98190479  0.12870941  1
  O  O167  1  0.23577788  1.00937963  0.63968052  1
  O  O168  1  0.72697897  0.45866974  0.12389548  1
  O  O169  1  0.74869728  0.50707108  0.63434315  1
  O  O170  1  0.72682741  1.01446233  0.14298563  1
  O  O171  1  0.74361854  1.01089988  0.64249295  1
  O  O172  1  0.01655761  0.36447301  0.23521229  1
  O  O173  1  0.00780383  0.36549428  0.75029605  1
  O  O174  1  0.01452246  0.86727557  0.25334946  1
  O  O175  1  0.01588361  0.86542345  0.74250566  1
  O  O176  1  0.47192361  0.23063039  0.11824635  1
  O  O177  1  0.49902753  0.36466690  0.73959322  1
  O  O178  1  0.51217564  0.87074955  0.25967823  1
  O  O179  1  0.52167009  0.86526774  0.74633561  1
  O  O180  1  0.44888897  0.11776215  0.28139645  1
  O  O181  1  0.51026411  0.14085880  0.74055543  1
  O  O182  1  0.51288776  0.64607709  0.24206186  1
  O  O183  1  0.47381490  0.63366832  0.75547167  1
  O  O184  1  1.00814232  0.14414946  0.23228351  1
  O  O185  1  1.00810188  0.13392530  0.75203166  1
  O  O186  1  0.97393234  0.63728343  0.25749670  1
  O  O187  1  0.99830951  0.63857274  0.74340062  1
  O  O188  1  0.36067057  0.25929604  -0.01533926  1
  O  O189  1  0.35356865  0.26470235  0.49946534  1
  O  O190  1  0.35072519  0.74218202  0.00189409  1
  O  O191  1  0.38002768  0.74182072  0.48947580  1
  O  O192  1  0.88949130  0.26939684  -0.00738056  1
  O  O193  1  0.89083857  0.24479153  0.50932781  1
  O  O194  1  0.88316949  0.78080334  0.02545420  1
  O  O195  1  0.86097312  0.75861340  0.47929709  1
  O  O196  1  0.13415870  0.25700197  0.48098238  1
  O  O197  1  0.13327201  0.25263698  0.98834426  1
  O  O198  1  0.12274855  0.73354322  0.49758797  1
  O  O199  1  0.09986975  0.74898389  0.98629550  1
  O  O200  1  0.62978251  0.23265036  0.51345832  1
  O  O201  1  0.63215456  0.25719198  0.99717383  1
  O  O202  1  0.61966301  0.74291470  0.48797718  1
  O  O203  1  0.60523569  0.75302885  0.97857648  1
  O  O204  1  0.45173199  0.16207780  0.13933872  1
  O  O205  1  0.50291605  0.23625549  0.62646994  1
  O  O206  1  0.50197681  0.75911062  0.14302047  1
  O  O207  1  0.50591620  0.74478393  0.62183912  1
  O  O208  1  1.00689023  0.24347584  0.12811941  1
  O  O209  1  1.00772216  0.23263413  0.63029147  1
  O  O210  1  0.97571811  0.75262504  0.14489559  1
  O  O211  1  1.01125653  0.74756200  0.63825598  1
  O  O212  1  0.01503247  0.25036726  0.35631330  1
  O  O213  1  0.00961604  0.25423408  0.86198542  1
  O  O214  1  -0.00363459  0.74905536  0.36581704  1
  O  O215  1  0.01345305  0.75331115  0.85062719  1
  O  O216  1  0.51105223  0.23306580  0.39726124  1
  O  O217  1  0.50522230  0.26117548  0.84274541  1
  O  O218  1  0.51141499  0.74687014  0.36759660  1
  O  O219  1  0.53425874  0.77756752  0.93525826  1
  O  O220  1  0.25577655  0.13905257  0.50733763  1
  O  O221  1  0.24063889  0.14542535  0.98617135  1
  O  O222  1  0.23335859  0.61990776  0.49081740  1
  O  O223  1  0.21694428  0.64412351  0.99612153  1
  O  O224  1  0.74070098  0.11342810  0.49306420  1
  O  O225  1  0.74223930  0.12428778  0.98731382  1
  O  O226  1  0.73709461  0.62886086  0.48681274  1
  O  O227  1  0.75563306  0.62052309  0.99846725  1
  O  O228  1  0.27032323  0.37125175  -0.01138124  1
  O  O229  1  0.25185042  0.37092128  0.50923360  1
  O  O230  1  0.23812469  0.86412642  0.00907592  1
  O  O231  1  0.26035743  0.85824431  0.49560775  1
  O  O232  1  0.76608373  0.37479187  -0.02040738  1
  O  O233  1  0.81147039  0.38002297  0.46304812  1
  O  O234  1  0.76854373  0.89631125  0.00627724  1
  O  O235  1  0.83332469  0.93337178  0.45652732  1
  O  O236  1  0.11829359  0.48675321  0.25117183  1
  O  O237  1  0.12483053  0.49174585  0.73885259  1
  O  O238  1  0.13888492  0.99065962  0.24069393  1
  O  O239  1  0.13134794  0.98677086  0.75442968  1
  O  O240  1  0.59556490  0.47826949  0.27763362  1
  O  O241  1  0.64269649  0.50002362  0.73729452  1
  O  O242  1  0.61363190  0.99558456  0.26039972  1
  O  O243  1  0.62268519  1.00456626  0.74454690  1
  O  O244  1  0.36265934  -0.00496800  0.22576765  1
  O  O245  1  0.35695603  -0.00502536  0.73795147  1
  O  O246  1  0.40030457  0.46351299  0.24936500  1
  O  O247  1  0.36276830  0.51679399  0.74762318  1
  O  O248  1  0.84709468  0.00743935  0.24300850  1
  O  O249  1  0.87434073  -0.01351166  0.73991388  1
  O  O250  1  0.88066534  0.49935331  0.25945652  1
  O  O251  1  0.86834831  0.50053317  0.75155015  1
  O  O252  1  0.13865517  0.36393488  0.35404089  1
  O  O253  1  0.11544285  0.36541344  0.86001263  1
  O  O254  1  0.13660828  0.87829993  0.35838914  1
  O  O255  1  0.12600953  0.86706056  0.86598212  1
  O  O256  1  0.62249894  0.34536331  0.40146183  1
  O  O257  1  0.61417981  0.37885659  0.84460578  1
  O  O258  1  0.62461895  0.86504111  0.37914077  1
  O  O259  1  0.62680724  0.88190859  0.86375768  1
  O  O260  1  0.39485456  0.12286825  0.08931843  1
  O  O261  1  0.39228457  0.11980238  0.62814936  1
  O  O262  1  0.40972231  0.62895645  0.12436050  1
  O  O263  1  0.37063979  0.62284481  0.62950168  1
  O  O264  1  0.88869640  0.12664975  0.11929441  1
  O  O265  1  0.90104458  0.12522490  0.61701576  1
  O  O266  1  0.85396120  0.60664495  0.14749363  1
  O  O267  1  0.86951621  0.66063322  0.60850624  1
  O  O268  1  0.25021820  0.25447872  0.10388745  1
  O  O269  1  0.23226035  0.26101834  0.61155024  1
  O  O270  1  0.23425448  0.76027017  0.11165246  1
  O  O271  1  0.25056631  0.73760723  0.59472017  1
  O  O272  1  0.72959248  0.28604619  0.14172898  1
  O  O273  1  0.77679004  0.22887524  0.62574047  1
  O  O274  1  0.77502358  0.76012428  0.14588651  1
  O  O275  1  0.73961945  0.76524863  0.59913259  1
  O  O276  1  0.24499720  0.24979235  0.38551613  1
  O  O277  1  0.24009291  0.24554226  0.86992040  1
  O  O278  1  0.25339344  0.73643388  0.39043323  1
  O  O279  1  0.23437156  0.74825563  0.88949335  1
  O  O280  1  0.73153752  0.23129947  0.37451665  1
  O  O281  1  0.76063660  0.23416340  0.85944138  1
  O  O282  1  0.73023262  0.74401238  0.36777708  1
  O  O283  1  0.76217008  0.74109135  0.88941963  1
  O  O284  1  0.01212661  0.12385319  0.01043351  1
  O  O285  1  0.01034894  0.12099575  0.49758252  1
  O  O286  1  -0.00451571  0.61363372  -0.00711474  1
  O  O287  1  0.01332944  0.61639482  0.50383568  1
  O  O288  1  0.52892331  0.13458363  -0.02329303  1
  O  O289  1  0.51255857  0.11572483  0.51960209  1
  O  O290  1  0.50677248  0.60843478  0.01148508  1
  O  O291  1  0.51552296  0.62593927  0.49614796  1
  O  O292  1  0.47917762  0.36112465  0.51701428  1
  O  O293  1  0.48995072  0.35079841  0.96953251  1
  O  O294  1  0.50865762  0.88732458  0.51480974  1
  O  O295  1  0.49709759  0.83038572  0.97602099  1
  O  O296  1  1.00213109  0.38902839  0.50394339  1
  O  O297  1  1.00441987  0.39026124  0.98611950  1
  O  O298  1  1.00626769  0.89328040  0.51256185  1
  O  O299  1  0.99584554  0.89678276  1.00731016  1
  O  O300  1  0.47363842  0.50795720  0.38796330  1
  O  O301  1  0.50191719  0.48199548  0.85919976  1
  O  O302  1  0.50680439  0.99860502  0.39813671  1
  O  O303  1  0.47463878  1.00776680  0.84780359  1
  O  O304  1  0.99485858  0.50048040  0.38955618  1
  O  O305  1  0.99153385  0.49316736  0.86314017  1
  O  O306  1  0.98465047  1.00225214  0.31968385  1
  O  O307  1  1.00370326  1.00974742  0.89460384  1
  O  O308  1  0.01122605  0.01991454  0.12462857  1
  O  O309  1  0.01455420  0.00716669  0.61882287  1
  O  O310  1  -0.01090880  0.49978919  0.10842750  1
  O  O311  1  0.01262879  0.50534475  0.62352090  1
  O  O312  1  0.51730989  0.00739919  0.12869524  1
  O  O313  1  0.51275279  0.01200800  0.63163834  1
  O  O314  1  0.52750811  0.51977706  0.13579686  1
  O  O315  1  0.51878490  0.50604200  0.63893972  1
  O  O316  1  0.24980723  0.37811756  0.23819168  1
  O  O317  1  0.23860266  0.37413907  0.73855483  1
  O  O318  1  0.23510661  0.86227624  0.23262435  1
  O  O319  1  0.24161323  0.88840159  0.75498295  1
  O  O320  1  0.73227718  0.37918867  0.27077485  1
  O  O321  1  0.74460515  0.37993979  0.74849912  1
  O  O322  1  0.73020584  0.89601451  0.26557019  1
  O  O323  1  0.74161680  0.89403059  0.75616025  1
  O  O324  1  0.25361506  0.11515540  0.23232496  1
  O  O325  1  0.23883995  0.11188846  0.76152878  1
  O  O326  1  0.24654730  0.62346553  0.24313829  1
  O  O327  1  0.25010957  0.61660260  0.77360701  1
  O  O328  1  0.73345345  0.11972560  0.26297829  1
  O  O329  1  0.75632866  0.10774306  0.76364487  1
  O  O330  1  0.75695682  0.62298179  0.26565445  1
  O  O331  1  0.75144196  0.61949293  0.74674444  1
  O  O332  1  0.40059244  0.17202864  0.31665666  1
  O  O333  1  0.36174143  0.11292754  0.88612922  1
  O  O334  1  0.37460882  0.60735758  0.34098947  1
  O  O335  1  0.34317118  0.61655871  0.91215112  1
  O  O336  1  0.85624919  0.13309612  0.37619167  1
  O  O337  1  0.86888735  0.12192043  0.88564153  1
  O  O338  1  0.85867910  0.62535122  0.37007232  1
  O  O339  1  0.88204901  0.61216321  0.87722109  1
  O  O340  1  0.13358024  0.38076710  0.13075642  1
  O  O341  1  0.12717864  0.37864868  0.63009570  1
  O  O342  1  0.11829776  0.88588426  0.12951702  1
  O  O343  1  0.12893328  0.88882564  0.63709797  1
  O  O344  1  0.58840602  0.36479921  0.15445019  1
  O  O345  1  0.62917104  0.39353335  0.63089610  1
  O  O346  1  0.62629073  0.89232400  0.14092129  1
  O  O347  1  0.63330410  0.89349012  0.64003459  1
  O  O348  1  0.12593705  0.26443782  0.25098140  1
  O  O349  1  0.11821672  0.25488275  0.75207685  1
  O  O350  1  0.10606678  0.75814706  0.24580441  1
  O  O351  1  0.13754791  0.76545488  0.75764706  1
  O  O352  1  0.60631895  0.23478625  0.27126666  1
  O  O353  1  0.62948261  0.26632555  0.72856949  1
  O  O354  1  0.61978566  0.77026633  0.25882536  1
  O  O355  1  0.64168040  0.76102436  0.75447714  1
  O  O356  1  0.38843023  0.23603834  0.27175571  1
  O  O357  1  0.38229682  0.24833635  0.73991130  1
  O  O358  1  0.39096589  0.75325622  0.25713639  1
  O  O359  1  0.33958614  0.72791403  0.74796651  1
  O  O360  1  0.89455900  0.26694279  0.25503063  1
  O  O361  1  0.89643985  0.24716327  0.73979307  1
  O  O362  1  0.88411887  0.77504672  0.25640801  1
  O  O363  1  0.88607490  0.75970281  0.74810479  1
  O  O364  1  0.37345993  0.48363947  0.51234258  1
  O  O365  1  0.41623712  0.48255468  0.98624319  1
  O  O366  1  0.39413644  1.00090811  0.51362820  1
  O  O367  1  0.39033130  0.99277307  0.99406901  1
  O  O368  1  0.89340429  0.50877287  0.51626980  1
  O  O369  1  0.88771070  0.48805621  0.97696416  1
  O  O370  1  0.87708430  0.98794181  0.49388058  1
  O  O371  1  0.88850415  0.99908889  1.00927319  1
  O  O372  1  0.11970416  0.00964366  0.00514893  1
  O  O373  1  0.14645389  -0.00833508  0.50921292  1
  O  O374  1  0.10596835  0.52024654  -0.00181765  1
  O  O375  1  0.11760045  0.50308600  0.50711487  1
  O  O376  1  0.62296062  -0.00779361  0.00936783  1
  O  O377  1  0.61816434  0.00771892  0.52080024  1
  O  O378  1  0.60408810  0.46558179  -0.00831854  1
  O  O379  1  0.62531325  0.51239159  0.51338991  1
  O  O380  1  0.39305311  0.37611823  0.10131459  1
  O  O381  1  0.35387913  0.37689806  0.62367595  1
  O  O382  1  0.35627912  0.87634771  0.11957919  1
  O  O383  1  0.44662625  0.78059726  0.64552493  1
  O  O384  1  0.87346927  0.38243426  0.10219659  1
  O  O385  1  0.88160324  0.35223832  0.62643747  1
  O  O386  1  0.88129110  0.89089670  0.13808480  1
  O  O387  1  0.88019518  0.84916185  0.61122069  1
  O  O388  1  0.13202955  0.14770254  0.35777417  1
  O  O389  1  0.13065388  0.13484340  0.88355496  1
  O  O390  1  0.12168970  0.61673684  0.38142837  1
  O  O391  1  0.12387407  0.64277853  0.87885417  1
  O  O392  1  0.62741239  0.12864671  0.39880932  1
  O  O393  1  0.64579866  0.12985529  0.88287582  1
  O  O394  1  0.63078794  0.63378221  0.38525863  1
  O  O395  1  0.60324415  0.59209920  0.88979649  1
