# generated using pymatgen
data_V35Zn35O128
_symmetry_space_group_name_H-M   'P 1'
_cell_length_a   16.87952156
_cell_length_b   16.88122436
_cell_length_c   16.86132216
_cell_angle_alpha   89.94478779
_cell_angle_beta   90.09740059
_cell_angle_gamma   90.11175558
_symmetry_Int_Tables_number   1
_chemical_formula_structural   V35Zn35O128
_chemical_formula_sum   'V70 Zn70 O256'
_cell_volume   4804.56470884
_cell_formula_units_Z   2
loop_
 _symmetry_equiv_pos_site_id
 _symmetry_equiv_pos_as_xyz
  1  'x, y, z'
loop_
 _atom_site_type_symbol
 _atom_site_label
 _atom_site_symmetry_multiplicity
 _atom_site_fract_x
 _atom_site_fract_y
 _atom_site_fract_z
 _atom_site_occupancy
  V  V0  1  0.61173428  0.88506369  0.73638057  1
  V  V1  1  0.88070393  0.49578124  0.87811931  1
  V  V2  1  0.63368538  0.74528199  0.87901616  1
  V  V3  1  0.49895052  0.74859328  0.24857371  1
  V  V4  1  0.11287366  0.63742650  0.49791907  1
  V  V5  1  0.49621500  0.87836183  0.87797145  1
  V  V6  1  0.87939435  -0.00579883  0.38003473  1
  V  V7  1  0.73103224  0.50178558  0.26623708  1
  V  V8  1  0.01778105  0.25573481  0.27009902  1
  V  V9  1  0.14097033  0.87887446  0.22322570  1
  V  V10  1  0.00310191  -0.00772999  0.51355230  1
  V  V11  1  0.74588777  0.46546555  0.75085957  1
  V  V12  1  0.62741434  0.50399247  0.11072220  1
  V  V13  1  0.60706394  0.25466514  0.38110444  1
  V  V14  1  0.62269529  0.47437022  0.62425532  1
  V  V15  1  0.01091238  0.86754166  0.36682725  1
  V  V16  1  0.01475338  0.61198052  0.12214718  1
  V  V17  1  0.37999841  0.38271512  0.49054518  1
  V  V18  1  0.37121513  0.00101870  0.36521347  1
  V  V19  1  0.23989903  0.39533449  0.13905324  1
  V  V20  1  0.25255175  0.75476887  0.00248977  1
  V  V21  1  0.37623684  0.76347672  0.11810820  1
  V  V22  1  0.11034947  0.50171061  0.61358793  1
  V  V23  1  0.00509478  0.26883889  0.74790875  1
  V  V24  1  0.76415885  0.86515838  0.11885706  1
  V  V25  1  0.25269703  0.51063879  0.74734716  1
  V  V26  1  -0.00253103  0.73903790  0.73066605  1
  V  V27  1  0.87535419  0.37847141  0.48758336  1
  V  V28  1  0.36407736  0.74528393  0.61648515  1
  V  V29  1  -0.00071826  0.13318536  0.11625205  1
  V  V30  1  0.24434265  -0.00518817  0.73176213  1
  V  V31  1  0.49953667  -0.00083648  0.00188272  1
  V  V32  1  0.86689962  0.25831730  0.62324811  1
  V  V33  1  0.37760583  0.24497740  0.61851854  1
  V  V34  1  0.62780861  0.87865648  0.24715860  1
  V  V35  1  0.75784478  0.11643329  0.88001799  1
  V  V36  1  0.36494191  0.00603646  0.88087348  1
  V  V37  1  0.74994428  0.23273296  0.48695231  1
  V  V38  1  0.49381623  0.73789367  0.74407505  1
  V  V39  1  0.23687177  0.24693816  0.49481035  1
  V  V40  1  0.62902881  0.12828078  -0.00062803  1
  V  V41  1  0.12185575  0.74463447  0.86950117  1
  V  V42  1  0.23816407  0.37238709  0.63124805  1
  V  V43  1  0.76181676  0.87366864  0.62019262  1
  V  V44  1  0.50661202  0.61995185  0.11296555  1
  V  V45  1  0.87067775  0.62925600  0.24531667  1
  V  V46  1  0.62814592  0.74186367  0.38011126  1
  V  V47  1  0.37252779  0.12741037  0.75233558  1
  V  V48  1  0.23562603  0.12136629  0.35722317  1
  V  V49  1  0.88346153  0.11386682  0.73591118  1
  V  V50  1  0.63328060  0.25856012  0.87347304  1
  V  V51  1  0.41715679  0.49684987  0.90838136  1
  V  V52  1  0.50035281  0.13698054  0.12734297  1
  V  V53  1  0.37826365  0.13600933  0.24400089  1
  V  V54  1  0.36976962  0.61245652  0.25341219  1
  V  V55  1  0.13502542  0.60034267  -0.00071009  1
  V  V56  1  0.85695259  0.62714503  0.73769908  1
  V  V57  1  0.87583669  0.13942753  0.25434039  1
  V  V58  1  0.75463700  0.74439559  0.50360215  1
  V  V59  1  0.35679242  0.87754802  0.49989364  1
  V  V60  1  0.50438039  0.25755210  0.75722466  1
  V  V61  1  0.88380230  0.50880612  0.38123175  1
  V  V62  1  0.75776857  0.00471020  0.25161859  1
  V  V63  1  -0.00948410  0.87081298  0.88030136  1
  V  V64  1  0.74980005  0.36964461  0.12464479  1
  V  V65  1  0.25200546  0.62848146  0.38689281  1
  V  V66  1  0.50142565  0.88502562  0.38197883  1
  V  V67  1  0.28131254  0.26130334  0.00657155  1
  V  V68  1  0.11908424  0.11929868  0.52562068  1
  V  V69  1  0.74624327  -0.00063937  0.74498933  1
  Zn  Zn70  1  0.87793552  0.90182762  -0.00442959  1
  Zn  Zn71  1  0.63096421  0.00187662  0.12265174  1
  Zn  Zn72  1  0.49583409  0.60795849  0.61063249  1
  Zn  Zn73  1  0.00353291  0.74951781  0.23902898  1
  Zn  Zn74  1  0.13834164  0.12294941  -0.00647910  1
  Zn  Zn75  1  0.26491433  0.61755110  0.87250782  1
  Zn  Zn76  1  0.18516487  0.19660413  0.17795832  1
  Zn  Zn77  1  0.18716972  0.18662859  0.69995470  1
  Zn  Zn78  1  0.18762905  0.69318555  0.19130925  1
  Zn  Zn79  1  0.18381838  0.68464508  0.68112109  1
  Zn  Zn80  1  0.67990788  0.18817536  0.19975489  1
  Zn  Zn81  1  0.68978281  0.19089300  0.68709047  1
  Zn  Zn82  1  0.68979414  0.68547811  0.19081444  1
  Zn  Zn83  1  0.67333374  0.68605197  0.67983582  1
  Zn  Zn84  1  0.34356846  0.40412692  0.27770821  1
  Zn  Zn85  1  0.32042688  0.32349637  0.81751310  1
  Zn  Zn86  1  0.30608279  0.80921487  0.30833439  1
  Zn  Zn87  1  0.30802451  0.80976255  0.81633854  1
  Zn  Zn88  1  0.79848594  0.32111115  0.31436988  1
  Zn  Zn89  1  0.83533347  0.29772428  0.82706931  1
  Zn  Zn90  1  0.81556559  0.81309025  0.31494042  1
  Zn  Zn91  1  0.81517858  0.80736784  0.80378141  1
  Zn  Zn92  1  0.20799176  0.45452974  0.44154788  1
  Zn  Zn93  1  0.22975444  0.42021060  0.93835185  1
  Zn  Zn94  1  0.18230400  0.94227857  0.43185124  1
  Zn  Zn95  1  0.18468938  0.92786131  0.93408749  1
  Zn  Zn96  1  0.68888937  0.42104623  0.44062880  1
  Zn  Zn97  1  0.70111642  0.44342454  0.93981165  1
  Zn  Zn98  1  0.69394478  0.93094118  0.43332846  1
  Zn  Zn99  1  0.68519083  0.93260798  0.93428683  1
  Zn  Zn100  1  0.31059503  0.07931497  0.05364141  1
  Zn  Zn101  1  0.31464553  0.06244370  0.55290355  1
  Zn  Zn102  1  0.31688610  0.56595984  0.07039663  1
  Zn  Zn103  1  0.31114625  0.56108768  0.56431615  1
  Zn  Zn104  1  0.82499677  0.06419990  0.06850570  1
  Zn  Zn105  1  0.81111372  0.05597754  0.56212692  1
  Zn  Zn106  1  0.84095908  0.51576696  0.08575327  1
  Zn  Zn107  1  0.80004135  0.55690765  0.56796828  1
  Zn  Zn108  1  0.40922545  0.39554920  0.06767851  1
  Zn  Zn109  1  0.43353157  0.43221155  0.68321410  1
  Zn  Zn110  1  0.43753315  0.94125686  0.18679166  1
  Zn  Zn111  1  0.39481172  0.90868302  0.70965292  1
  Zn  Zn112  1  0.93376365  0.43653951  0.20608414  1
  Zn  Zn113  1  0.92972673  0.44158159  0.68510328  1
  Zn  Zn114  1  0.94670464  0.94218254  0.18203094  1
  Zn  Zn115  1  0.94255387  0.92559676  0.70028133  1
  Zn  Zn116  1  0.05799446  0.05272417  0.29854294  1
  Zn  Zn117  1  0.07014203  0.05623603  0.81524415  1
  Zn  Zn118  1  0.05537513  0.57393464  0.32646785  1
  Zn  Zn119  1  0.06628031  0.55296687  0.80064484  1
  Zn  Zn120  1  0.56908454  0.07582349  0.31375802  1
  Zn  Zn121  1  0.55825511  0.06873366  0.81123043  1
  Zn  Zn122  1  0.62074991  0.60528094  0.49724141  1
  Zn  Zn123  1  0.57715104  0.55688217  0.80830138  1
  Zn  Zn124  1  0.39408413  0.24361059  0.38285888  1
  Zn  Zn125  1  0.44522903  0.18780213  0.93507839  1
  Zn  Zn126  1  0.43944691  0.68789859  0.43633588  1
  Zn  Zn127  1  0.43958366  0.68254009  0.93024380  1
  Zn  Zn128  1  0.93968084  0.17888117  0.43953512  1
  Zn  Zn129  1  0.96716137  0.15947182  0.91131068  1
  Zn  Zn130  1  0.93341066  0.69088589  0.44081914  1
  Zn  Zn131  1  0.96186359  0.63882357  0.91333611  1
  Zn  Zn132  1  0.05245835  0.32967243  0.13049919  1
  Zn  Zn133  1  0.05240468  0.30771276  0.56341806  1
  Zn  Zn134  1  0.05773078  0.79725384  0.06012472  1
  Zn  Zn135  1  0.07461825  0.82090596  0.56061286  1
  Zn  Zn136  1  0.57140938  0.31999165  0.06133337  1
  Zn  Zn137  1  0.55951822  0.29838059  0.55683775  1
  Zn  Zn138  1  0.56726725  0.81233956  0.06152443  1
  Zn  Zn139  1  0.55646427  0.80979800  0.56068539  1
  O  O140  1  0.10584117  0.14486853  0.10457480  1
  O  O141  1  0.12277807  0.11983477  0.62353777  1
  O  O142  1  0.12357139  0.61784383  0.11649347  1
  O  O143  1  0.12971109  0.61317853  0.60821910  1
  O  O144  1  0.62216978  0.12209186  0.11744312  1
  O  O145  1  0.61337382  0.14954734  0.60400180  1
  O  O146  1  0.61439219  0.62365218  0.13089217  1
  O  O147  1  0.61558063  0.60972484  0.62131358  1
  O  O148  1  0.36900304  0.36235228  0.38534572  1
  O  O149  1  0.37456677  0.41328698  0.86858104  1
  O  O150  1  0.38409424  0.87667219  0.37947198  1
  O  O151  1  0.38662303  0.89168337  0.86842135  1
  O  O152  1  0.87123709  0.38738883  0.38079868  1
  O  O153  1  0.87415763  0.39414573  0.87170974  1
  O  O154  1  0.88727069  0.88728843  0.36985859  1
  O  O155  1  0.88425835  0.86263214  0.87748314  1
  O  O156  1  0.25645205  0.01609601  0.37786113  1
  O  O157  1  0.26396904  -0.00381539  0.87871708  1
  O  O158  1  0.25983729  0.52277868  0.36795646  1
  O  O159  1  0.23627657  0.49438322  0.85030910  1
  O  O160  1  0.76670622  -0.01185875  0.36409846  1
  O  O161  1  0.74225205  0.00851000  0.86120846  1
  O  O162  1  0.74723279  0.49686978  0.36977213  1
  O  O163  1  0.75242840  0.49766382  0.85415126  1
  O  O164  1  0.25121393  0.49678536  0.13186687  1
  O  O165  1  0.24241582  0.48478660  0.62527258  1
  O  O166  1  0.22409124  1.00032277  0.07778965  1
  O  O167  1  0.25616725  1.00401538  0.63241091  1
  O  O168  1  0.73517184  0.50390727  0.13862795  1
  O  O169  1  0.73842102  0.49109970  0.64107656  1
  O  O170  1  0.75301482  0.99128188  0.14035060  1
  O  O171  1  0.74737005  0.98619182  0.63041624  1
  O  O172  1  0.00337971  0.35822651  0.24537829  1
  O  O173  1  0.00036991  0.36894631  0.74200580  1
  O  O174  1  0.00081378  0.87105282  0.25624766  1
  O  O175  1  -0.00437531  0.84679831  0.76506663  1
  O  O176  1  0.50837068  0.45043071  0.32629403  1
  O  O177  1  0.49039169  0.35575488  0.75041113  1
  O  O178  1  0.50916135  0.86961567  0.25268055  1
  O  O179  1  0.50385414  0.88143306  0.75415308  1
  O  O180  1  0.48539220  0.11021454  0.23942189  1
  O  O181  1  0.48482145  0.13854715  0.75207120  1
  O  O182  1  0.49118198  0.64452503  0.24508762  1
  O  O183  1  0.49729580  0.63874775  0.74951429  1
  O  O184  1  0.98914821  0.13494458  0.25064912  1
  O  O185  1  0.98261072  0.11314730  0.75154643  1
  O  O186  1  0.99461932  0.62583245  0.24544934  1
  O  O187  1  0.99807553  0.63551984  0.74662979  1
  O  O188  1  0.38122310  0.24636102  0.00763427  1
  O  O189  1  0.36031797  0.24908705  0.51120698  1
  O  O190  1  0.36733124  0.73972832  0.00791475  1
  O  O191  1  0.37957990  0.76474521  0.50653107  1
  O  O192  1  0.90382314  0.31388482  0.00711616  1
  O  O193  1  0.86954705  0.24762509  0.50613902  1
  O  O194  1  0.84749011  0.71344299  -0.00398476  1
  O  O195  1  0.85392090  0.74934751  0.49764962  1
  O  O196  1  0.12581237  0.23272328  0.50702603  1
  O  O197  1  0.09016352  0.30169617  0.93468433  1
  O  O198  1  0.12669970  0.73649302  0.50484252  1
  O  O199  1  0.14128781  0.73655715  0.99338433  1
  O  O200  1  0.63885506  0.24876863  0.48939081  1
  O  O201  1  0.62204769  0.23693085  0.98592506  1
  O  O202  1  0.62727269  0.75747925  0.48667405  1
  O  O203  1  0.61882841  0.75683794  0.97923366  1
  O  O204  1  0.51506963  0.23515091  0.12648750  1
  O  O205  1  0.48138821  0.25135795  0.63332395  1
  O  O206  1  0.49422677  0.74724069  0.12784036  1
  O  O207  1  0.49239347  0.75103989  0.63573791  1
  O  O208  1  0.98965083  0.24067024  0.15496101  1
  O  O209  1  0.98116630  0.24879319  0.63642326  1
  O  O210  1  0.99733572  0.72071422  0.12279204  1
  O  O211  1  1.00785600  0.75436483  0.63324285  1
  O  O212  1  -0.00031565  0.24579971  0.36961740  1
  O  O213  1  -0.03769925  0.25326571  0.84361049  1
  O  O214  1  -0.00721222  0.76734629  0.37720060  1
  O  O215  1  0.01444294  0.74134045  0.87690619  1
  O  O216  1  0.50871176  0.23933530  0.39878382  1
  O  O217  1  0.51463327  0.24753416  0.86501459  1
  O  O218  1  0.50954709  0.76433914  0.36721821  1
  O  O219  1  0.49377910  0.76068458  0.86009473  1
  O  O220  1  0.23036689  0.12590678  0.49751652  1
  O  O221  1  0.24914787  0.15717455  0.99335035  1
  O  O222  1  0.24997500  0.62670755  0.49126058  1
  O  O223  1  0.24468825  0.62708622  0.99786702  1
  O  O224  1  0.75734413  0.13247653  0.49739626  1
  O  O225  1  0.74427246  0.11846653  0.98678813  1
  O  O226  1  0.73956862  0.64142711  0.50933670  1
  O  O227  1  0.78459840  0.67693358  1.00034897  1
  O  O228  1  0.28525110  0.37792624  0.02929363  1
  O  O229  1  0.25164151  0.36276622  0.50224790  1
  O  O230  1  0.25377454  0.85291517  -0.00913474  1
  O  O231  1  0.25829100  0.87487687  0.48962604  1
  O  O232  1  0.74328220  0.37478427  0.02263624  1
  O  O233  1  0.76681690  0.35162390  0.49437372  1
  O  O234  1  0.75077769  0.88257021  0.01551498  1
  O  O235  1  0.74589362  0.87233672  0.51446240  1
  O  O236  1  0.11519641  0.46507783  0.29023619  1
  O  O237  1  0.13624247  0.50470788  0.72427425  1
  O  O238  1  0.11977013  0.97908350  0.24213107  1
  O  O239  1  0.14641812  1.00250253  0.75420788  1
  O  O240  1  0.63469252  0.51282907  0.25123429  1
  O  O241  1  0.63782074  0.48621231  0.74343033  1
  O  O242  1  0.64016534  0.99531093  0.25531254  1
  O  O243  1  0.62708318  0.99126462  0.75124095  1
  O  O244  1  0.37015289  -0.00128862  0.25969618  1
  O  O245  1  0.37161244  0.01090257  0.76138621  1
  O  O246  1  0.38351313  0.51488153  0.25505927  1
  O  O247  1  0.35201750  0.49629974  0.73093900  1
  O  O248  1  0.86855188  0.00284060  0.25709885  1
  O  O249  1  0.86304823  0.00571607  0.74293982  1
  O  O250  1  0.86700497  0.50956872  0.26897444  1
  O  O251  1  0.85751091  0.50339182  0.75028399  1
  O  O252  1  0.12407457  0.41588481  0.34541206  1
  O  O253  1  0.09803748  0.36841826  0.90591305  1
  O  O254  1  0.11372479  0.87827405  0.36588569  1
  O  O255  1  0.11822173  0.85069563  0.88125142  1
  O  O256  1  0.62470651  0.35230935  0.36457065  1
  O  O257  1  0.64054214  0.35569786  0.88241301  1
  O  O258  1  0.61470470  0.87701301  0.36518789  1
  O  O259  1  0.61152099  0.87139002  0.86164155  1
  O  O260  1  0.38080949  0.12103992  0.13575360  1
  O  O261  1  0.36461147  0.14057274  0.62977819  1
  O  O262  1  0.39120569  0.63255091  0.13617609  1
  O  O263  1  0.37974781  0.64082920  0.61435316  1
  O  O264  1  0.87125098  0.13071698  0.14982362  1
  O  O265  1  0.87287761  0.12573770  0.63235366  1
  O  O266  1  0.88113583  0.61292753  0.14237464  1
  O  O267  1  0.87539206  0.60902354  0.63835690  1
  O  O268  1  0.24251491  0.26414386  0.10693206  1
  O  O269  1  0.24857656  0.25725074  0.61905526  1
  O  O270  1  0.26537849  0.74447718  0.11291268  1
  O  O271  1  0.26564497  0.74906377  0.63018353  1
  O  O272  1  0.73699247  0.27110730  0.14802083  1
  O  O273  1  0.76035681  0.24239664  0.61188652  1
  O  O274  1  0.74752161  0.76678043  0.13268610  1
  O  O275  1  0.73472067  0.76505722  0.61403321  1
  O  O276  1  0.25879771  0.22585804  0.39009727  1
  O  O277  1  0.25172733  0.29815133  0.90765885  1
  O  O278  1  0.25120138  0.73046961  0.36644036  1
  O  O279  1  0.24580262  0.73852900  0.88076489  1
  O  O280  1  0.74539055  0.24263255  0.38330743  1
  O  O281  1  0.74052427  0.23064366  0.86436045  1
  O  O282  1  0.73643381  0.76584574  0.38866856  1
  O  O283  1  0.73161899  0.76387387  0.86509905  1
  O  O284  1  -0.03724929  0.15447534  0.02455372  1
  O  O285  1  0.01212165  0.11052417  0.50079351  1
  O  O286  1  0.02062868  0.61347423  0.01021711  1
  O  O287  1  0.01288786  0.62713000  0.49098341  1
  O  O288  1  0.50921640  0.11832965  0.00677581  1
  O  O289  1  0.50964792  0.06978669  0.57721765  1
  O  O290  1  0.50192654  0.63417141  0.01495020  1
  O  O291  1  0.50720146  0.62473736  0.49665982  1
  O  O292  1  0.47753990  0.36531692  0.50661105  1
  O  O293  1  0.49187428  0.36810565  1.00107870  1
  O  O294  1  0.50135831  0.87875571  0.48339515  1
  O  O295  1  0.50729137  0.88798592  0.99057082  1
  O  O296  1  0.97504390  0.36490134  0.50094597  1
  O  O297  1  0.96581095  0.35189952  1.01175010  1
  O  O298  1  1.01022865  0.88815795  0.48602987  1
  O  O299  1  0.99226055  0.85879699  0.98687377  1
  O  O300  1  0.51028318  0.49694470  0.38153903  1
  O  O301  1  0.51504664  0.50103849  0.88490087  1
  O  O302  1  0.49220951  0.98812650  0.36442984  1
  O  O303  1  0.49463769  0.99735602  0.88279662  1
  O  O304  1  0.98261146  0.50040004  0.38140006  1
  O  O305  1  0.98538438  0.51164221  0.87027435  1
  O  O306  1  0.99226943  0.98966891  0.37597463  1
  O  O307  1  1.00881191  0.96750586  0.86462391  1
  O  O308  1  -0.00758596  0.03067858  0.12867439  1
  O  O309  1  -0.00802474  -0.01603964  0.61197437  1
  O  O310  1  -0.00476926  0.51175565  0.13650949  1
  O  O311  1  0.01160792  0.49347938  0.62209566  1
  O  O312  1  0.50312823  0.00604123  0.11406634  1
  O  O313  1  0.56939438  0.08187686  0.62138718  1
  O  O314  1  0.51548723  0.51587446  0.12469102  1
  O  O315  1  0.51598878  0.49430513  0.63722109  1
  O  O316  1  0.23768043  0.37157246  0.24090386  1
  O  O317  1  0.24631688  0.37205572  0.73298157  1
  O  O318  1  0.24207715  0.87365742  0.24039926  1
  O  O319  1  0.27217914  0.89450677  0.74799372  1
  O  O320  1  0.74706158  0.39583434  0.24487389  1
  O  O321  1  0.75727903  0.36743326  0.75283071  1
  O  O322  1  0.74645490  0.88171222  0.24335936  1
  O  O323  1  0.73445239  0.87963187  0.73827889  1
  O  O324  1  0.25807309  0.13122044  0.25241799  1
  O  O325  1  0.26243109  0.11485854  0.75050781  1
  O  O326  1  0.26774008  0.62768077  0.24381849  1
  O  O327  1  0.24974275  0.61495689  0.74900753  1
  O  O328  1  0.75894502  0.10971521  0.25138412  1
  O  O329  1  0.75069160  0.11283902  0.75191060  1
  O  O330  1  0.76212527  0.61578530  0.25023711  1
  O  O331  1  0.75691826  0.63776034  0.74158374  1
  O  O332  1  0.36876069  0.11635112  0.35945526  1
  O  O333  1  0.37927142  0.11436193  0.86875241  1
  O  O334  1  0.37107320  0.63531829  0.36005434  1
  O  O335  1  0.38022062  0.59505592  0.88037507  1
  O  O336  1  0.88190066  0.10578379  0.36433192  1
  O  O337  1  0.85939572  0.12687376  0.85858198  1
  O  O338  1  0.87516967  0.61492660  0.37170118  1
  O  O339  1  0.87145246  0.61296786  0.84973104  1
  O  O340  1  0.13938637  0.38638491  0.10591992  1
  O  O341  1  0.13292411  0.38123710  0.61152972  1
  O  O342  1  0.12062627  0.87003554  0.12285830  1
  O  O343  1  0.13712406  0.87987708  0.62985341  1
  O  O344  1  0.63029696  0.39596336  0.12816912  1
  O  O345  1  0.61870604  0.37399322  0.62290576  1
  O  O346  1  0.63220287  0.87952218  0.13541966  1
  O  O347  1  0.61707892  0.87882149  0.63487811  1
  O  O348  1  0.11729958  0.24420226  0.25793279  1
  O  O349  1  0.10333346  0.24338632  0.75047452  1
  O  O350  1  0.12026692  0.76717751  0.24301991  1
  O  O351  1  0.11870608  0.73693305  0.76310190  1
  O  O352  1  0.62040838  0.18760883  0.29849577  1
  O  O353  1  0.61365462  0.24506453  0.75776398  1
  O  O354  1  0.62206800  0.76033576  0.26013094  1
  O  O355  1  0.60640213  0.76469265  0.75127438  1
  O  O356  1  0.38511271  0.23294808  0.25922142  1
  O  O357  1  0.37650339  0.24683632  0.74550553  1
  O  O358  1  0.38256346  0.75431443  0.23337329  1
  O  O359  1  0.38586743  0.76612430  0.73465360  1
  O  O360  1  0.86914824  0.23841949  0.27025912  1
  O  O361  1  0.86796252  0.23363814  0.73147211  1
  O  O362  1  0.87509675  0.73220852  0.25846521  1
  O  O363  1  0.88544077  0.73645299  0.74409712  1
  O  O364  1  0.36747988  0.48150805  0.50205454  1
  O  O365  1  0.39199422  0.50089200  1.01041404  1
  O  O366  1  0.37262790  0.98750718  0.48461135  1
  O  O367  1  0.38482931  1.01140056  0.98836845  1
  O  O368  1  0.86007855  0.48833991  0.49206693  1
  O  O369  1  0.86143020  0.51678107  0.97635599  1
  O  O370  1  0.88861629  1.00475556  0.48821033  1
  O  O371  1  0.87283234  1.01238162  0.98518179  1
  O  O372  1  0.16490175  0.00411765  0.02276213  1
  O  O373  1  0.11524554  0.00956569  0.50114744  1
  O  O374  1  0.14558391  0.50384946  -0.01132918  1
  O  O375  1  0.12863245  0.50593710  0.50806082  1
  O  O376  1  0.61735312  0.01024479  -0.00212608  1
  O  O377  1  0.62744640  0.02166275  0.47590550  1
  O  O378  1  0.63815429  0.51031268  0.01227406  1
  O  O379  1  0.63794599  0.48958410  0.51728220  1
  O  O380  1  0.35975983  0.37773534  0.16411209  1
  O  O381  1  0.35813404  0.36214658  0.61515765  1
  O  O382  1  0.38381446  0.86251886  0.11778944  1
  O  O383  1  0.37886804  0.87051719  0.60419098  1
  O  O384  1  0.85276140  0.40251749  0.12965797  1
  O  O385  1  0.86926138  0.36202303  0.61679524  1
  O  O386  1  0.86784512  0.87734979  0.12170999  1
  O  O387  1  0.85950616  0.86991525  0.63425738  1
  O  O388  1  0.13603575  0.11625683  0.36337249  1
  O  O389  1  0.07599050  0.12524339  0.90233818  1
  O  O390  1  0.13725933  0.62076550  0.38831250  1
  O  O391  1  0.12604289  0.62766558  0.88760340  1
  O  O392  1  0.61273162  0.08115229  0.42986570  1
  O  O393  1  0.63395549  0.12817294  0.88056114  1
  O  O394  1  0.62755413  0.64441782  0.37506589  1
  O  O395  1  0.62151447  0.64691204  0.86155017  1
