# generated using pymatgen
data_V35Zn35O128
_symmetry_space_group_name_H-M   'P 1'
_cell_length_a   16.82457087
_cell_length_b   16.84734305
_cell_length_c   16.85215724
_cell_angle_alpha   89.69763105
_cell_angle_beta   89.98734653
_cell_angle_gamma   89.95629605
_symmetry_Int_Tables_number   1
_chemical_formula_structural   V35Zn35O128
_chemical_formula_sum   'V70 Zn70 O256'
_cell_volume   4776.66444085
_cell_formula_units_Z   2
loop_
 _symmetry_equiv_pos_site_id
 _symmetry_equiv_pos_as_xyz
  1  'x, y, z'
loop_
 _atom_site_type_symbol
 _atom_site_label
 _atom_site_symmetry_multiplicity
 _atom_site_fract_x
 _atom_site_fract_y
 _atom_site_fract_z
 _atom_site_occupancy
  V  V0  1  0.37951126  -0.00125650  0.89653465  1
  V  V1  1  0.00518031  0.26390319  0.24431700  1
  V  V2  1  0.63426613  0.24360375  0.88309358  1
  V  V3  1  0.12545046  0.23696338  0.38681480  1
  V  V4  1  0.23684730  0.00292950  0.24831601  1
  V  V5  1  0.87073924  0.12232552  0.75450099  1
  V  V6  1  0.13477268  0.75812606  0.37617698  1
  V  V7  1  -0.01142006  0.12171570  0.12735109  1
  V  V8  1  0.62939725  0.38140153  0.75109878  1
  V  V9  1  0.00019267  0.49286753  0.51093152  1
  V  V10  1  0.35588351  0.61709221  0.25829957  1
  V  V11  1  0.23943772  0.36821279  0.12302647  1
  V  V12  1  0.87198544  0.25146530  0.61153314  1
  V  V13  1  0.75644608  0.37328409  0.61268652  1
  V  V14  1  0.26246554  0.75077823  0.50427878  1
  V  V15  1  0.50262520  0.88289574  0.90316777  1
  V  V16  1  0.38137623  0.74868282  0.12813089  1
  V  V17  1  0.25004544  0.11876045  0.87467262  1
  V  V18  1  0.73169678  0.38182459  0.11774767  1
  V  V19  1  0.26788160  0.12080388  0.38034166  1
  V  V20  1  0.87187359  -0.00776385  0.88130492  1
  V  V21  1  0.37714195  0.11938558  0.74862425  1
  V  V22  1  0.13867666  -0.01619422  0.63575112  1
  V  V23  1  0.38922982  0.73949465  0.64273488  1
  V  V24  1  0.48859839  0.51407587  0.01849801  1
  V  V25  1  0.50028159  0.62054524  0.63991520  1
  V  V26  1  0.37716427  0.25241507  0.13342771  1
  V  V27  1  0.13062677  0.25525951  0.87776180  1
  V  V28  1  0.88093089  0.62513106  0.23977493  1
  V  V29  1  0.13667216  0.75378897  0.85881088  1
  V  V30  1  0.74607917  -0.00300880  0.74426577  1
  V  V31  1  0.12725749  0.12157955  0.00579990  1
  V  V32  1  0.37565242  0.37369922  -0.01263338  1
  V  V33  1  0.75759908  0.75187562  0.00587427  1
  V  V34  1  0.87597794  0.49740543  0.37899036  1
  V  V35  1  0.50690966  0.89158639  0.37258559  1
  V  V36  1  0.11768940  0.62832116  -0.00385488  1
  V  V37  1  0.50070203  0.25430114  0.75291891  1
  V  V38  1  0.63641253  0.50353666  0.60960911  1
  V  V39  1  0.62783889  0.10682064  0.00684414  1
  V  V40  1  0.38555183  0.88177695  0.49620916  1
  V  V41  1  0.25263515  0.75416772  0.00592760  1
  V  V42  1  0.61181234  0.87722687  0.74716649  1
  V  V43  1  0.13138972  0.61903773  0.50639268  1
  V  V44  1  0.00800958  0.12418607  0.61654765  1
  V  V45  1  0.63386012  0.12114407  0.49993443  1
  V  V46  1  0.86827864  0.01291466  0.36461625  1
  V  V47  1  0.62416370  0.74740724  0.88400253  1
  V  V48  1  0.87044852  0.26744010  0.11224238  1
  V  V49  1  0.13693667  0.37530289  0.72878302  1
  V  V50  1  0.76835617  0.87369584  0.13177239  1
  V  V51  1  0.63045003  0.89284610  0.24609770  1
  V  V52  1  0.00144511  0.74230525  0.23975564  1
  V  V53  1  0.75232174  0.86658940  0.61667705  1
  V  V54  1  -0.00654357  0.48502998  -0.01765583  1
  V  V55  1  0.49837507  0.11008735  0.12858853  1
  V  V56  1  0.00328546  -0.01263715  0.00236099  1
  V  V57  1  0.74538907  0.49769187  0.24835389  1
  V  V58  1  0.36775540  0.26004245  0.61204212  1
  V  V59  1  0.51007669  0.72318447  0.25679596  1
  V  V60  1  -0.00875086  0.86927935  0.37280668  1
  V  V61  1  0.00029177  -0.01409182  0.50214747  1
  V  V62  1  0.11818615  0.50755022  0.12783454  1
  V  V63  1  -0.00150307  0.25151373  0.75922219  1
  V  V64  1  0.00525896  0.86863649  0.85063959  1
  V  V65  1  0.64965617  0.25719819  0.37679232  1
  V  V66  1  0.48840555  0.50373498  0.49358092  1
  V  V67  1  0.47653407  0.37467363  0.37860543  1
  V  V68  1  0.00040681  0.63317738  0.63858597  1
  V  V69  1  0.84676335  0.61585433  0.76969843  1
  Zn  Zn70  1  0.88177254  0.75607463  0.64897613  1
  Zn  Zn71  1  0.00769387  0.37770040  0.37248190  1
  Zn  Zn72  1  0.50229573  0.11050292  0.61866272  1
  Zn  Zn73  1  0.50759783  0.25370516  0.25265235  1
  Zn  Zn74  1  0.24287335  0.88337922  0.12894746  1
  Zn  Zn75  1  0.24508092  0.49107789  0.25315101  1
  Zn  Zn76  1  0.19057774  0.18441790  0.19110050  1
  Zn  Zn77  1  0.19066808  0.18627274  0.68734665  1
  Zn  Zn78  1  0.18130886  0.69153301  0.18580910  1
  Zn  Zn79  1  0.20261232  0.67550550  0.68045758  1
  Zn  Zn80  1  0.68225211  0.19643690  0.19075983  1
  Zn  Zn81  1  0.68576073  0.18486617  0.68208449  1
  Zn  Zn82  1  0.69523028  0.67455436  0.17936437  1
  Zn  Zn83  1  0.68197420  0.69051166  0.69582665  1
  Zn  Zn84  1  0.30264914  0.31080415  0.31291758  1
  Zn  Zn85  1  0.31092915  0.31022870  0.80944249  1
  Zn  Zn86  1  0.32140173  0.81448479  0.31325178  1
  Zn  Zn87  1  0.31467731  0.82330429  0.81312111  1
  Zn  Zn88  1  0.82433151  0.31503735  0.30166569  1
  Zn  Zn89  1  0.80204284  0.30429154  0.80328475  1
  Zn  Zn90  1  0.81505482  0.80886588  0.31687411  1
  Zn  Zn91  1  0.81121661  0.80769210  0.81626187  1
  Zn  Zn92  1  0.18533137  0.41432060  0.43441605  1
  Zn  Zn93  1  0.19607179  0.44331784  0.93610172  1
  Zn  Zn94  1  0.18809775  0.94307662  0.44316484  1
  Zn  Zn95  1  0.18815495  0.93445842  0.93476493  1
  Zn  Zn96  1  0.68935920  0.43277175  0.42996355  1
  Zn  Zn97  1  0.64886395  0.42947025  0.94944199  1
  Zn  Zn98  1  0.68924476  0.93826356  0.43052101  1
  Zn  Zn99  1  0.69303861  0.93173113  0.94561116  1
  Zn  Zn100  1  0.31134465  0.06787009  0.07155065  1
  Zn  Zn101  1  0.31204365  0.06762662  0.56239938  1
  Zn  Zn102  1  0.30530167  0.56707730  0.06470193  1
  Zn  Zn103  1  0.29557999  0.54241409  0.43514367  1
  Zn  Zn104  1  0.78093031  0.08270134  0.11796703  1
  Zn  Zn105  1  0.81601109  0.06007891  0.55688155  1
  Zn  Zn106  1  0.82002159  0.55983572  0.06211022  1
  Zn  Zn107  1  0.82376903  0.56737991  0.56930473  1
  Zn  Zn108  1  0.43076907  0.43461930  0.18070630  1
  Zn  Zn109  1  0.44064964  0.43412792  0.67364483  1
  Zn  Zn110  1  0.43160087  0.92964441  0.19521279  1
  Zn  Zn111  1  0.41316686  0.92990272  0.68938689  1
  Zn  Zn112  1  0.93920217  0.44431918  0.18009471  1
  Zn  Zn113  1  0.94195083  0.44176877  0.69856929  1
  Zn  Zn114  1  0.94599248  0.93245570  0.18898453  1
  Zn  Zn115  1  0.93202564  0.93791595  0.68404948  1
  Zn  Zn116  1  0.06082354  0.05686390  0.30907544  1
  Zn  Zn117  1  0.06142435  0.06159559  0.81104565  1
  Zn  Zn118  1  0.09813612  0.54605151  0.33636617  1
  Zn  Zn119  1  0.09403606  0.55037313  0.81477370  1
  Zn  Zn120  1  0.57161778  0.07607209  0.31062497  1
  Zn  Zn121  1  0.56092961  0.06477858  0.81840181  1
  Zn  Zn122  1  0.53520697  0.51578477  0.27645373  1
  Zn  Zn123  1  0.56332235  0.55302286  0.82939382  1
  Zn  Zn124  1  0.44606396  0.18088474  0.43741819  1
  Zn  Zn125  1  0.44344305  0.19082490  0.94280018  1
  Zn  Zn126  1  0.44471855  0.67260239  0.43297421  1
  Zn  Zn127  1  0.44587587  0.70022340  0.94516299  1
  Zn  Zn128  1  0.93807035  0.18645411  0.43057667  1
  Zn  Zn129  1  0.93362473  0.18043038  0.94134032  1
  Zn  Zn130  1  0.97333380  0.65514976  0.41191183  1
  Zn  Zn131  1  0.93978326  0.68400572  0.92370118  1
  Zn  Zn132  1  0.05688314  0.31274297  0.05373007  1
  Zn  Zn133  1  0.06221482  0.30514785  0.56165394  1
  Zn  Zn134  1  0.07066786  0.81379628  0.06518991  1
  Zn  Zn135  1  0.07000238  0.80988460  0.56759958  1
  Zn  Zn136  1  0.55371787  0.31953612  0.06117103  1
  Zn  Zn137  1  0.55522281  0.30460125  0.55532873  1
  Zn  Zn138  1  0.56849748  0.80675688  0.07373625  1
  Zn  Zn139  1  0.56083675  0.94797381  0.56544745  1
  O  O140  1  0.11684641  0.13091788  0.10852155  1
  O  O141  1  0.10914157  0.12466924  0.62996412  1
  O  O142  1  0.12733249  0.61599458  0.11265818  1
  O  O143  1  0.11901170  0.63263294  0.61245812  1
  O  O144  1  0.60868726  0.13051753  0.11797332  1
  O  O145  1  0.62083620  0.12900019  0.61021894  1
  O  O146  1  0.66920415  0.61862757  0.07519776  1
  O  O147  1  0.62194111  0.60772733  0.63216892  1
  O  O148  1  0.37529659  0.37907483  0.37488226  1
  O  O149  1  0.36631235  0.37424924  0.88727304  1
  O  O150  1  0.39610602  0.86452422  0.38631506  1
  O  O151  1  0.38962010  0.88876073  0.88364555  1
  O  O152  1  0.88985301  0.39183710  0.36572455  1
  O  O153  1  0.84830913  0.39569839  0.87394142  1
  O  O154  1  0.88876439  0.87742333  0.38000345  1
  O  O155  1  0.89193498  0.88270976  0.86745531  1
  O  O156  1  0.24219533  0.01356852  0.36967124  1
  O  O157  1  0.26489097  0.00618135  0.88052558  1
  O  O158  1  0.20986928  0.50590213  0.36047406  1
  O  O159  1  0.20037415  0.51838738  0.85494151  1
  O  O160  1  0.77013547  -0.00932085  0.37176513  1
  O  O161  1  0.76706625  -0.01220695  0.86954707  1
  O  O162  1  0.76762246  0.49209798  0.36577715  1
  O  O163  1  0.80340013  0.45474070  0.87764920  1
  O  O164  1  0.23343438  0.49220173  0.12555761  1
  O  O165  1  0.29715903  0.53252480  0.69420412  1
  O  O166  1  0.25087809  1.00301924  0.14004164  1
  O  O167  1  0.23584502  1.00639246  0.62101539  1
  O  O168  1  0.75820384  0.49228878  0.13803970  1
  O  O169  1  0.74546237  0.49092882  0.61937702  1
  O  O170  1  0.75779689  0.97274628  0.12185883  1
  O  O171  1  0.75860225  0.99057219  0.63998549  1
  O  O172  1  0.00493165  0.36616706  0.24172305  1
  O  O173  1  0.00499239  0.35451369  0.74413041  1
  O  O174  1  -0.00011967  0.85871982  0.26584198  1
  O  O175  1  0.00193529  0.87331787  0.75169336  1
  O  O176  1  0.49736018  0.39911349  0.27115347  1
  O  O177  1  0.51323727  0.36328420  0.73976759  1
  O  O178  1  0.51435921  0.86355697  0.25752149  1
  O  O179  1  0.51193892  0.88347608  0.75474112  1
  O  O180  1  0.50376166  0.13209535  0.23280000  1
  O  O181  1  0.49211787  0.13480764  0.75239269  1
  O  O182  1  0.48513039  0.62095776  0.25422232  1
  O  O183  1  0.50195128  0.59638579  0.73837898  1
  O  O184  1  1.00385754  0.12284241  0.22806580  1
  O  O185  1  0.98972619  0.12984773  0.73995596  1
  O  O186  1  0.99649819  0.63732140  0.25896793  1
  O  O187  1  1.02327585  0.61744409  0.73472292  1
  O  O188  1  0.38148884  0.26725234  0.00807105  1
  O  O189  1  0.38405435  0.24229309  0.51452029  1
  O  O190  1  0.36389666  0.74531119  0.01409765  1
  O  O191  1  0.36515227  0.74125049  0.48779963  1
  O  O192  1  0.88021361  0.25091490  0.01189821  1
  O  O193  1  0.88437915  0.25048375  0.51353250  1
  O  O194  1  0.85453747  0.73285110  -0.00909628  1
  O  O195  1  0.80106524  0.70576997  0.46191989  1
  O  O196  1  0.11502965  0.23885422  0.48667465  1
  O  O197  1  0.11281215  0.23351889  0.98419734  1
  O  O198  1  0.14192871  0.74775711  0.49742811  1
  O  O199  1  0.13431271  0.74405129  0.99708720  1
  O  O200  1  0.62521467  0.24193673  0.48831914  1
  O  O201  1  0.61843571  0.26503107  0.98170340  1
  O  O202  1  0.63036267  0.75605668  0.51265858  1
  O  O203  1  0.62921992  0.75426866  0.99116893  1
  O  O204  1  0.48594537  0.26193022  0.13405672  1
  O  O205  1  0.49121497  0.24433055  0.63759576  1
  O  O206  1  0.48827255  0.74843840  0.13719224  1
  O  O207  1  0.50156693  0.72658298  0.63850179  1
  O  O208  1  0.99472147  0.24268794  0.12583887  1
  O  O209  1  0.98997670  0.23919321  0.63348790  1
  O  O210  1  1.00703896  0.74940957  0.14152371  1
  O  O211  1  0.99855140  0.73879872  0.62257502  1
  O  O212  1  0.00323638  0.24925220  0.35719491  1
  O  O213  1  0.00760881  0.23738230  0.86344901  1
  O  O214  1  0.00555692  0.76283815  0.38341410  1
  O  O215  1  0.01337577  0.76375672  0.87319857  1
  O  O216  1  0.48958339  0.26915271  0.36993428  1
  O  O217  1  0.50819069  0.24879602  0.85974123  1
  O  O218  1  0.50091710  0.74354574  0.35832481  1
  O  O219  1  0.50781460  0.77252745  0.88308035  1
  O  O220  1  0.25487341  0.12244084  0.48099324  1
  O  O221  1  0.23373785  0.11877877  0.99407651  1
  O  O222  1  0.23661336  0.63307376  0.49563701  1
  O  O223  1  0.23882008  0.64168377  1.00018125  1
  O  O224  1  0.73726730  0.12190074  0.50528014  1
  O  O225  1  0.72719713  0.12466056  1.02105927  1
  O  O226  1  0.76314159  0.64175817  0.49277048  1
  O  O227  1  0.73229216  0.63320080  1.02308718  1
  O  O228  1  0.26229867  0.38509165  0.00973742  1
  O  O229  1  0.25871377  0.45188300  0.50439213  1
  O  O230  1  0.24160380  0.86161894  0.00723205  1
  O  O231  1  0.26784029  0.85914767  0.49194864  1
  O  O232  1  0.73342111  0.40068967  0.01606429  1
  O  O233  1  0.75240178  0.37433830  0.51384410  1
  O  O234  1  0.75351264  0.86203715  0.01550885  1
  O  O235  1  0.73955436  0.87987095  0.51864652  1
  O  O236  1  0.11057461  0.50641127  0.22882605  1
  O  O237  1  0.10914868  0.47234171  0.73071807  1
  O  O238  1  0.13513626  0.99228964  0.25265271  1
  O  O239  1  0.12039352  1.00383299  0.73446173  1
  O  O240  1  0.64736173  0.51530783  0.25695692  1
  O  O241  1  0.62020048  0.48318539  0.74800642  1
  O  O242  1  0.63070373  0.99173320  0.25019378  1
  O  O243  1  0.63999521  0.99529711  0.76304136  1
  O  O244  1  0.35099246  -0.02508703  0.26244720  1
  O  O245  1  0.38387378  0.02012867  0.77051412  1
  O  O246  1  0.36489817  0.51420802  0.23764182  1
  O  O247  1  0.35287462  0.49389229  0.73481158  1
  O  O248  1  0.89446378  -0.00400987  0.26741734  1
  O  O249  1  0.86786360  0.00423894  0.75758204  1
  O  O250  1  0.87900879  0.50822925  0.25680884  1
  O  O251  1  0.87741648  0.51889471  0.74544178  1
  O  O252  1  0.12106884  0.35009968  0.37328183  1
  O  O253  1  0.12938165  0.35547677  0.87440547  1
  O  O254  1  0.11715065  0.86240594  0.38654698  1
  O  O255  1  0.11670375  0.86722100  0.87014106  1
  O  O256  1  0.61816789  0.35954730  0.38228705  1
  O  O257  1  0.63222560  0.36170409  0.85551389  1
  O  O258  1  0.61733588  0.87331710  0.36251123  1
  O  O259  1  0.61273871  0.87943159  0.87305656  1
  O  O260  1  0.38554545  0.14490681  0.11484172  1
  O  O261  1  0.37647444  0.12572147  0.64217306  1
  O  O262  1  0.36366354  0.63949726  0.13884251  1
  O  O263  1  0.39261701  0.63220831  0.62424084  1
  O  O264  1  0.88736053  0.13522937  0.11572459  1
  O  O265  1  0.87965731  0.13546294  0.63254612  1
  O  O266  1  0.88744124  0.61832275  0.14046092  1
  O  O267  1  0.88732134  0.63364797  0.63869897  1
  O  O268  1  0.25641540  0.25914579  0.12364478  1
  O  O269  1  0.26824797  0.23959905  0.62721668  1
  O  O270  1  0.25293725  0.75211366  0.11712626  1
  O  O271  1  0.27225033  0.73995646  0.61101962  1
  O  O272  1  0.76090706  0.27124219  0.12818661  1
  O  O273  1  0.76370422  0.25673249  0.62690975  1
  O  O274  1  0.74582364  0.75695228  0.11426883  1
  O  O275  1  0.74560365  0.76379954  0.63102572  1
  O  O276  1  0.23422247  0.23378899  0.36470368  1
  O  O277  1  0.23676546  0.23673021  0.87389257  1
  O  O278  1  0.23874282  0.75219612  0.37919496  1
  O  O279  1  0.24437649  0.76515164  0.88656489  1
  O  O280  1  0.75011772  0.26243053  0.37332518  1
  O  O281  1  0.73506063  0.24170127  0.87042545  1
  O  O282  1  0.76196009  0.73616784  0.39915638  1
  O  O283  1  0.73409595  0.76295051  0.89151321  1
  O  O284  1  0.00842299  0.11319740  0.00464018  1
  O  O285  1  -0.00330787  0.12124731  0.51417229  1
  O  O286  1  0.01557512  0.63387059  -0.00117090  1
  O  O287  1  0.00732533  0.61802852  0.51613963  1
  O  O288  1  0.51003123  0.13188623  0.01617846  1
  O  O289  1  0.51524124  0.12081435  0.50147836  1
  O  O290  1  0.48444640  0.61485244  0.00624739  1
  O  O291  1  0.50628691  0.61089147  0.51065179  1
  O  O292  1  0.49963201  0.38701292  0.48951871  1
  O  O293  1  0.48241798  0.39067809  1.00261445  1
  O  O294  1  0.50121043  0.88106200  0.48312006  1
  O  O295  1  0.50666606  0.87973400  1.00161804  1
  O  O296  1  1.00600810  0.39039066  0.50748296  1
  O  O297  1  1.00146314  0.38373375  0.98472942  1
  O  O298  1  0.99892669  0.88126637  0.49878868  1
  O  O299  1  1.00605491  0.88585588  0.99952807  1
  O  O300  1  0.50696497  0.49474067  0.38924806  1
  O  O301  1  0.39526540  0.56338051  0.85481181  1
  O  O302  1  0.50190591  0.98929287  0.35913166  1
  O  O303  1  0.49144394  0.99468691  0.88191087  1
  O  O304  1  1.00103857  0.50035096  0.39045438  1
  O  O305  1  1.01025051  0.51040537  0.88534680  1
  O  O306  1  1.00354140  0.98594720  0.38672989  1
  O  O307  1  0.99809934  0.98563143  0.87844062  1
  O  O308  1  -0.00816345  0.00750991  0.11057098  1
  O  O309  1  -0.00216813  0.00891509  0.61767143  1
  O  O310  1  0.01503981  0.49070084  0.10454458  1
  O  O311  1  -0.00915988  0.51061248  0.61487085  1
  O  O312  1  0.48592636  0.01102978  0.13140170  1
  O  O313  1  0.48746083  -0.00425721  0.63503701  1
  O  O314  1  0.51034793  0.49811009  0.11704131  1
  O  O315  1  0.51508991  0.49943161  0.61192002  1
  O  O316  1  0.24916354  0.37538140  0.22921909  1
  O  O317  1  0.23544160  0.37177498  0.75315848  1
  O  O318  1  0.25611376  0.88788692  0.25517805  1
  O  O319  1  0.31187803  0.89551841  0.72820741  1
  O  O320  1  0.75627825  0.39148359  0.24091273  1
  O  O321  1  0.73558213  0.36787055  0.73364575  1
  O  O322  1  0.73785900  0.85815333  0.24574448  1
  O  O323  1  0.74641637  0.88626262  0.74864647  1
  O  O324  1  0.24819054  0.11160812  0.25757664  1
  O  O325  1  0.26603152  0.13072880  0.76334341  1
  O  O326  1  0.25320523  0.62678007  0.25122455  1
  O  O327  1  0.26361045  0.59038803  0.73742427  1
  O  O328  1  0.75719261  0.11956313  0.22100100  1
  O  O329  1  0.75900037  0.11139292  0.74440922  1
  O  O330  1  0.77009228  0.61392417  0.24579391  1
  O  O331  1  0.74568077  0.61590838  0.75532829  1
  O  O332  1  0.36736937  0.13034924  0.36886495  1
  O  O333  1  0.37029687  0.12061245  0.87759376  1
  O  O334  1  0.36518380  0.61548481  0.36534045  1
  O  O335  1  0.36893182  0.63141612  0.86809229  1
  O  O336  1  0.87758052  0.11375065  0.37248221  1
  O  O337  1  0.88460257  0.10724588  0.86429441  1
  O  O338  1  0.88339520  0.60622148  0.36379682  1
  O  O339  1  0.86502066  0.61810334  0.87015248  1
  O  O340  1  0.13522823  0.38107251  0.10862967  1
  O  O341  1  0.13609651  0.35201528  0.63077043  1
  O  O342  1  0.13010129  0.86746540  0.14071123  1
  O  O343  1  0.12989087  0.88279240  0.62919830  1
  O  O344  1  0.63328959  0.36924560  0.13203502  1
  O  O345  1  0.63556038  0.38381629  0.62681511  1
  O  O346  1  0.62904083  0.87159084  0.14398775  1
  O  O347  1  0.63383443  0.88281323  0.64267665  1
  O  O348  1  0.10769615  0.24405752  0.24361553  1
  O  O349  1  0.11576247  0.24822061  0.75969063  1
  O  O350  1  0.11428745  0.74133402  0.26971289  1
  O  O351  1  0.15141796  0.74243889  0.76092693  1
  O  O352  1  0.62346143  0.25077750  0.27034255  1
  O  O353  1  0.61611803  0.24868012  0.75463282  1
  O  O354  1  0.61040010  0.72222975  0.23965314  1
  O  O355  1  0.63119064  0.77228845  0.76672289  1
  O  O356  1  0.37283696  0.25584137  0.23546205  1
  O  O357  1  0.38730466  0.24352137  0.75123420  1
  O  O358  1  0.38138702  0.73612041  0.24690740  1
  O  O359  1  0.37315218  0.74537404  0.74036321  1
  O  O360  1  0.89247446  0.25317777  0.23004583  1
  O  O361  1  0.88378765  0.24163369  0.75074856  1
  O  O362  1  0.88774699  0.73622316  0.25883533  1
  O  O363  1  0.86874115  0.72766509  0.76001664  1
  O  O364  1  0.39043293  0.50876634  0.50043045  1
  O  O365  1  0.38085747  0.49493279  1.00863467  1
  O  O366  1  0.37023952  0.97836059  0.50868194  1
  O  O367  1  0.37505551  1.00738184  0.99498394  1
  O  O368  1  0.88662568  0.50511188  0.48929872  1
  O  O369  1  0.89504479  0.50762408  0.99900736  1
  O  O370  1  0.89297027  1.00410327  0.48990358  1
  O  O371  1  0.89077306  1.00093681  0.98267234  1
  O  O372  1  0.11262885  0.00936089  -0.00870984  1
  O  O373  1  0.10875595  -0.00357067  0.51531904  1
  O  O374  1  0.11914742  0.51554190  0.00180583  1
  O  O375  1  0.11319746  0.51429555  0.49958010  1
  O  O376  1  0.62388160  0.00724782  -0.00176404  1
  O  O377  1  0.62534221  0.01074787  0.49298240  1
  O  O378  1  0.56526537  0.50252155  -0.06484164  1
  O  O379  1  0.63142825  0.50128560  0.50831040  1
  O  O380  1  0.36212831  0.36717736  0.11681109  1
  O  O381  1  0.37354240  0.36066608  0.62308973  1
  O  O382  1  0.36689448  0.85276583  0.13487708  1
  O  O383  1  0.39961900  0.84280575  0.59873160  1
  O  O384  1  0.87390040  0.37033011  0.11719239  1
  O  O385  1  0.86690274  0.36301085  0.63389127  1
  O  O386  1  0.86803378  0.86233430  0.14137943  1
  O  O387  1  0.86114428  0.86855909  0.62784252  1
  O  O388  1  0.11620844  0.13511469  0.36989463  1
  O  O389  1  0.13251331  0.12593432  0.87888808  1
  O  O390  1  0.10388393  0.64594503  0.39815196  1
  O  O391  1  0.12279715  0.64790277  0.88452284  1
  O  O392  1  0.62551140  0.14188099  0.38520632  1
  O  O393  1  0.61721751  0.13463360  0.89410419  1
  O  O394  1  0.61907487  0.70948692  0.45876386  1
  O  O395  1  0.61341043  0.65064219  0.86633384  1
