# generated using pymatgen
data_V35Zn35O128
_symmetry_space_group_name_H-M   'P 1'
_cell_length_a   16.87288292
_cell_length_b   16.84392645
_cell_length_c   16.89406647
_cell_angle_alpha   89.93348090
_cell_angle_beta   90.12839605
_cell_angle_gamma   90.02867255
_symmetry_Int_Tables_number   1
_chemical_formula_structural   V35Zn35O128
_chemical_formula_sum   'V70 Zn70 O256'
_cell_volume   4801.37239263
_cell_formula_units_Z   2
loop_
 _symmetry_equiv_pos_site_id
 _symmetry_equiv_pos_as_xyz
  1  'x, y, z'
loop_
 _atom_site_type_symbol
 _atom_site_label
 _atom_site_symmetry_multiplicity
 _atom_site_fract_x
 _atom_site_fract_y
 _atom_site_fract_z
 _atom_site_occupancy
  V  V0  1  0.36954344  0.62270720  0.75256186  1
  V  V1  1  0.75119271  0.49737662  0.75949614  1
  V  V2  1  0.25438468  0.11506064  0.37110256  1
  V  V3  1  0.63817212  0.12799543  0.49472106  1
  V  V4  1  0.75421915  0.25281427  0.01352503  1
  V  V5  1  0.74401944  0.75942816  -0.00397740  1
  V  V6  1  -0.01919245  0.37752970  0.88302283  1
  V  V7  1  0.24868317  0.87343334  0.61044147  1
  V  V8  1  0.50516527  0.24401766  0.74620553  1
  V  V9  1  0.38362976  0.74286434  0.13791974  1
  V  V10  1  0.38674998  0.86494809  -0.00620199  1
  V  V11  1  0.02750687  0.25787314  0.73631570  1
  V  V12  1  0.72342189  0.13178103  0.88531567  1
  V  V13  1  0.61023673  0.86796526  0.76004814  1
  V  V14  1  0.25974622  0.37412346  0.13333985  1
  V  V15  1  0.01032467  0.73872869  0.21414764  1
  V  V16  1  0.41034561  0.13314572  0.21614095  1
  V  V17  1  0.61982982  0.00379581  0.61845428  1
  V  V18  1  -0.00073141  0.39221739  0.39018026  1
  V  V19  1  0.49888339  0.61430769  0.09792964  1
  V  V20  1  0.12191945  0.51205608  0.10396100  1
  V  V21  1  0.87578019  0.89182240  -0.00465587  1
  V  V22  1  0.38227421  0.01057500  0.88104957  1
  V  V23  1  0.62746116  0.75057467  0.37102010  1
  V  V24  1  0.15035504  0.61886948  0.50583721  1
  V  V25  1  0.25367769  0.26527557  0.50445938  1
  V  V26  1  0.12283711  0.12949739  0.50313126  1
  V  V27  1  0.63810264  0.25197567  0.37738382  1
  V  V28  1  0.26479084  0.61224608  0.35297298  1
  V  V29  1  0.24510267  0.87353966  0.13686563  1
  V  V30  1  0.87033400  0.13116919  0.75831880  1
  V  V31  1  0.62864440  0.50139659  0.62507708  1
  V  V32  1  0.24816077  0.74496855  -0.01582599  1
  V  V33  1  0.12672131  0.38997090  0.25115826  1
  V  V34  1  0.62361866  0.37815061  0.24568524  1
  V  V35  1  0.62349151  0.00649622  0.12442183  1
  V  V36  1  -0.00383339  0.24204795  0.24321804  1
  V  V37  1  0.36735845  0.75522596  0.61338424  1
  V  V38  1  0.86297803  0.25647460  0.60883024  1
  V  V39  1  0.48430303  0.36927720  0.37971867  1
  V  V40  1  0.75811318  0.74978955  0.50327701  1
  V  V41  1  0.00820163  0.60883760  0.63034153  1
  V  V42  1  0.86959882  0.62724618  0.75269094  1
  V  V43  1  0.13186664  0.86805860  0.75869793  1
  V  V44  1  0.24892340  0.00680618  0.75637416  1
  V  V45  1  -0.00420128  0.89253697  0.87480129  1
  V  V46  1  0.47656583  0.87595246  0.38398852  1
  V  V47  1  -0.01151609  0.75197159  0.75170707  1
  V  V48  1  0.48438800  0.00579132  0.49633342  1
  V  V49  1  0.37416210  0.27292480  0.62112963  1
  V  V50  1  0.12978406  0.25711415  0.88785733  1
  V  V51  1  0.85876387  0.11854782  0.24998342  1
  V  V52  1  0.48137901  0.49736515  0.50063691  1
  V  V53  1  0.37330714  0.38018015  -0.02468420  1
  V  V54  1  0.24015792  0.60881565  0.87251021  1
  V  V55  1  0.88771238  0.88498565  0.50389850  1
  V  V56  1  0.49680391  0.63736623  0.62870676  1
  V  V57  1  0.77722838  0.37531902  0.13193039  1
  V  V58  1  0.11914967  0.00096362  0.62247303  1
  V  V59  1  0.77148387  0.87579590  0.14586764  1
  V  V60  1  0.37284520  0.12347204  0.73370938  1
  V  V61  1  0.73619374  0.63739407  0.88173917  1
  V  V62  1  0.84892641  0.50109808  0.37050092  1
  V  V63  1  0.12212573  0.25452167  0.37738954  1
  V  V64  1  0.60541330  0.88513521  0.25681228  1
  V  V65  1  0.51220108  0.38739400  0.86565516  1
  V  V66  1  -0.00928385  0.12140921  0.61693883  1
  V  V67  1  0.74934928  0.00402669  0.75374259  1
  V  V68  1  0.62530581  0.62946413  0.49940411  1
  V  V69  1  0.75110075  0.87258076  0.62689648  1
  Zn  Zn70  1  0.25165132  0.24835977  0.00549478  1
  Zn  Zn71  1  0.89793043  0.62605803  0.28010580  1
  Zn  Zn72  1  0.75498284  0.37955840  0.60817650  1
  Zn  Zn73  1  0.04199141  0.84422655  0.35498528  1
  Zn  Zn74  1  0.50762937  -0.00027891  0.00197195  1
  Zn  Zn75  1  0.62884332  0.36823155  0.74465248  1
  Zn  Zn76  1  0.18543012  0.19130152  0.19250998  1
  Zn  Zn77  1  0.18611410  0.19653560  0.68843073  1
  Zn  Zn78  1  0.19405826  0.68907033  0.18192857  1
  Zn  Zn79  1  0.18787466  0.68774132  0.69025273  1
  Zn  Zn80  1  0.68715197  0.19227046  0.19713339  1
  Zn  Zn81  1  0.68913814  0.18523880  0.67828116  1
  Zn  Zn82  1  0.66909708  0.70940344  0.17026448  1
  Zn  Zn83  1  0.68431182  0.69029097  0.68953234  1
  Zn  Zn84  1  0.31235025  0.29928124  0.30746598  1
  Zn  Zn85  1  0.30507222  0.30763627  0.81124161  1
  Zn  Zn86  1  0.24345990  0.81883428  0.34553979  1
  Zn  Zn87  1  0.37458832  0.79467999  0.82467601  1
  Zn  Zn88  1  0.81728572  0.31310636  0.31396046  1
  Zn  Zn89  1  0.80887277  0.30692043  0.81195769  1
  Zn  Zn90  1  0.87742078  0.80557942  0.31342204  1
  Zn  Zn91  1  0.80908222  0.82028452  0.81377592  1
  Zn  Zn92  1  0.18968675  0.45160212  0.43971785  1
  Zn  Zn93  1  0.18605339  0.43147490  0.94024551  1
  Zn  Zn94  1  0.12774928  0.97308365  0.39793436  1
  Zn  Zn95  1  0.20282874  0.92567134  0.93434082  1
  Zn  Zn96  1  0.68247398  0.44169768  0.43245060  1
  Zn  Zn97  1  0.71328501  0.44134252  0.94946059  1
  Zn  Zn98  1  0.69629784  0.94128111  0.43291043  1
  Zn  Zn99  1  0.68662892  0.94436195  0.93647680  1
  Zn  Zn100  1  0.31950495  0.05506717  0.07817298  1
  Zn  Zn101  1  0.30172144  0.06212504  0.55897131  1
  Zn  Zn102  1  0.30936011  0.55723693  0.06222417  1
  Zn  Zn103  1  0.30697027  0.53894708  0.60129955  1
  Zn  Zn104  1  0.80678625  0.06482068  0.06855189  1
  Zn  Zn105  1  0.81163477  0.05851651  0.55949430  1
  Zn  Zn106  1  0.63444365  0.51533471  0.11162090  1
  Zn  Zn107  1  0.81666058  0.56729966  0.56719529  1
  Zn  Zn108  1  0.44904213  0.43517622  0.18840577  1
  Zn  Zn109  1  0.44134591  0.44556794  0.69292078  1
  Zn  Zn110  1  0.42568516  0.94654397  0.18770169  1
  Zn  Zn111  1  0.43486369  0.93990315  0.68248548  1
  Zn  Zn112  1  0.94997401  0.45231656  0.19944904  1
  Zn  Zn113  1  0.93256362  0.43453660  0.69577597  1
  Zn  Zn114  1  0.95647671  0.94393074  0.19515476  1
  Zn  Zn115  1  0.93300270  0.93965418  0.68958932  1
  Zn  Zn116  1  -0.09091346  -0.00005948  0.37227507  1
  Zn  Zn117  1  0.06450343  0.07730486  0.80454007  1
  Zn  Zn118  1  0.07749112  0.57778368  0.32187565  1
  Zn  Zn119  1  0.04412253  0.57563820  0.84778144  1
  Zn  Zn120  1  0.55519735  0.06637551  0.31581398  1
  Zn  Zn121  1  0.55927011  0.05861122  0.80575648  1
  Zn  Zn122  1  0.56689243  0.55357745  0.31942717  1
  Zn  Zn123  1  0.56248798  0.56873878  0.81193893  1
  Zn  Zn124  1  0.43776202  0.18625344  0.43739652  1
  Zn  Zn125  1  0.42560567  0.20170883  0.92526676  1
  Zn  Zn126  1  0.43853229  0.69473053  0.43737131  1
  Zn  Zn127  1  0.45095876  0.67949112  0.92843493  1
  Zn  Zn128  1  0.93347383  0.19152326  0.42847513  1
  Zn  Zn129  1  0.93950359  0.19734113  0.93681484  1
  Zn  Zn130  1  0.95084592  0.68267936  0.44966202  1
  Zn  Zn131  1  0.91973140  0.71217073  0.92444042  1
  Zn  Zn132  1  0.05908353  0.32110501  0.06436395  1
  Zn  Zn133  1  0.06074202  0.31455849  0.56912261  1
  Zn  Zn134  1  0.06764408  0.81266204  0.05150800  1
  Zn  Zn135  1  0.06757890  0.79897701  0.56743583  1
  Zn  Zn136  1  0.58842965  0.35461291  0.03074610  1
  Zn  Zn137  1  0.56106235  0.31195356  0.56133389  1
  Zn  Zn138  1  0.56192011  0.81257291  0.06757161  1
  Zn  Zn139  1  0.56109664  0.81943844  0.56326465  1
  O  O140  1  0.11706143  0.11028334  0.12608059  1
  O  O141  1  0.11382014  0.12188370  0.62218921  1
  O  O142  1  0.14574710  0.60968032  0.11338550  1
  O  O143  1  0.11336872  0.62298103  0.63092520  1
  O  O144  1  0.64297845  0.10365919  0.13625152  1
  O  O145  1  0.62677180  0.11480734  0.60984254  1
  O  O146  1  0.60341477  0.62600238  0.13356357  1
  O  O147  1  0.61590527  0.62322715  0.61913409  1
  O  O148  1  0.38518454  0.36618248  0.37138427  1
  O  O149  1  0.36848237  0.38301069  0.87185686  1
  O  O150  1  0.38064074  0.86672939  0.37733516  1
  O  O151  1  0.37240401  0.89116193  0.88832994  1
  O  O152  1  0.88944762  0.39133627  0.37006421  1
  O  O153  1  0.87979220  0.37037209  0.87330643  1
  O  O154  1  0.87001843  0.87967334  0.39906284  1
  O  O155  1  0.88591618  0.88216731  0.87883802  1
  O  O156  1  0.23255796  0.01742384  0.38757649  1
  O  O157  1  0.26154809  -0.00255412  0.86220967  1
  O  O158  1  0.26523399  0.51278269  0.38154211  1
  O  O159  1  0.24537244  0.50933348  0.87760591  1
  O  O160  1  0.78086366  -0.00727969  0.38199830  1
  O  O161  1  0.74342686  0.01900362  0.86293137  1
  O  O162  1  0.74942997  0.50324719  0.35956512  1
  O  O163  1  0.74306469  0.51524141  0.86564296  1
  O  O164  1  0.23838260  0.48170641  0.12011502  1
  O  O165  1  0.21117675  0.47096906  0.65240478  1
  O  O166  1  0.26631664  0.97343860  0.13313665  1
  O  O167  1  0.24195749  0.98993864  0.63423831  1
  O  O168  1  0.74185539  0.46909725  0.12538595  1
  O  O169  1  0.74270069  0.50489862  0.63875432  1
  O  O170  1  0.73820293  0.97703018  0.12399195  1
  O  O171  1  0.73942502  0.99454295  0.63058962  1
  O  O172  1  0.01606011  0.37371015  0.26524464  1
  O  O173  1  -0.01073269  0.35146091  0.75569246  1
  O  O174  1  -0.01341270  0.84584492  0.24383136  1
  O  O175  1  0.00537111  0.87004422  0.75317223  1
  O  O176  1  0.50771096  0.38112647  0.27327273  1
  O  O177  1  0.50173920  0.36700516  0.75031691  1
  O  O178  1  0.50186032  0.88211460  0.26537185  1
  O  O179  1  0.51110100  0.88387930  0.74445250  1
  O  O180  1  0.51133274  0.13538631  0.23760076  1
  O  O181  1  0.48962732  0.13777878  0.74960671  1
  O  O182  1  0.47081605  0.59250768  0.25323774  1
  O  O183  1  0.48816584  0.61823807  0.73531111  1
  O  O184  1  1.01056986  0.14547033  0.25155567  1
  O  O185  1  0.98418679  0.13716520  0.73715419  1
  O  O186  1  1.01066554  0.63327005  0.25017176  1
  O  O187  1  0.99142133  0.63782725  0.76035500  1
  O  O188  1  0.36584161  0.26753276  -0.00691870  1
  O  O189  1  0.36578705  0.25090560  0.51186498  1
  O  O190  1  0.37848208  0.76021303  -0.00344067  1
  O  O191  1  0.37671379  0.75635987  0.51492846  1
  O  O192  1  0.85581715  0.23024094  -0.00027607  1
  O  O193  1  0.87679398  0.24932677  0.51011303  1
  O  O194  1  0.86076159  0.77169771  -0.00142367  1
  O  O195  1  0.85918402  0.75398809  0.50141784  1
  O  O196  1  0.13440858  0.24925993  0.50133948  1
  O  O197  1  0.12632326  0.25244390  0.99202871  1
  O  O198  1  0.11237732  0.71758124  0.50723726  1
  O  O199  1  0.14896302  0.75398244  0.99079821  1
  O  O200  1  0.62201037  0.23592526  0.49851225  1
  O  O201  1  0.65156133  0.26544825  0.99470930  1
  O  O202  1  0.62614425  0.74437851  0.49655306  1
  O  O203  1  0.64341320  0.77264383  0.99787778  1
  O  O204  1  0.53593662  0.18195854  0.05183973  1
  O  O205  1  0.48292720  0.25682791  0.63207092  1
  O  O206  1  0.49293163  0.73352163  0.11739556  1
  O  O207  1  0.48954971  0.74607897  0.62008479  1
  O  O208  1  1.00580779  0.26143661  0.14455288  1
  O  O209  1  0.98060870  0.24046399  0.63148622  1
  O  O210  1  1.00496775  0.73970646  0.11301029  1
  O  O211  1  1.00467264  0.73850431  0.64893564  1
  O  O212  1  0.00928723  0.26569412  0.37311800  1
  O  O213  1  0.00954645  0.26017517  0.86418276  1
  O  O214  1  -0.02409062  0.75210999  0.36842484  1
  O  O215  1  -0.00004155  0.76773013  0.86062059  1
  O  O216  1  0.50850258  0.26653064  0.39306843  1
  O  O217  1  0.49002686  0.26207284  0.84934118  1
  O  O218  1  0.51415831  0.76910846  0.38557590  1
  O  O219  1  0.47699349  0.75966306  0.85963081  1
  O  O220  1  0.23701823  0.13677108  0.49999949  1
  O  O221  1  0.21921309  0.08170667  1.00840932  1
  O  O222  1  0.24661307  0.61383748  0.53722059  1
  O  O223  1  0.26516643  0.63359337  0.98097017  1
  O  O224  1  0.73767991  0.12039498  0.49537865  1
  O  O225  1  0.74061992  0.12681611  0.98972094  1
  O  O226  1  0.73953180  0.64049328  0.51223523  1
  O  O227  1  0.74917335  0.64667048  0.98624874  1
  O  O228  1  0.26082728  0.37281463  0.01022695  1
  O  O229  1  0.24414775  0.36373177  0.49949736  1
  O  O230  1  0.26714805  0.86283956  0.00643621  1
  O  O231  1  0.24765880  0.88276342  0.51577944  1
  O  O232  1  0.77204037  0.36282800  0.01564505  1
  O  O233  1  0.77835976  0.41405310  0.49625283  1
  O  O234  1  0.76425470  0.87518534  -0.01190195  1
  O  O235  1  0.75316861  0.86677333  0.51046750  1
  O  O236  1  0.13098148  0.48911094  0.25994410  1
  O  O237  1  0.22507929  0.44134089  0.72383062  1
  O  O238  1  0.09155145  1.04529245  0.16212299  1
  O  O239  1  0.13038792  0.99982337  0.74133277  1
  O  O240  1  0.62508667  0.48291857  0.25000429  1
  O  O241  1  0.63337734  0.50467901  0.73847949  1
  O  O242  1  0.62354029  0.98751480  0.25044176  1
  O  O243  1  0.63091456  0.99917440  0.73687258  1
  O  O244  1  0.38319800  0.03590684  0.24438688  1
  O  O245  1  0.37088939  0.00598282  0.75674321  1
  O  O246  1  0.41491550  0.53962617  0.25656893  1
  O  O247  1  0.36032275  0.52296801  0.71031097  1
  O  O248  1  0.88567945  0.01211851  0.25154426  1
  O  O249  1  0.85962492  0.01739768  0.73842708  1
  O  O250  1  0.87922293  0.51151085  0.26845870  1
  O  O251  1  0.85595547  0.50714522  0.75059344  1
  O  O252  1  0.12394683  0.37230304  0.37270563  1
  O  O253  1  0.12477498  0.35842962  0.86949391  1
  O  O254  1  0.14885290  0.86059306  0.38869977  1
  O  O255  1  0.11648304  0.88546970  0.86416020  1
  O  O256  1  0.61837077  0.36690641  0.37414162  1
  O  O257  1  0.61361758  0.37970258  0.86631868  1
  O  O258  1  0.62700300  0.87105593  0.36535678  1
  O  O259  1  0.62590064  0.88878364  0.85777979  1
  O  O260  1  0.38734078  0.13534648  0.11355212  1
  O  O261  1  0.37464182  0.12193747  0.63241587  1
  O  O262  1  0.38713707  0.63193666  0.11190130  1
  O  O263  1  0.38187199  0.64159598  0.62297382  1
  O  O264  1  0.86600079  0.12248717  0.14606242  1
  O  O265  1  0.87520676  0.13325426  0.62509229  1
  O  O266  1  0.79907204  0.60747678  0.15247631  1
  O  O267  1  0.88394288  0.62177314  0.64497328  1
  O  O268  1  0.23485461  0.26630962  0.12115940  1
  O  O269  1  0.26167893  0.24739296  0.61394919  1
  O  O270  1  0.26984227  0.74870215  0.10847894  1
  O  O271  1  0.25389097  0.76282568  0.62503042  1
  O  O272  1  0.74796551  0.25869970  0.12105704  1
  O  O273  1  0.75720263  0.25627290  0.62022962  1
  O  O274  1  0.74747469  0.77206362  0.11089147  1
  O  O275  1  0.74102819  0.76085472  0.61485496  1
  O  O276  1  0.24178068  0.24645691  0.39052514  1
  O  O277  1  0.23475054  0.24272774  0.87820589  1
  O  O278  1  0.26941359  0.71896517  0.39232575  1
  O  O279  1  0.26828937  0.75014035  0.88333516  1
  O  O280  1  0.73720505  0.26321706  0.38507638  1
  O  O281  1  0.74793943  0.23358468  0.87614675  1
  O  O282  1  0.73236746  0.75425145  0.39531777  1
  O  O283  1  0.74930745  0.74724970  0.87937198  1
  O  O284  1  0.02565610  0.11846164  -0.03267241  1
  O  O285  1  0.00812556  0.13721687  0.51072789  1
  O  O286  1  -0.00724865  0.61721997  -0.03022361  1
  O  O287  1  -0.01324433  0.61377303  0.53116989  1
  O  O288  1  0.50825103  0.13912722  -0.00308216  1
  O  O289  1  0.50843646  0.10896748  0.49191633  1
  O  O290  1  0.50570387  0.61305759  -0.00177019  1
  O  O291  1  0.50585096  0.61748449  0.50738226  1
  O  O292  1  0.50085528  0.38940000  0.49677896  1
  O  O293  1  0.48619954  0.36489374  0.97121437  1
  O  O294  1  0.50047144  0.88782522  0.49048553  1
  O  O295  1  0.48855168  0.87857445  1.00604547  1
  O  O296  1  1.00930264  0.37597760  0.49017771  1
  O  O297  1  0.99689371  0.37016867  0.98278936  1
  O  O298  1  0.98415396  0.86161882  0.51873158  1
  O  O299  1  0.99283668  0.87850796  0.98389694  1
  O  O300  1  0.49968397  0.49258457  0.39469742  1
  O  O301  1  0.49552360  0.48637229  0.85451460  1
  O  O302  1  0.49789963  0.98859101  0.38538642  1
  O  O303  1  0.48702521  1.00776503  0.87993883  1
  O  O304  1  1.01153667  0.49146380  0.37789719  1
  O  O305  1  1.00471954  0.47330173  0.85304605  1
  O  O306  1  1.01962956  0.96157711  0.36642300  1
  O  O307  1  1.00041922  0.99057649  0.85699737  1
  O  O308  1  0.02867564  0.01245271  0.12562782  1
  O  O309  1  0.00655157  0.01144374  0.63508934  1
  O  O310  1  0.02385287  0.50451621  0.13338234  1
  O  O311  1  0.00375739  0.51071473  0.65435447  1
  O  O312  1  0.51736515  -0.00564879  0.12618106  1
  O  O313  1  0.50991687  -0.00820665  0.60821274  1
  O  O314  1  0.50088766  0.51218740  0.12205030  1
  O  O315  1  0.51095234  0.50770650  0.61479730  1
  O  O316  1  0.23740584  0.36640412  0.24481863  1
  O  O317  1  0.24388912  0.36298528  0.72400369  1
  O  O318  1  0.25319269  0.85079321  0.23525776  1
  O  O319  1  0.23397719  0.88503957  0.74851048  1
  O  O320  1  0.73560462  0.36036547  0.23869792  1
  O  O321  1  0.74634961  0.39049040  0.75454223  1
  O  O322  1  0.77524329  0.86525763  0.24350757  1
  O  O323  1  0.74453581  0.88701562  0.74453885  1
  O  O324  1  0.23717967  0.12898716  0.27188635  1
  O  O325  1  0.25718558  0.11500649  0.74038457  1
  O  O326  1  0.25082550  0.61875104  0.25387180  1
  O  O327  1  0.25743260  0.62876938  0.76124640  1
  O  O328  1  0.75968646  0.12999103  0.26335031  1
  O  O329  1  0.75262580  0.12307048  0.75590627  1
  O  O330  1  0.75768296  0.62646130  0.21133339  1
  O  O331  1  0.75093265  0.62125555  0.75583791  1
  O  O332  1  0.35456130  0.12565322  0.38875278  1
  O  O333  1  0.37267580  0.11536139  0.86472799  1
  O  O334  1  0.36756959  0.63718876  0.37470576  1
  O  O335  1  0.37433891  0.61598187  0.85464840  1
  O  O336  1  0.89180166  0.11460705  0.36195671  1
  O  O337  1  0.87715757  0.12857859  0.85772913  1
  O  O338  1  0.87856959  0.59847636  0.39816121  1
  O  O339  1  0.85857492  0.63274176  0.86162584  1
  O  O340  1  0.12815122  0.38602757  0.14066404  1
  O  O341  1  0.10644164  0.29391372  0.67572038  1
  O  O342  1  0.14626379  0.87109397  0.11152016  1
  O  O343  1  0.13078945  0.88076641  0.63372726  1
  O  O344  1  0.59937320  0.35974837  0.14942802  1
  O  O345  1  0.63241918  0.38761070  0.62053969  1
  O  O346  1  0.62904839  0.87286081  0.15157983  1
  O  O347  1  0.63290159  0.88495529  0.63049454  1
  O  O348  1  0.11848871  0.26061918  0.26409563  1
  O  O349  1  0.11383219  0.19815195  0.78546831  1
  O  O350  1  0.11146857  0.74914714  0.23460529  1
  O  O351  1  0.12055144  0.76595658  0.75145429  1
  O  O352  1  0.62376566  0.25659856  0.27235640  1
  O  O353  1  0.60831552  0.24854244  0.73384844  1
  O  O354  1  0.62880068  0.76169976  0.26570352  1
  O  O355  1  0.62620937  0.76849075  0.74665387  1
  O  O356  1  0.37248201  0.22115535  0.25483953  1
  O  O357  1  0.37297076  0.24416544  0.73432518  1
  O  O358  1  0.38183518  0.74411217  0.23301354  1
  O  O359  1  0.36996190  0.73200912  0.73104663  1
  O  O360  1  0.88790352  0.23757142  0.26253578  1
  O  O361  1  0.86524689  0.23588473  0.73731579  1
  O  O362  1  0.88632908  0.72709669  0.23397915  1
  O  O363  1  0.88234408  0.74987765  0.75151928  1
  O  O364  1  0.38431682  0.50110799  0.51692500  1
  O  O365  1  0.37419576  0.47597050  1.00786317  1
  O  O366  1  0.38579194  1.00386795  0.50816734  1
  O  O367  1  0.37779908  0.99812075  0.98989885  1
  O  O368  1  0.83644727  0.47850371  0.49007873  1
  O  O369  1  0.95200791  0.56851206  1.00894489  1
  O  O370  1  0.88638630  0.98876214  0.50760073  1
  O  O371  1  0.86936794  0.99206425  0.99909375  1
  O  O372  1  0.16860422  0.02409934  0.00220500  1
  O  O373  1  0.12497249  0.01376497  0.51666125  1
  O  O374  1  0.11733891  0.49476147  0.00395965  1
  O  O375  1  0.12172871  0.51847531  0.50486061  1
  O  O376  1  0.62383807  -0.00690750  0.01767619  1
  O  O377  1  0.62398464  0.00817698  0.50154256  1
  O  O378  1  0.62397042  0.46285004  0.01142800  1
  O  O379  1  0.62703520  0.51510281  0.50745727  1
  O  O380  1  0.36067584  0.37794853  0.14378277  1
  O  O381  1  0.37333720  0.37126330  0.62560879  1
  O  O382  1  0.37723920  0.86095040  0.11684975  1
  O  O383  1  0.35923734  0.86701534  0.63442430  1
  O  O384  1  0.87462122  0.38101478  0.14981777  1
  O  O385  1  0.87355876  0.36012126  0.63015645  1
  O  O386  1  0.87288088  0.88640257  0.11197868  1
  O  O387  1  0.85977890  0.88032785  0.62040837  1
  O  O388  1  0.12739865  0.14107227  0.39224914  1
  O  O389  1  0.08513746  0.12220798  0.91651016  1
  O  O390  1  0.15645820  0.62255816  0.39244576  1
  O  O391  1  0.14109223  0.62723688  0.86788338  1
  O  O392  1  0.62084868  0.13862491  0.38485203  1
  O  O393  1  0.62421435  0.12732809  0.87344249  1
  O  O394  1  0.61385746  0.64070427  0.38227965  1
  O  O395  1  0.63631156  0.63200196  0.86945513  1
