# generated using pymatgen
data_V35Zn35O128
_symmetry_space_group_name_H-M   'P 1'
_cell_length_a   16.85651241
_cell_length_b   16.83723778
_cell_length_c   16.86159461
_cell_angle_alpha   89.97522976
_cell_angle_beta   90.22330380
_cell_angle_gamma   89.82787808
_symmetry_Int_Tables_number   1
_chemical_formula_structural   V35Zn35O128
_chemical_formula_sum   'V70 Zn70 O256'
_cell_volume   4785.55060090
_cell_formula_units_Z   2
loop_
 _symmetry_equiv_pos_site_id
 _symmetry_equiv_pos_as_xyz
  1  'x, y, z'
loop_
 _atom_site_type_symbol
 _atom_site_label
 _atom_site_symmetry_multiplicity
 _atom_site_fract_x
 _atom_site_fract_y
 _atom_site_fract_z
 _atom_site_occupancy
  V  V0  1  0.50099437  0.10392264  0.12257101  1
  V  V1  1  0.87650427  0.48408121  0.87904972  1
  V  V2  1  0.50242062  0.62579350  0.61767100  1
  V  V3  1  0.00643046  0.62374686  0.12797329  1
  V  V4  1  0.11865556  0.88184091  0.73665792  1
  V  V5  1  0.88713552  0.74550839  0.13312721  1
  V  V6  1  0.48248387  0.50244224  0.48937912  1
  V  V7  1  0.50809199  0.37018714  0.86796541  1
  V  V8  1  0.87074263  0.24001988  0.13666797  1
  V  V9  1  0.74862229  0.74183275  -0.01066591  1
  V  V10  1  0.62185429  0.01009193  0.62924735  1
  V  V11  1  0.11237914  0.24665413  0.88703816  1
  V  V12  1  0.61433171  0.62667578  -0.00757379  1
  V  V13  1  0.24824528  0.74491058  -0.00503920  1
  V  V14  1  0.13511283  0.49271643  0.13242066  1
  V  V15  1  0.49644875  0.01175742  0.50125885  1
  V  V16  1  0.62385753  0.24383801  0.86686956  1
  V  V17  1  0.75061523  0.23398464  -0.00263837  1
  V  V18  1  0.37832752  0.61522185  0.25782208  1
  V  V19  1  0.11666674  0.76004926  0.86997472  1
  V  V20  1  0.72343225  0.24215248  0.49382963  1
  V  V21  1  0.61532535  0.87054050  0.76537717  1
  V  V22  1  0.87468848  0.00001021  0.86243042  1
  V  V23  1  0.49004992  0.37681401  0.37420544  1
  V  V24  1  0.25345241  0.38076458  0.61794396  1
  V  V25  1  0.36932998  0.35443156  0.00913369  1
  V  V26  1  0.51076992  0.74961055  0.24519160  1
  V  V27  1  0.61879932  0.50893760  0.12179710  1
  V  V28  1  0.75808040  0.38289514  0.11380614  1
  V  V29  1  0.88390577  0.86927854  -0.00857271  1
  V  V30  1  0.37201738  0.61542282  0.74641100  1
  V  V31  1  0.49584118  0.25192448  0.23689266  1
  V  V32  1  0.23919919  0.61994372  0.37056069  1
  V  V33  1  0.73810266  0.50008805  0.75760046  1
  V  V34  1  -0.00880248  0.37161953  0.36966435  1
  V  V35  1  0.74225100  0.73633460  0.50581541  1
  V  V36  1  0.74761801  0.11156471  0.86276919  1
  V  V37  1  0.76802436  0.51704164  0.26155265  1
  V  V38  1  0.86500415  0.89711566  0.50673997  1
  V  V39  1  0.73397250  0.87429222  0.63437134  1
  V  V40  1  0.26635496  0.01102775  0.24768750  1
  V  V41  1  -0.01140672  0.50343853  0.49278068  1
  V  V42  1  0.36788464  0.75905516  0.61690945  1
  V  V43  1  0.37721460  0.25628257  0.61130510  1
  V  V44  1  0.49866833  0.88211197  0.37376006  1
  V  V45  1  0.37747073  0.13775500  0.76262096  1
  V  V46  1  0.63495135  0.37442926  0.25856943  1
  V  V47  1  0.24571085  0.12654941  0.89065932  1
  V  V48  1  0.74767867  0.87230310  0.13786175  1
  V  V49  1  0.88340320  0.62423866  0.75972924  1
  V  V50  1  0.12159637  0.50881987  0.62956110  1
  V  V51  1  0.24223849  0.61581297  0.87164233  1
  V  V52  1  0.00502877  0.00730449  -0.00911726  1
  V  V53  1  0.24557807  0.87201778  0.12838964  1
  V  V54  1  0.38299816  0.49497147  0.88281119  1
  V  V55  1  0.76024641  0.37467221  0.61744488  1
  V  V56  1  0.25997111  -0.00646936  0.74388407  1
  V  V57  1  0.13253274  0.35978091  0.25672523  1
  V  V58  1  0.00793035  0.48953465  -0.00364582  1
  V  V59  1  0.87994099  0.74200303  0.63305037  1
  V  V60  1  0.11571380  0.35918332  0.74733927  1
  V  V61  1  0.12158075  -0.00424393  0.13483752  1
  V  V62  1  -0.00034630  0.12778301  0.13354830  1
  V  V63  1  0.51486415  -0.00879172  -0.01367362  1
  V  V64  1  0.13334153  0.12567915  0.50050734  1
  V  V65  1  0.62421302  0.49729713  0.61100755  1
  V  V66  1  0.62762352  0.74163409  0.38332976  1
  V  V67  1  0.37912716  0.74313653  0.12525598  1
  V  V68  1  0.49954562  0.74960349  0.76234640  1
  V  V69  1  0.37776563  0.88088082  -0.01096515  1
  Zn  Zn70  1  0.23550778  0.76027071  0.48419560  1
  Zn  Zn71  1  0.51202842  0.14770624  0.64490267  1
  Zn  Zn72  1  0.76485157  -0.01790061  0.26802774  1
  Zn  Zn73  1  0.89618259  0.23784681  0.63793637  1
  Zn  Zn74  1  0.12181940  0.62340330  0.49834038  1
  Zn  Zn75  1  0.36221022  0.88666621  0.49451706  1
  Zn  Zn76  1  0.18725807  0.18771091  0.17701632  1
  Zn  Zn77  1  0.20206802  0.19316174  0.69366334  1
  Zn  Zn78  1  0.20060520  0.66509566  0.17400237  1
  Zn  Zn79  1  0.18606518  0.69402018  0.69028738  1
  Zn  Zn80  1  0.66977892  0.19372023  0.17240973  1
  Zn  Zn81  1  0.72186873  0.19455360  0.69482065  1
  Zn  Zn82  1  0.69437596  0.69010130  0.18411893  1
  Zn  Zn83  1  0.68501491  0.68109296  0.69616011  1
  Zn  Zn84  1  0.31935929  0.32447689  0.29383776  1
  Zn  Zn85  1  0.29789678  0.31549032  0.81261949  1
  Zn  Zn86  1  0.31547855  0.80888936  0.31258894  1
  Zn  Zn87  1  0.31194009  0.80748415  0.80787221  1
  Zn  Zn88  1  0.81161353  0.31098984  0.31810457  1
  Zn  Zn89  1  0.81712301  0.31146086  0.79949153  1
  Zn  Zn90  1  0.83116340  0.79654928  0.32714975  1
  Zn  Zn91  1  0.80928186  0.81157822  0.81181247  1
  Zn  Zn92  1  0.18511902  0.44108901  0.43622550  1
  Zn  Zn93  1  0.18765196  0.42721893  0.93329603  1
  Zn  Zn94  1  0.19239819  0.94629582  0.43029959  1
  Zn  Zn95  1  0.19282494  0.93916052  0.93186495  1
  Zn  Zn96  1  0.69509109  0.44414854  0.43566344  1
  Zn  Zn97  1  0.68559048  0.43955359  0.93845567  1
  Zn  Zn98  1  0.67456885  0.92630561  0.44913696  1
  Zn  Zn99  1  0.69443077  0.92788974  0.94464006  1
  Zn  Zn100  1  0.32061647  0.06952520  0.07098023  1
  Zn  Zn101  1  0.32099994  0.06632808  0.57514192  1
  Zn  Zn102  1  0.31701575  0.55888498  0.06005060  1
  Zn  Zn103  1  0.30271093  0.56747111  0.55723262  1
  Zn  Zn104  1  0.81144008  0.05635428  0.05880488  1
  Zn  Zn105  1  0.82423530  0.10404839  0.48938577  1
  Zn  Zn106  1  0.81757883  0.56489491  0.06245227  1
  Zn  Zn107  1  0.81455510  0.56186820  0.56639917  1
  Zn  Zn108  1  0.44129374  0.43336542  0.18087835  1
  Zn  Zn109  1  0.44152955  0.43356871  0.68749828  1
  Zn  Zn110  1  0.43738287  0.92796463  0.18394341  1
  Zn  Zn111  1  0.43748973  0.94188634  0.69196138  1
  Zn  Zn112  1  0.94257015  0.43463530  0.18862529  1
  Zn  Zn113  1  0.93948858  0.44110368  0.68516365  1
  Zn  Zn114  1  0.91305175  0.95271494  0.17280068  1
  Zn  Zn115  1  0.93318999  0.92874028  0.67585956  1
  Zn  Zn116  1  -0.07835634  0.08497988  0.31535643  1
  Zn  Zn117  1  0.07022714  0.06150009  0.80946415  1
  Zn  Zn118  1  0.05632706  0.55816796  0.31012262  1
  Zn  Zn119  1  0.06055191  0.55526220  0.80942494  1
  Zn  Zn120  1  0.57015032  0.06518785  0.30825000  1
  Zn  Zn121  1  0.56282512  0.06017885  0.81487083  1
  Zn  Zn122  1  0.56858954  0.56260784  0.30772357  1
  Zn  Zn123  1  0.55930067  0.56438949  0.81258487  1
  Zn  Zn124  1  0.45375868  0.20232013  0.43818513  1
  Zn  Zn125  1  0.44161915  0.18097014  0.94368997  1
  Zn  Zn126  1  0.43701950  0.68938702  0.43355302  1
  Zn  Zn127  1  0.43259622  0.68193207  0.94089870  1
  Zn  Zn128  1  0.94272483  0.21995172  0.46835956  1
  Zn  Zn129  1  0.93106757  0.18910001  0.93659751  1
  Zn  Zn130  1  0.95331912  0.70375070  0.45053070  1
  Zn  Zn131  1  0.94092448  0.67473222  0.94003863  1
  Zn  Zn132  1  0.05815801  0.31573890  0.06808441  1
  Zn  Zn133  1  0.06993119  0.32262390  0.55306912  1
  Zn  Zn134  1  0.06445881  0.81206739  0.05316124  1
  Zn  Zn135  1  0.04598278  0.83550103  0.56889190  1
  Zn  Zn136  1  0.56513779  0.32285298  0.05099928  1
  Zn  Zn137  1  0.55998511  0.31964772  0.56548303  1
  Zn  Zn138  1  0.56724768  0.81493569  0.06157206  1
  Zn  Zn139  1  0.55260303  0.81391921  0.56116349  1
  O  O140  1  0.10750385  0.10969971  0.12256752  1
  O  O141  1  0.14599848  0.13821618  0.60671428  1
  O  O142  1  0.11575297  0.61482891  0.11864879  1
  O  O143  1  0.13056936  0.61182822  0.63304099  1
  O  O144  1  0.59502926  0.14323778  0.10533826  1
  O  O145  1  0.62546452  0.11158988  0.64666626  1
  O  O146  1  0.63277008  0.61399850  0.11945367  1
  O  O147  1  0.61009477  0.61270847  0.63261725  1
  O  O148  1  0.39098090  0.38181874  0.36519169  1
  O  O149  1  0.37753245  0.38609419  0.87379814  1
  O  O150  1  0.39322218  0.86927019  0.37635993  1
  O  O151  1  0.37111184  0.86702984  0.89028210  1
  O  O152  1  0.88992476  0.37964615  0.36325953  1
  O  O153  1  0.87329328  0.38418124  0.86668711  1
  O  O154  1  0.87834977  0.87328135  0.41013466  1
  O  O155  1  0.86556123  0.88458518  0.88412427  1
  O  O156  1  0.24604260  -0.00793937  0.34521707  1
  O  O157  1  0.24406889  0.01813900  0.86664479  1
  O  O158  1  0.25326542  0.51969263  0.38405629  1
  O  O159  1  0.25891962  0.51156305  0.87707869  1
  O  O160  1  0.71634409  0.01213121  0.37733423  1
  O  O161  1  0.75966343  0.00551805  0.88694436  1
  O  O162  1  0.75416842  0.50299801  0.36100841  1
  O  O163  1  0.75714782  0.49260848  0.86311642  1
  O  O164  1  0.23325180  0.50589391  0.11326050  1
  O  O165  1  0.24016806  0.49201598  0.62311934  1
  O  O166  1  0.23714118  0.99348047  0.12456514  1
  O  O167  1  0.25858304  0.99833007  0.64279523  1
  O  O168  1  0.75399026  0.49001427  0.12895413  1
  O  O169  1  0.73794428  0.49544647  0.62677545  1
  O  O170  1  0.77490476  0.97428469  0.12960437  1
  O  O171  1  0.72836495  0.97996864  0.63346105  1
  O  O172  1  0.01393445  0.38124779  0.26024882  1
  O  O173  1  0.01436993  0.37052371  0.73781053  1
  O  O174  1  0.05186714  0.80130390  0.27122634  1
  O  O175  1  0.01749592  0.89065512  0.74350284  1
  O  O176  1  0.51358425  0.37767987  0.25772745  1
  O  O177  1  0.49455633  0.37012291  0.76789106  1
  O  O178  1  0.49850862  0.86285136  0.26139162  1
  O  O179  1  0.50273425  0.85889995  0.74886166  1
  O  O180  1  0.51311166  0.14201689  0.24179319  1
  O  O181  1  0.48294434  0.12034732  0.75729754  1
  O  O182  1  0.49287621  0.64073337  0.25537201  1
  O  O183  1  0.49255734  0.63222810  0.74143769  1
  O  O184  1  0.99321583  0.11975236  0.23224581  1
  O  O185  1  0.99803833  0.12348244  0.73599560  1
  O  O186  1  1.00222389  0.62058855  0.22825346  1
  O  O187  1  0.98327111  0.62017625  0.75105190  1
  O  O188  1  0.37717807  0.25385159  0.00110666  1
  O  O189  1  0.37865355  0.24993833  0.51139831  1
  O  O190  1  0.36880815  0.75461497  0.00623925  1
  O  O191  1  0.37934174  0.75110133  0.51244597  1
  O  O192  1  0.85706587  0.24746474  0.00631449  1
  O  O193  1  0.84403269  0.21834277  0.53085398  1
  O  O194  1  0.87137170  0.75683005  -0.00387977  1
  O  O195  1  0.85818077  0.75867499  0.52266428  1
  O  O196  1  0.13704636  0.23119658  0.49752354  1
  O  O197  1  0.11624259  0.25980430  0.98675737  1
  O  O198  1  0.11490537  0.74145973  0.50864664  1
  O  O199  1  0.14019194  0.75430640  0.98595154  1
  O  O200  1  0.62275787  0.26382025  0.49126903  1
  O  O201  1  0.64473306  0.26118295  0.98744629  1
  O  O202  1  0.62878802  0.74888914  0.49520689  1
  O  O203  1  0.63899458  0.73931907  1.00964835  1
  O  O204  1  0.51082847  0.27070675  0.13861785  1
  O  O205  1  0.48666905  0.25966768  0.62828268  1
  O  O206  1  0.49587106  0.75852856  0.13819142  1
  O  O207  1  0.49124114  0.73927051  0.62873958  1
  O  O208  1  0.98393529  0.23743232  0.11883201  1
  O  O209  1  0.98867620  0.24854890  0.57425773  1
  O  O210  1  0.99781400  0.73587753  0.10789107  1
  O  O211  1  0.97705779  0.75756833  0.63066947  1
  O  O212  1  0.00009159  0.27077321  0.38470930  1
  O  O213  1  0.01155555  0.23544620  0.87145667  1
  O  O214  1  0.04825776  0.77800482  0.46528322  1
  O  O215  1  0.01961825  0.73895890  0.88311259  1
  O  O216  1  0.50438537  0.26958571  0.36192876  1
  O  O217  1  0.51679947  0.25110331  0.87900125  1
  O  O218  1  0.50907333  0.75706960  0.36889825  1
  O  O219  1  0.49153110  0.74226221  0.86067715  1
  O  O220  1  0.24012558  0.11132497  0.50328792  1
  O  O221  1  0.25322978  0.11847879  0.99032117  1
  O  O222  1  0.24261165  0.63796606  0.48754631  1
  O  O223  1  0.26031245  0.63381972  0.98291731  1
  O  O224  1  0.71883305  0.14060417  0.51165933  1
  O  O225  1  0.74554043  0.13065889  0.99889412  1
  O  O226  1  0.75164583  0.63766905  0.50404050  1
  O  O227  1  0.74950714  0.63866891  1.00398202  1
  O  O228  1  0.27141073  0.37602662  -0.01276911  1
  O  O229  1  0.24259370  0.37590965  0.51688807  1
  O  O230  1  0.25942067  0.86681366  0.00534127  1
  O  O231  1  0.24946419  0.87230797  0.48849028  1
  O  O232  1  0.75221256  0.37405638  0.01201014  1
  O  O233  1  0.74815772  0.37995221  0.51340007  1
  O  O234  1  0.76242023  0.86114967  0.01153687  1
  O  O235  1  0.74781895  0.86478160  0.51893632  1
  O  O236  1  0.12724178  0.50150509  0.23399297  1
  O  O237  1  0.11788796  0.48762818  0.73580409  1
  O  O238  1  0.12549336  0.99011589  0.23165279  1
  O  O239  1  0.13887529  0.98979357  0.75148390  1
  O  O240  1  0.63779399  0.49679436  0.23714964  1
  O  O241  1  0.63451494  0.50598451  0.74602193  1
  O  O242  1  0.66101105  1.03789043  0.22864819  1
  O  O243  1  0.60583601  0.97887955  0.74023198  1
  O  O244  1  0.36654837  -0.00011249  0.23740984  1
  O  O245  1  0.36765666  0.00855757  0.75438707  1
  O  O246  1  0.39081682  0.51771455  0.24076552  1
  O  O247  1  0.38199219  0.51016629  0.75628433  1
  O  O248  1  0.87836829  -0.00694863  0.26955654  1
  O  O249  1  0.87606987  -0.01380355  0.76446223  1
  O  O250  1  0.86568870  0.50044019  0.24181228  1
  O  O251  1  0.87056499  0.50697260  0.75812235  1
  O  O252  1  0.12106901  0.38085567  0.36188986  1
  O  O253  1  0.12852312  0.35917587  0.85894510  1
  O  O254  1  0.07729341  0.91390336  0.38883390  1
  O  O255  1  0.12497629  0.86410801  0.87112148  1
  O  O256  1  0.62316394  0.38826923  0.35991153  1
  O  O257  1  0.61457936  0.36823191  0.87849573  1
  O  O258  1  0.60974218  0.86151643  0.37833161  1
  O  O259  1  0.62758467  0.87526941  0.86334676  1
  O  O260  1  0.40076827  0.13087065  0.12359480  1
  O  O261  1  0.37972824  0.14359144  0.63704958  1
  O  O262  1  0.36862312  0.63681072  0.13174597  1
  O  O263  1  0.38258160  0.62757023  0.62992567  1
  O  O264  1  0.88025151  0.13123679  0.12014160  1
  O  O265  1  0.91257603  0.10281532  0.63351131  1
  O  O266  1  0.88594794  0.63801010  0.12147664  1
  O  O267  1  0.87084677  0.63571144  0.63620099  1
  O  O268  1  0.22875749  0.24694626  0.09354343  1
  O  O269  1  0.26763207  0.26325556  0.62852169  1
  O  O270  1  0.25353584  0.75200762  0.11539483  1
  O  O271  1  0.26672784  0.74341937  0.62377913  1
  O  O272  1  0.75370142  0.25519493  0.11418433  1
  O  O273  1  0.72296997  0.27500352  0.61377212  1
  O  O274  1  0.77006250  0.75550309  0.11988016  1
  O  O275  1  0.73728032  0.75166365  0.61816734  1
  O  O276  1  0.29878054  0.21363847  0.36012907  1
  O  O277  1  0.23550137  0.23538863  0.87178070  1
  O  O278  1  0.25375912  0.73505954  0.37031767  1
  O  O279  1  0.24473198  0.73958663  0.87858011  1
  O  O280  1  0.75360182  0.25645702  0.39671256  1
  O  O281  1  0.74852060  0.23398012  0.88247304  1
  O  O282  1  0.73477396  0.76093509  0.39351280  1
  O  O283  1  0.74864284  0.75335022  0.89047178  1
  O  O284  1  -0.01055443  0.10977526  0.00825783  1
  O  O285  1  0.03224117  0.11703431  0.51594001  1
  O  O286  1  -0.00723088  0.60223942  0.01117169  1
  O  O287  1  0.00470044  0.61137088  0.49385324  1
  O  O288  1  0.49110066  0.09649492  0.00544085  1
  O  O289  1  0.50217645  0.11346553  0.49099697  1
  O  O290  1  0.51491809  0.63605171  0.00625402  1
  O  O291  1  0.49589065  0.61373939  0.50558137  1
  O  O292  1  0.50272599  0.39019876  0.48418320  1
  O  O293  1  0.48447918  0.36948367  0.97968204  1
  O  O294  1  0.49538483  0.88630609  0.48954394  1
  O  O295  1  0.48827960  0.87993650  1.00738717  1
  O  O296  1  1.01168972  0.39232908  0.48242627  1
  O  O297  1  0.98632300  0.39200461  1.01411157  1
  O  O298  1  0.95993325  0.91244817  0.55867318  1
  O  O299  1  0.98886176  0.88215594  0.99540706  1
  O  O300  1  0.50512382  0.49776207  0.38359378  1
  O  O301  1  0.49144957  0.48839470  0.87100968  1
  O  O302  1  0.51168821  0.99173248  0.38201661  1
  O  O303  1  0.50360096  0.99307271  0.88707687  1
  O  O304  1  0.99900603  0.49686252  0.38461217  1
  O  O305  1  0.98980041  0.49876581  0.88507897  1
  O  O306  1  1.02175886  0.96110304  0.37263583  1
  O  O307  1  0.98628665  1.01044092  0.88212365  1
  O  O308  1  0.00375818  0.00250210  0.11463413  1
  O  O309  1  -0.02819031  0.07513363  0.67600915  1
  O  O310  1  0.00755876  0.50623466  0.11710248  1
  O  O311  1  0.01364861  0.49330976  0.61168116  1
  O  O312  1  0.50788013  0.00019914  0.12726105  1
  O  O313  1  0.50566319  0.00569016  0.61738817  1
  O  O314  1  0.52088651  0.49688700  0.12429654  1
  O  O315  1  0.50488364  0.50304899  0.61228974  1
  O  O316  1  0.23399176  0.37764687  0.25265531  1
  O  O317  1  0.23310006  0.37365843  0.73613627  1
  O  O318  1  0.25699897  0.87730205  0.23137482  1
  O  O319  1  0.24667858  0.88784874  0.75953599  1
  O  O320  1  0.74292953  0.38196171  0.24366748  1
  O  O321  1  0.75153766  0.39368428  0.73504960  1
  O  O322  1  0.76486434  0.86260411  0.24317277  1
  O  O323  1  0.72593211  0.85886624  0.74372744  1
  O  O324  1  0.24750044  0.11003919  0.23266238  1
  O  O325  1  0.26255260  0.11605007  0.75513321  1
  O  O326  1  0.26626691  0.62611173  0.25688995  1
  O  O327  1  0.26253246  0.63303440  0.76303653  1
  O  O328  1  0.71297674  0.10353439  0.23281991  1
  O  O329  1  0.74141573  0.10195814  0.76492859  1
  O  O330  1  0.75375865  0.61673444  0.24719832  1
  O  O331  1  0.75897196  0.60629743  0.74370648  1
  O  O332  1  0.35289689  0.16178053  0.36792495  1
  O  O333  1  0.36242343  0.13270523  0.86943461  1
  O  O334  1  0.37365303  0.62502002  0.36169491  1
  O  O335  1  0.37253223  0.61271283  0.86702250  1
  O  O336  1  0.90694396  0.12393840  0.41470748  1
  O  O337  1  0.86058398  0.11100375  0.87677062  1
  O  O338  1  0.88634388  0.70265801  0.36437386  1
  O  O339  1  0.87280329  0.61550104  0.86428024  1
  O  O340  1  0.11820323  0.38574449  0.13760749  1
  O  O341  1  0.13458234  0.37770199  0.62969188  1
  O  O342  1  0.13162935  0.88472332  0.11354298  1
  O  O343  1  0.13111005  0.86786585  0.63753592  1
  O  O344  1  0.64070848  0.38737226  0.12811788  1
  O  O345  1  0.62122573  0.39635350  0.62954031  1
  O  O346  1  0.64829382  0.86718172  0.12707004  1
  O  O347  1  0.62323588  0.87338189  0.63369545  1
  O  O348  1  0.12653708  0.25949056  0.24486964  1
  O  O349  1  0.12174453  0.25442808  0.74711702  1
  O  O350  1  0.11640491  0.76721673  0.27783591  1
  O  O351  1  0.13102218  0.76455726  0.76157401  1
  O  O352  1  0.62486047  0.27098998  0.24804263  1
  O  O353  1  0.64018015  0.25003595  0.76913402  1
  O  O354  1  0.61574425  0.74585519  0.25650027  1
  O  O355  1  0.60775216  0.75295349  0.74922187  1
  O  O356  1  0.39604254  0.26100572  0.24067357  1
  O  O357  1  0.37081364  0.24037062  0.75355383  1
  O  O358  1  0.38704541  0.74295448  0.24128606  1
  O  O359  1  0.38407990  0.74126853  0.73943323  1
  O  O360  1  0.85803009  0.23821196  0.23577085  1
  O  O361  1  0.83305375  0.22849243  0.72840235  1
  O  O362  1  0.89495146  0.76453891  0.22850524  1
  O  O363  1  0.86207588  0.73531458  0.74558111  1
  O  O364  1  0.38428290  0.50239057  0.49955250  1
  O  O365  1  0.38142181  0.50200164  0.98414784  1
  O  O366  1  0.39098218  1.00223233  0.50804745  1
  O  O367  1  0.37543994  0.98217154  1.00650072  1
  O  O368  1  0.88893090  0.50072642  0.50844563  1
  O  O369  1  0.87112452  0.50009283  0.98158840  1
  O  O370  1  0.83431424  0.99228978  0.50779010  1
  O  O371  1  0.88386654  0.98606299  0.99361299  1
  O  O372  1  0.10686978  -0.00703106  -0.00306513  1
  O  O373  1  0.13196068  0.01912367  0.50178068  1
  O  O374  1  0.11320321  0.48654602  0.00257339  1
  O  O375  1  0.12156908  0.50408409  0.51404209  1
  O  O376  1  0.61440294  -0.01471129  0.00132733  1
  O  O377  1  0.61241094  -0.00506471  0.52168623  1
  O  O378  1  0.63530553  0.51364965  0.01115358  1
  O  O379  1  0.62140483  0.50383955  0.50921626  1
  O  O380  1  0.37756715  0.37997452  0.10744783  1
  O  O381  1  0.36563701  0.37021206  0.62952151  1
  O  O382  1  0.36627566  0.85973143  0.11576991  1
  O  O383  1  0.38184777  0.86112232  0.62494819  1
  O  O384  1  0.86287499  0.35876823  0.13323381  1
  O  O385  1  0.86208466  0.37202699  0.62776090  1
  O  O386  1  0.88108759  0.86087740  0.10830292  1
  O  O387  1  0.84408214  0.85886277  0.64047248  1
  O  O388  1  0.13167191  0.13109154  0.39810849  1
  O  O389  1  0.13314615  0.13446332  0.87351618  1
  O  O390  1  0.13567167  0.62455691  0.36437173  1
  O  O391  1  0.13928149  0.62802387  0.86270666  1
  O  O392  1  0.66682019  0.07642357  0.38022905  1
  O  O393  1  0.63487913  0.13199921  0.87627297  1
  O  O394  1  0.62120560  0.64194297  0.37451477  1
  O  O395  1  0.62225380  0.61826015  0.89224327  1
