# generated using pymatgen
data_V35Zn35O128
_symmetry_space_group_name_H-M   'P 1'
_cell_length_a   16.86114641
_cell_length_b   16.89808243
_cell_length_c   16.89046545
_cell_angle_alpha   89.91882074
_cell_angle_beta   90.14268002
_cell_angle_gamma   89.80682644
_symmetry_Int_Tables_number   1
_chemical_formula_structural   V35Zn35O128
_chemical_formula_sum   'V70 Zn70 O256'
_cell_volume   4812.40185541
_cell_formula_units_Z   2
loop_
 _symmetry_equiv_pos_site_id
 _symmetry_equiv_pos_as_xyz
  1  'x, y, z'
loop_
 _atom_site_type_symbol
 _atom_site_label
 _atom_site_symmetry_multiplicity
 _atom_site_fract_x
 _atom_site_fract_y
 _atom_site_fract_z
 _atom_site_occupancy
  V  V0  1  0.61133771  0.00226103  0.63554109  1
  V  V1  1  0.38470711  0.12408288  0.24373782  1
  V  V2  1  0.15176715  0.41760690  0.24686822  1
  V  V3  1  0.48952288  0.24199128  0.74464525  1
  V  V4  1  0.10971218  0.12073913  0.52514175  1
  V  V5  1  0.74795215  0.25405971  0.00784457  1
  V  V6  1  0.87386907  -0.00960644  0.39091107  1
  V  V7  1  0.50866731  0.60402348  0.12560650  1
  V  V8  1  0.47890495  -0.01486707  0.00796861  1
  V  V9  1  0.12760679  0.14840918  -0.00094978  1
  V  V10  1  0.75071925  0.61361853  0.37782278  1
  V  V11  1  0.62308164  0.75365154  0.35148539  1
  V  V12  1  0.74468183  -0.00286029  0.75409200  1
  V  V13  1  0.63910040  0.38149899  0.24222993  1
  V  V14  1  0.50213357  0.26229940  0.25058358  1
  V  V15  1  0.36891586  0.26770669  0.11877855  1
  V  V16  1  0.62408095  0.11318560  0.49283611  1
  V  V17  1  0.37087917  0.11012635  0.74693721  1
  V  V18  1  0.50536967  0.87386523  0.37193935  1
  V  V19  1  0.87261470  0.74752036  0.61412810  1
  V  V20  1  -0.02099479  0.73910646  0.75582150  1
  V  V21  1  0.14001592  0.74329794  0.37282424  1
  V  V22  1  0.86739720  0.60689536  0.24709394  1
  V  V23  1  0.25531773  0.75851602  0.00566503  1
  V  V24  1  0.88380320  0.38665508  0.49593165  1
  V  V25  1  0.37047900  0.73732444  0.62839407  1
  V  V26  1  0.26811179  0.61779605  0.36146399  1
  V  V27  1  0.22615370  -0.01861950  0.75760605  1
  V  V28  1  0.00354804  0.87759991  0.87916968  1
  V  V29  1  0.36819358  0.86664058  0.50736332  1
  V  V30  1  0.00364787  0.12529392  0.12567755  1
  V  V31  1  0.87693789  0.38085402  -0.00793902  1
  V  V32  1  0.24500957  0.14383618  0.38517464  1
  V  V33  1  0.38959012  0.49693055  0.36317939  1
  V  V34  1  0.75009125  0.88244438  0.62206955  1
  V  V35  1  0.12744801  0.74530079  0.87145178  1
  V  V36  1  0.74810692  0.12749906  0.87726828  1
  V  V37  1  0.75005503  0.24785440  0.51514116  1
  V  V38  1  0.89298051  0.24630431  0.62736961  1
  V  V39  1  0.13130725  0.62087079  0.00066871  1
  V  V40  1  0.25883162  0.35235686  0.61761470  1
  V  V41  1  0.87625739  0.00118431  0.88963781  1
  V  V42  1  0.87474789  0.25202663  0.13138688  1
  V  V43  1  0.13331413  0.37429010  0.73188224  1
  V  V44  1  0.50564945  0.74354652  0.74184585  1
  V  V45  1  0.01677540  0.36439357  0.86935382  1
  V  V46  1  0.25933055  0.13764159  0.88284269  1
  V  V47  1  0.63287145  0.38029458  0.73826720  1
  V  V48  1  0.37982571  0.36657822  0.49471405  1
  V  V49  1  0.37989523  0.00507175  0.38987650  1
  V  V50  1  0.00499282  0.87443839  0.39048955  1
  V  V51  1  0.63320595  0.25369838  0.37478850  1
  V  V52  1  0.73203425  0.75468034  0.49905997  1
  V  V53  1  0.61990087  0.25134398  0.87559368  1
  V  V54  1  -0.01083474  0.75633926  0.24265584  1
  V  V55  1  0.88841717  0.12668172  0.74892438  1
  V  V56  1  0.61484320  0.11680306  0.01427857  1
  V  V57  1  0.86438002  0.85566060  0.01311570  1
  V  V58  1  0.86972816  0.11661536  0.25980064  1
  V  V59  1  0.74117473  -0.01456487  0.24053772  1
  V  V60  1  0.62745823  0.75961915  0.87901202  1
  V  V61  1  0.50901905  0.51100361  0.51294810  1
  V  V62  1  0.01945678  0.52608624  0.50037837  1
  V  V63  1  0.12783923  -0.00169138  0.11110503  1
  V  V64  1  0.48473818  0.38364608  0.88208933  1
  V  V65  1  0.00759101  0.25172744  0.27494236  1
  V  V66  1  0.62195599  0.60117543  -0.01144890  1
  V  V67  1  0.24185839  0.00385824  0.25008558  1
  V  V68  1  0.76036603  0.60379995  0.86407920  1
  V  V69  1  -0.00496320  0.61905623  0.12201690  1
  Zn  Zn70  1  0.12917672  0.86776076  0.23978110  1
  Zn  Zn71  1  0.16122297  0.62693194  0.52592278  1
  Zn  Zn72  1  0.47794520  0.12046888  0.60783427  1
  Zn  Zn73  1  -0.00654533  0.50548388  -0.01562034  1
  Zn  Zn74  1  0.48967195  0.87814792  0.87026706  1
  Zn  Zn75  1  0.80158018  0.43097597  0.17698498  1
  Zn  Zn76  1  0.19112304  0.19290057  0.19449817  1
  Zn  Zn77  1  0.18602785  0.18703066  0.69319122  1
  Zn  Zn78  1  0.18146501  0.67782827  0.18788658  1
  Zn  Zn79  1  0.18265973  0.71003457  0.68706730  1
  Zn  Zn80  1  0.69003209  0.18163767  0.19176205  1
  Zn  Zn81  1  0.68116177  0.18231113  0.68973286  1
  Zn  Zn82  1  0.67246697  0.57233464  0.18487859  1
  Zn  Zn83  1  0.69866936  0.69950555  0.70211241  1
  Zn  Zn84  1  0.30734097  0.32436657  0.30227432  1
  Zn  Zn85  1  0.30745549  0.31509531  0.80767590  1
  Zn  Zn86  1  0.31377873  0.82503723  0.31157375  1
  Zn  Zn87  1  0.31613805  0.80455354  0.80771860  1
  Zn  Zn88  1  0.81483661  0.30338572  0.32299492  1
  Zn  Zn89  1  0.81409185  0.31422077  0.80875278  1
  Zn  Zn90  1  0.81416719  0.81590404  0.31334345  1
  Zn  Zn91  1  0.80835696  0.81539039  0.82198116  1
  Zn  Zn92  1  0.19029756  0.43997149  0.43348267  1
  Zn  Zn93  1  0.17205964  0.46822228  0.89425643  1
  Zn  Zn94  1  0.18489690  0.94082609  0.43488591  1
  Zn  Zn95  1  0.30483150  0.94080501  0.92721198  1
  Zn  Zn96  1  0.69060058  0.42936030  0.44767889  1
  Zn  Zn97  1  0.69055262  0.43095324  0.92757658  1
  Zn  Zn98  1  0.69111454  0.93868031  0.43410591  1
  Zn  Zn99  1  0.68428924  0.93533447  0.94344007  1
  Zn  Zn100  1  0.31051733  0.07338516  0.06778804  1
  Zn  Zn101  1  0.26925813  0.04719536  0.56112880  1
  Zn  Zn102  1  0.36184737  0.69934978  0.12761091  1
  Zn  Zn103  1  0.32637319  0.56586158  0.54525128  1
  Zn  Zn104  1  0.80772932  0.06439443  0.06937511  1
  Zn  Zn105  1  0.80799320  0.06705670  0.56620755  1
  Zn  Zn106  1  0.80626411  0.57579552  0.05322841  1
  Zn  Zn107  1  0.86901670  0.53818721  0.61669458  1
  Zn  Zn108  1  0.40210758  0.47597329  0.14825768  1
  Zn  Zn109  1  0.45952032  0.41602007  0.67086777  1
  Zn  Zn110  1  0.44711368  0.94302633  0.18931421  1
  Zn  Zn111  1  0.43126517  0.92797408  0.69667825  1
  Zn  Zn112  1  0.97893477  0.42325947  0.18538671  1
  Zn  Zn113  1  0.95043508  0.42387738  0.68221414  1
  Zn  Zn114  1  0.94086264  0.94047617  0.18621539  1
  Zn  Zn115  1  0.92689947  0.92724866  0.70335546  1
  Zn  Zn116  1  0.05930032  0.06823177  0.32354474  1
  Zn  Zn117  1  0.06773895  0.06202856  0.82727126  1
  Zn  Zn118  1  0.05732642  0.56288126  0.32092387  1
  Zn  Zn119  1  0.04934180  0.55115468  0.80359107  1
  Zn  Zn120  1  0.56282367  0.06159587  0.31269599  1
  Zn  Zn121  1  0.55496592  0.06006042  0.82553366  1
  Zn  Zn122  1  0.56528255  0.55971226  0.32218327  1
  Zn  Zn123  1  0.56115839  0.56125116  0.80678124  1
  Zn  Zn124  1  0.44328274  0.18784170  0.43040993  1
  Zn  Zn125  1  0.43826996  0.18986016  0.94140676  1
  Zn  Zn126  1  0.44384530  0.68779112  0.44059110  1
  Zn  Zn127  1  0.44107291  0.67895550  0.93118156  1
  Zn  Zn128  1  0.94017420  0.17068244  0.44952973  1
  Zn  Zn129  1  0.93873437  0.19107244  0.94074043  1
  Zn  Zn130  1  0.93217472  0.68994856  0.43048005  1
  Zn  Zn131  1  0.92537218  0.69137840  0.93995942  1
  Zn  Zn132  1  0.06380485  0.31969760  0.07400195  1
  Zn  Zn133  1  0.06686280  0.30930073  0.54679356  1
  Zn  Zn134  1  0.06018180  0.81356032  0.05792922  1
  Zn  Zn135  1  0.05432064  0.76114081  0.55832331  1
  Zn  Zn136  1  0.55458397  0.32070346  0.06805256  1
  Zn  Zn137  1  0.55798368  0.30657507  0.55930145  1
  Zn  Zn138  1  0.53305062  0.78454500  0.04873718  1
  Zn  Zn139  1  0.55240611  0.82602402  0.56293933  1
  O  O140  1  0.12227982  0.12460444  0.11876592  1
  O  O141  1  0.12293458  0.12260246  0.62720089  1
  O  O142  1  0.10783092  0.62927550  0.11065566  1
  O  O143  1  0.11007036  0.67570099  0.61035847  1
  O  O144  1  0.62572063  0.13452534  0.11218220  1
  O  O145  1  0.62135792  0.11112339  0.61743549  1
  O  O146  1  0.62182394  0.62668437  0.09488080  1
  O  O147  1  0.65437909  0.60083250  0.61724553  1
  O  O148  1  0.36514334  0.38863341  0.38541759  1
  O  O149  1  0.38483500  0.36741276  0.87193435  1
  O  O150  1  0.38303493  0.88749536  0.38011305  1
  O  O151  1  0.37517283  0.86850373  0.87749654  1
  O  O152  1  0.86943232  0.36623681  0.39828925  1
  O  O153  1  0.87354468  0.36929116  0.89024295  1
  O  O154  1  0.89101859  0.88099016  0.37602333  1
  O  O155  1  0.87588450  0.88496006  0.88766958  1
  O  O156  1  0.26526136  0.00951130  0.36390439  1
  O  O157  1  0.24753218  0.01867935  0.86333662  1
  O  O158  1  0.26743370  0.51264250  0.37085752  1
  O  O159  1  0.28413733  0.49870428  0.86503306  1
  O  O160  1  0.77044341  -0.01280562  0.36487609  1
  O  O161  1  0.75472836  0.00947136  0.87175061  1
  O  O162  1  0.74235065  0.51659320  0.38975644  1
  O  O163  1  0.75329130  0.50262646  0.86797813  1
  O  O164  1  0.26816846  0.46026965  0.05481562  1
  O  O165  1  0.24218301  0.53930371  0.63123752  1
  O  O166  1  0.23753566  1.01345611  0.13829847  1
  O  O167  1  0.25634802  0.99924668  0.66089298  1
  O  O168  1  0.74858466  0.51199257  0.12584178  1
  O  O169  1  0.69869222  0.54243229  0.61503580  1
  O  O170  1  0.74905640  1.00284032  0.14058872  1
  O  O171  1  0.74275521  0.99901861  0.63598353  1
  O  O172  1  -0.02306445  0.34936013  0.27006113  1
  O  O173  1  0.02252179  0.37255331  0.75418780  1
  O  O174  1  0.00125486  0.86323432  0.25132657  1
  O  O175  1  -0.00986839  0.86162322  0.77105203  1
  O  O176  1  0.52160367  0.36073044  0.25845954  1
  O  O177  1  0.50395800  0.35513143  0.75755620  1
  O  O178  1  0.50042469  0.88472535  0.27172071  1
  O  O179  1  0.49803764  0.85952566  0.75527287  1
  O  O180  1  0.48871054  0.12994702  0.25514080  1
  O  O181  1  0.48680055  0.13081647  0.76098171  1
  O  O182  1  0.54496133  0.61280406  0.22348588  1
  O  O183  1  0.50248655  0.64146603  0.74953501  1
  O  O184  1  0.99111851  0.13069400  0.24650673  1
  O  O185  1  0.98596999  0.12008467  0.76202329  1
  O  O186  1  0.98829600  0.63234747  0.24448976  1
  O  O187  1  0.99436964  0.63959259  0.75459310  1
  O  O188  1  0.38059824  0.24496602  0.02137804  1
  O  O189  1  0.38120662  0.26715117  0.48634179  1
  O  O190  1  0.35215168  0.72831550  -0.01162072  1
  O  O191  1  0.38162159  0.75964829  0.50982232  1
  O  O192  1  0.86824482  0.25557006  0.01184802  1
  O  O193  1  0.86344397  0.23029672  0.51504304  1
  O  O194  1  0.86167078  0.75530468  0.01013040  1
  O  O195  1  0.87083108  0.75678503  0.51050043  1
  O  O196  1  0.12237094  0.22239778  0.50385417  1
  O  O197  1  0.12946514  0.24667238  1.01479852  1
  O  O198  1  0.13062377  0.75672909  0.47261085  1
  O  O199  1  0.13103048  0.74321835  0.99471066  1
  O  O200  1  0.63291039  0.24510363  0.49299556  1
  O  O201  1  0.63042718  0.24460718  0.99380078  1
  O  O202  1  0.63240880  0.75219823  0.50723377  1
  O  O203  1  0.61609668  0.74159744  0.98059124  1
  O  O204  1  0.49419667  0.25266106  0.14432740  1
  O  O205  1  0.50300158  0.23761663  0.64190659  1
  O  O206  1  0.47696890  0.71504914  0.11171577  1
  O  O207  1  0.49415439  0.75685514  0.63388102  1
  O  O208  1  0.98886747  0.24149891  0.13677106  1
  O  O209  1  0.99093194  0.24313316  0.62119328  1
  O  O210  1  1.00385370  0.74299335  0.13869626  1
  O  O211  1  0.97703361  0.76701062  0.64263239  1
  O  O212  1  -0.00171041  0.23098630  0.37290355  1
  O  O213  1  -0.01060222  0.26600373  0.87269562  1
  O  O214  1  0.00726582  0.75835071  0.36351913  1
  O  O215  1  -0.00770570  0.75511488  0.86788954  1
  O  O216  1  0.52054918  0.24270142  0.36405558  1
  O  O217  1  0.50667435  0.25145685  0.86875805  1
  O  O218  1  0.51224188  0.75976895  0.37473455  1
  O  O219  1  0.50779107  0.74879517  0.86424489  1
  O  O220  1  0.26875985  0.13595515  0.48437397  1
  O  O221  1  0.23972787  0.12733481  0.99324679  1
  O  O222  1  0.26012687  0.62996041  0.47345005  1
  O  O223  1  0.22906596  0.62545973  0.99679321  1
  O  O224  1  0.73329682  0.13336264  0.50607098  1
  O  O225  1  0.74519633  0.13499836  0.99366444  1
  O  O226  1  0.75500176  0.65100808  0.48021923  1
  O  O227  1  0.73413405  0.62307923  0.97881798  1
  O  O228  1  0.25035571  0.40585927  0.00956637  1
  O  O229  1  0.25936463  0.38605041  0.51268797  1
  O  O230  1  0.25335627  0.85795523  -0.00220546  1
  O  O231  1  0.26954276  0.87834178  0.48692780  1
  O  O232  1  0.75917915  0.36121957  -0.00201428  1
  O  O233  1  0.75860640  0.35232486  0.50337649  1
  O  O234  1  0.76664457  0.88381051  -0.00051756  1
  O  O235  1  0.74585935  0.86657302  0.50950348  1
  O  O236  1  0.13169160  0.51847530  0.24553175  1
  O  O237  1  0.13805379  0.47569332  0.77908686  1
  O  O238  1  0.13718049  1.01159961  0.25007044  1
  O  O239  1  0.12563340  0.99858732  0.75565778  1
  O  O240  1  0.63375019  0.48258385  0.25998311  1
  O  O241  1  0.61829263  0.47920972  0.74886739  1
  O  O242  1  0.64332267  1.00332230  0.26225557  1
  O  O243  1  0.62999024  1.01176921  0.74288484  1
  O  O244  1  0.37021175  0.01428211  0.25041758  1
  O  O245  1  0.38196878  0.01078898  0.76228627  1
  O  O246  1  0.39246268  0.48695877  0.26536115  1
  O  O247  1  0.27324597  0.55866496  0.70461745  1
  O  O248  1  0.87199036  0.00764901  0.25223287  1
  O  O249  1  0.86604913  0.01171619  0.76082086  1
  O  O250  1  0.88101396  0.50781488  0.24744022  1
  O  O251  1  0.85880281  0.48115184  0.71252801  1
  O  O252  1  0.13499186  0.39135503  0.34539858  1
  O  O253  1  0.11605978  0.36347435  0.88939316  1
  O  O254  1  0.11624047  0.87246463  0.36584703  1
  O  O255  1  0.10390196  0.85734131  0.88743971  1
  O  O256  1  0.63548741  0.35726970  0.36812944  1
  O  O257  1  0.61799098  0.36152749  0.86404643  1
  O  O258  1  0.61252188  0.86902757  0.38485961  1
  O  O259  1  0.62069642  0.86375107  0.88078337  1
  O  O260  1  0.37359407  0.13688860  0.14254380  1
  O  O261  1  0.36948797  0.11655863  0.64465449  1
  O  O262  1  0.39722061  0.59089337  0.13275499  1
  O  O263  1  0.37882783  0.63915481  0.61683845  1
  O  O264  1  0.88450117  0.12909568  0.13557906  1
  O  O265  1  0.87416282  0.12591226  0.64216657  1
  O  O266  1  0.88134290  0.62817642  0.13871417  1
  O  O267  1  0.86244535  0.64981016  0.62380805  1
  O  O268  1  0.26935633  0.25462468  0.13966509  1
  O  O269  1  0.25554487  0.25444971  0.61941438  1
  O  O270  1  0.25083314  0.73636973  0.11079560  1
  O  O271  1  0.27072113  0.75604883  0.63319603  1
  O  O272  1  0.76336878  0.24093196  0.11946871  1
  O  O273  1  0.74932030  0.24160806  0.61747537  1
  O  O274  1  0.69384296  0.81729562  0.12190344  1
  O  O275  1  0.75183655  0.76097739  0.61701716  1
  O  O276  1  0.25446135  0.24140634  0.36229556  1
  O  O277  1  0.25119066  0.23744964  0.87370296  1
  O  O278  1  0.24472404  0.74954526  0.36090993  1
  O  O279  1  0.23047085  0.74653496  0.87878782  1
  O  O280  1  0.73859536  0.23830247  0.38742651  1
  O  O281  1  0.74332161  0.24253385  0.88303732  1
  O  O282  1  0.73434747  0.76664878  0.38497356  1
  O  O283  1  0.73122991  0.74480488  0.86533648  1
  O  O284  1  0.01322879  0.13547960  0.01280768  1
  O  O285  1  0.01096208  0.10284348  0.50693684  1
  O  O286  1  -0.00962820  0.62772693  0.01466225  1
  O  O287  1  0.00193850  0.62910466  0.49867538  1
  O  O288  1  0.51155598  0.11678579  -0.00254379  1
  O  O289  1  0.51664259  0.13335903  0.50236169  1
  O  O290  1  0.51326102  0.61426320  -0.00615037  1
  O  O291  1  0.50684499  0.61165807  0.49646294  1
  O  O292  1  0.48466357  0.38026190  0.50812603  1
  O  O293  1  0.50430890  0.37059588  0.98127291  1
  O  O294  1  0.48386249  0.87821389  0.48489828  1
  O  O295  1  0.49294637  0.88227708  1.00600046  1
  O  O296  1  0.98911065  0.38161753  0.50397535  1
  O  O297  1  0.98837811  0.37225068  0.99532728  1
  O  O298  1  1.00937565  0.85872409  0.48776526  1
  O  O299  1  0.98189943  0.86192591  0.98570246  1
  O  O300  1  0.49319894  0.50081197  0.38530318  1
  O  O301  1  0.49547672  0.48143413  0.86077785  1
  O  O302  1  0.48608630  0.99666408  0.37547029  1
  O  O303  1  0.50623782  0.99345880  0.90105628  1
  O  O304  1  0.99607036  0.50803876  0.40072778  1
  O  O305  1  0.99464265  0.47443325  0.87203070  1
  O  O306  1  0.99327106  0.98378886  0.37362277  1
  O  O307  1  0.99079758  0.98579888  0.87376317  1
  O  O308  1  0.01741704  0.01627394  0.13674224  1
  O  O309  1  0.01889134  -0.03252849  0.62256758  1
  O  O310  1  -0.00529873  0.51763884  0.12307194  1
  O  O311  1  -0.01126990  0.50451446  0.60149836  1
  O  O312  1  0.49879058  0.00027903  0.10818808  1
  O  O313  1  0.50956328  0.00116160  0.63427536  1
  O  O314  1  0.51315098  0.50165542  0.11307380  1
  O  O315  1  0.49198983  0.50531149  0.61465938  1
  O  O316  1  0.25065346  0.39593569  0.23228561  1
  O  O317  1  0.25240629  0.37921646  0.72545895  1
  O  O318  1  0.24557523  0.89982643  0.25382876  1
  O  O319  1  0.23906811  0.88168440  0.76771229  1
  O  O320  1  0.74588432  0.36498875  0.25288060  1
  O  O321  1  0.73217194  0.36182780  0.74903757  1
  O  O322  1  0.75521615  0.88500519  0.24637365  1
  O  O323  1  0.75125280  0.89213836  0.74667257  1
  O  O324  1  0.26294067  0.12109809  0.26121405  1
  O  O325  1  0.26087049  0.12733387  0.76333680  1
  O  O326  1  0.25910963  0.63320820  0.26046008  1
  O  O327  1  0.23584037  0.61324987  0.74435148  1
  O  O328  1  0.76630317  0.11684346  0.25229964  1
  O  O329  1  0.75335833  0.11854792  0.76267820  1
  O  O330  1  0.75939024  0.61984554  0.25959150  1
  O  O331  1  0.74848941  0.62209530  0.76260846  1
  O  O332  1  0.37324971  0.11648172  0.36841123  1
  O  O333  1  0.36396302  0.12832944  0.87568059  1
  O  O334  1  0.37694086  0.61658199  0.37049651  1
  O  O335  1  0.37090261  0.59696581  0.86533533  1
  O  O336  1  0.88448458  0.10511102  0.36565869  1
  O  O337  1  0.86718172  0.12415071  0.86885292  1
  O  O338  1  0.86067298  0.63154998  0.36071462  1
  O  O339  1  0.86023462  0.62163987  0.88155380  1
  O  O340  1  0.09302217  0.38613008  0.16060851  1
  O  O341  1  0.13845208  0.37418262  0.62540618  1
  O  O342  1  0.11717809  0.89383026  0.12327637  1
  O  O343  1  0.08034633  0.92711208  0.61804696  1
  O  O344  1  0.62962535  0.36647429  0.14332819  1
  O  O345  1  0.61396331  0.36372239  0.63944722  1
  O  O346  1  0.63129165  0.85457397  0.12022069  1
  O  O347  1  0.63247480  0.89552095  0.61992144  1
  O  O348  1  0.10681668  0.24562672  0.25182666  1
  O  O349  1  0.14255116  0.27587619  0.75422605  1
  O  O350  1  0.11410671  0.75004805  0.25584192  1
  O  O351  1  0.10881524  0.74847876  0.76837974  1
  O  O352  1  0.62436608  0.24749949  0.26023718  1
  O  O353  1  0.61334635  0.24322510  0.76167431  1
  O  O354  1  0.62729626  0.76330538  0.25746792  1
  O  O355  1  0.61435982  0.75243268  0.75563364  1
  O  O356  1  0.39045601  0.24716195  0.25551238  1
  O  O357  1  0.38609523  0.24033078  0.75382578  1
  O  O358  1  0.37221887  0.79377164  0.21175743  1
  O  O359  1  0.38566982  0.74734092  0.73708106  1
  O  O360  1  0.87621108  0.23194364  0.25005626  1
  O  O361  1  0.87104348  0.23738302  0.73903805  1
  O  O362  1  0.88663171  0.74648097  0.25439526  1
  O  O363  1  0.87466152  0.75247907  0.74694154  1
  O  O364  1  0.38979438  0.49183624  0.48842838  1
  O  O365  1  0.33308132  0.54429439  0.90863963  1
  O  O366  1  0.36949661  0.99922454  0.49045584  1
  O  O367  1  0.37385810  0.99973630  1.00646029  1
  O  O368  1  0.85919929  0.48389906  0.51070265  1
  O  O369  1  0.87384594  0.48214148  1.00831472  1
  O  O370  1  0.86775590  1.00406398  0.48944539  1
  O  O371  1  0.87471157  1.01438474  0.98913924  1
  O  O372  1  0.12791321  0.01423665  0.01444443  1
  O  O373  1  0.16144702  0.02303048  0.50921876  1
  O  O374  1  0.11524635  0.51748210  -0.01530149  1
  O  O375  1  0.12450013  0.51477574  0.49943793  1
  O  O376  1  0.63244783  0.01668430  0.00443906  1
  O  O377  1  0.62976046  0.00952075  0.50764758  1
  O  O378  1  0.62571189  0.50114750  -0.01062418  1
  O  O379  1  0.60651156  0.48291415  0.49867720  1
  O  O380  1  0.38376764  0.36762852  0.12622107  1
  O  O381  1  0.36560277  0.37563829  0.61289920  1
  O  O382  1  0.37332430  0.85460706  0.15932660  1
  O  O383  1  0.37776663  0.87645751  0.60937488  1
  O  O384  1  0.88281045  0.36461274  0.12211137  1
  O  O385  1  0.87749443  0.34902807  0.61236146  1
  O  O386  1  0.88527651  0.88286728  0.10856721  1
  O  O387  1  0.85625772  0.87241387  0.63045057  1
  O  O388  1  0.14350882  0.11996189  0.38284373  1
  O  O389  1  0.12728408  0.13302254  0.89463705  1
  O  O390  1  0.13919188  0.63781299  0.36912700  1
  O  O391  1  0.10432142  0.64012941  0.88957278  1
  O  O392  1  0.62464011  0.12675360  0.38923671  1
  O  O393  1  0.63292885  0.13202477  0.88442169  1
  O  O394  1  0.64111031  0.64356211  0.36504390  1
  O  O395  1  0.63007900  0.62624647  0.87655655  1
