# generated using pymatgen
data_V35Zn35O128
_symmetry_space_group_name_H-M   'P 1'
_cell_length_a   17.04311589
_cell_length_b   16.84381621
_cell_length_c   17.07039106
_cell_angle_alpha   89.83443128
_cell_angle_beta   89.32407678
_cell_angle_gamma   90.72435884
_symmetry_Int_Tables_number   1
_chemical_formula_structural   V35Zn35O128
_chemical_formula_sum   'V70 Zn70 O256'
_cell_volume   4899.66092544
_cell_formula_units_Z   2
loop_
 _symmetry_equiv_pos_site_id
 _symmetry_equiv_pos_as_xyz
  1  'x, y, z'
loop_
 _atom_site_type_symbol
 _atom_site_label
 _atom_site_symmetry_multiplicity
 _atom_site_fract_x
 _atom_site_fract_y
 _atom_site_fract_z
 _atom_site_occupancy
  V  V0  1  0.11785087  0.62313180  -0.00120168  1
  V  V1  1  0.74963730  0.00892615  0.23240767  1
  V  V2  1  0.53259009  0.38919476  0.85139412  1
  V  V3  1  0.86832870  0.36897392  0.00731757  1
  V  V4  1  0.13340322  0.49830336  0.13101847  1
  V  V5  1  0.24448299  0.63105351  0.35603861  1
  V  V6  1  0.74991436  0.12573117  0.35975474  1
  V  V7  1  0.88084104  0.14304567  0.74248628  1
  V  V8  1  0.37045392  0.60973212  0.75052881  1
  V  V9  1  0.36825606  0.37645633  0.49402032  1
  V  V10  1  0.13671032  0.13132576  0.46967761  1
  V  V11  1  0.00642136  0.50008186  0.50437111  1
  V  V12  1  0.01948899  0.12383358  0.62575076  1
  V  V13  1  0.26176164  0.86598137  0.11478781  1
  V  V14  1  0.12336069  0.90513427  0.72072645  1
  V  V15  1  0.00843782  0.37239753  0.37277007  1
  V  V16  1  0.86798232  0.49988657  0.37478516  1
  V  V17  1  -0.00090143  -0.00331141  0.00067732  1
  V  V18  1  0.10781376  0.25925025  0.85201366  1
  V  V19  1  0.71980631  0.25099630  0.48378635  1
  V  V20  1  -0.00329957  0.61993295  0.13246106  1
  V  V21  1  0.61830690  0.50841164  0.13366384  1
  V  V22  1  0.10516625  0.74638274  0.86561094  1
  V  V23  1  0.36049891  0.75880907  0.62059548  1
  V  V24  1  0.47774219  0.63845088  0.11022711  1
  V  V25  1  0.75890794  0.15574593  0.88092889  1
  V  V26  1  0.48750752  0.88288874  0.37087978  1
  V  V27  1  0.39158827  0.13796853  0.79020118  1
  V  V28  1  0.12304334  -0.01110626  0.12148243  1
  V  V29  1  0.75078413  0.36834226  0.15234668  1
  V  V30  1  0.50780612  0.63126619  0.61346108  1
  V  V31  1  0.00380028  0.11855352  0.13526508  1
  V  V32  1  0.75101210  0.60870222  0.89644472  1
  V  V33  1  0.13898866  0.38460970  0.25564180  1
  V  V34  1  0.48431565  0.75870897  0.75590495  1
  V  V35  1  0.88144209  0.24172490  0.13570482  1
  V  V36  1  0.13103685  0.13629153  0.00013005  1
  V  V37  1  0.75884973  0.76633984  0.48383537  1
  V  V38  1  0.48686510  0.00862511  -0.01554600  1
  V  V39  1  -0.00571153  -0.00402460  0.48143639  1
  V  V40  1  0.73812361  0.36513870  0.62737577  1
  V  V41  1  0.26323056  0.00023899  0.24776253  1
  V  V42  1  0.37599627  0.40236946  -0.00039656  1
  V  V43  1  0.60932632  0.09083612  0.47779374  1
  V  V44  1  -0.01814021  0.62806251  0.63707633  1
  V  V45  1  0.87566690  0.35346156  0.49736242  1
  V  V46  1  0.86389139  0.00019888  0.87527482  1
  V  V47  1  0.86733570  0.77217191  0.63298286  1
  V  V48  1  0.00335382  0.74831954  0.26906822  1
  V  V49  1  0.63832886  0.62799789  0.47220465  1
  V  V50  1  0.24059792  0.61264218  0.86397797  1
  V  V51  1  0.47598149  0.74840423  0.24465753  1
  V  V52  1  0.25403796  0.75094907  -0.00677708  1
  V  V53  1  0.63022247  0.86928594  0.23772633  1
  V  V54  1  0.01397117  0.24697302  0.25798188  1
  V  V55  1  -0.00816941  0.49176292  0.00055302  1
  V  V56  1  0.49186116  0.13254626  0.12840714  1
  V  V57  1  0.86392582  0.62014415  0.25948451  1
  V  V58  1  0.74434349  0.74753677  0.01577372  1
  V  V59  1  0.12542506  0.86572413  0.26038233  1
  V  V60  1  0.62706766  0.14270649  -0.00961330  1
  V  V61  1  0.48709676  0.12205359  0.58664411  1
  V  V62  1  0.37741139  0.51593803  0.36862481  1
  V  V63  1  0.25315368  0.03053972  0.76538560  1
  V  V64  1  0.66051004  0.76697050  0.84345508  1
  V  V65  1  0.36166609  0.25314659  0.61988839  1
  V  V66  1  0.46247567  0.87232710  0.88385940  1
  V  V67  1  0.87836313  0.75176795  0.12973077  1
  V  V68  1  0.87215083  0.87377631  0.01067224  1
  V  V69  1  0.12531710  0.64532043  0.50392421  1
  Zn  Zn70  1  0.66008867  -0.03714348  0.67056737  1
  Zn  Zn71  1  0.37259582  0.26110729  0.12438983  1
  Zn  Zn72  1  -0.00237793  0.87151436  0.86690144  1
  Zn  Zn73  1  0.50446154  0.50041287  0.49466114  1
  Zn  Zn74  1  0.91934566  0.54109821  0.81246801  1
  Zn  Zn75  1  0.62587483  0.99584648  0.10245607  1
  Zn  Zn76  1  0.21955005  0.20499609  0.24663655  1
  Zn  Zn77  1  0.18802260  0.19201312  0.68892216  1
  Zn  Zn78  1  0.18582853  0.68868260  0.18237988  1
  Zn  Zn79  1  0.17678722  0.68599050  0.68184480  1
  Zn  Zn80  1  0.67757594  0.19296031  0.17306451  1
  Zn  Zn81  1  0.69879892  0.15306201  0.64770563  1
  Zn  Zn82  1  0.68657030  0.68123293  0.18928101  1
  Zn  Zn83  1  0.68390421  0.71276157  0.68095497  1
  Zn  Zn84  1  0.34068121  0.34725354  0.28925838  1
  Zn  Zn85  1  0.28531241  0.22247231  0.94798158  1
  Zn  Zn86  1  0.30717262  0.81255355  0.31235116  1
  Zn  Zn87  1  0.29365412  0.81120997  0.80382000  1
  Zn  Zn88  1  0.82585321  0.29912136  0.31939644  1
  Zn  Zn89  1  0.82897622  0.33449955  0.80233122  1
  Zn  Zn90  1  0.81573428  0.82478577  0.30748236  1
  Zn  Zn91  1  0.83018585  0.80198981  0.82227449  1
  Zn  Zn92  1  0.19692834  0.44740639  0.44332249  1
  Zn  Zn93  1  0.20261748  0.40001756  0.89052389  1
  Zn  Zn94  1  0.18055565  0.95598449  0.42950895  1
  Zn  Zn95  1  0.18342122  0.93267408  0.93224493  1
  Zn  Zn96  1  0.68538790  0.44262176  0.44360607  1
  Zn  Zn97  1  0.67781612  0.41887675  0.96918227  1
  Zn  Zn98  1  0.68810393  0.93135802  0.40838701  1
  Zn  Zn99  1  0.64764682  0.96560063  0.88527956  1
  Zn  Zn100  1  0.31058160  0.06264249  0.06542454  1
  Zn  Zn101  1  0.28988840  0.06466213  0.58095340  1
  Zn  Zn102  1  0.30572675  0.56763179  0.05391062  1
  Zn  Zn103  1  0.33135873  0.59866620  0.53711979  1
  Zn  Zn104  1  0.81217897  0.06988731  0.05635848  1
  Zn  Zn105  1  0.82181069  0.03881159  0.57330893  1
  Zn  Zn106  1  0.80611370  0.55465796  0.07698061  1
  Zn  Zn107  1  0.80415474  0.55607270  0.55659747  1
  Zn  Zn108  1  0.42409780  0.47035618  0.16928374  1
  Zn  Zn109  1  0.44887167  0.43562676  0.68228140  1
  Zn  Zn110  1  0.44647017  0.93709117  0.17515673  1
  Zn  Zn111  1  0.48276637  0.92123220  0.65526361  1
  Zn  Zn112  1  0.93888503  0.43299454  0.19458571  1
  Zn  Zn113  1  0.89499530  0.44776224  0.66377849  1
  Zn  Zn114  1  0.93167677  0.93498107  0.20956074  1
  Zn  Zn115  1  0.94745441  0.94794427  0.68867388  1
  Zn  Zn116  1  0.07466565  0.05660676  0.31133035  1
  Zn  Zn117  1  0.05871931  0.06924346  0.81683092  1
  Zn  Zn118  1  0.06396032  0.56420611  0.32164167  1
  Zn  Zn119  1  -0.01222361  0.38065277  0.84930076  1
  Zn  Zn120  1  0.56279281  0.05547743  0.30008019  1
  Zn  Zn121  1  0.60010189  0.09727286  0.77915657  1
  Zn  Zn122  1  0.55666939  0.56985454  0.30184291  1
  Zn  Zn123  1  0.58068923  0.58795493  0.80839013  1
  Zn  Zn124  1  0.54814123  0.31650176  0.56583793  1
  Zn  Zn125  1  0.45625531  0.22291466  0.94179482  1
  Zn  Zn126  1  0.43800188  0.70409724  0.43204861  1
  Zn  Zn127  1  0.42919793  0.67289958  0.93034699  1
  Zn  Zn128  1  0.92057933  0.14768347  0.45156623  1
  Zn  Zn129  1  0.94463859  0.18825672  0.94693574  1
  Zn  Zn130  1  0.92924324  0.68643442  0.44744810  1
  Zn  Zn131  1  0.92837882  0.67792392  0.94332991  1
  Zn  Zn132  1  0.06418966  0.31545604  0.07358799  1
  Zn  Zn133  1  0.05336931  0.28836249  0.54180793  1
  Zn  Zn134  1  0.05826183  0.80922124  0.06175120  1
  Zn  Zn135  1  0.04711624  0.81696524  0.55965629  1
  Zn  Zn136  1  0.57271024  0.31861187  0.08062423  1
  Zn  Zn137  1  0.53680302  0.25487974  0.74099925  1
  Zn  Zn138  1  0.55357124  0.81770260  0.05793610  1
  Zn  Zn139  1  0.59272761  0.83250121  0.53554163  1
  O  O140  1  0.11708627  0.10278303  0.11386198  1
  O  O141  1  0.11899319  0.12124905  0.62721291  1
  O  O142  1  0.11399390  0.61835146  0.12042816  1
  O  O143  1  0.09609384  0.63460960  0.61388381  1
  O  O144  1  0.61321856  0.12704535  0.10221663  1
  O  O145  1  0.60230705  0.13500665  0.57463817  1
  O  O146  1  0.64594984  0.60521429  0.11476839  1
  O  O147  1  0.60413540  0.64108100  0.63266770  1
  O  O148  1  0.37103928  0.39013802  0.38911039  1
  O  O149  1  0.34183093  0.35877770  0.79586729  1
  O  O150  1  0.38656894  0.86650835  0.36862067  1
  O  O151  1  0.36507292  0.87295717  0.87702201  1
  O  O152  1  0.89027085  0.38115007  0.37706006  1
  O  O153  1  0.87613889  0.36726558  0.90731910  1
  O  O154  1  0.89734017  0.89877747  0.31381806  1
  O  O155  1  0.88191274  0.88306104  0.88757985  1
  O  O156  1  0.25202001  -0.01380576  0.34657730  1
  O  O157  1  0.24443084  -0.01093038  0.85913979  1
  O  O158  1  0.26246324  0.52017554  0.38284253  1
  O  O159  1  0.22736823  0.51477242  0.87106683  1
  O  O160  1  0.74357736  0.01748308  0.35323301  1
  O  O161  1  0.76628444  -0.00843844  0.88787906  1
  O  O162  1  0.77067779  0.49005871  0.37899242  1
  O  O163  1  0.72630262  0.51449475  0.91958970  1
  O  O164  1  0.23047855  0.51197718  0.12229407  1
  O  O165  1  0.23392065  0.47443487  0.64666527  1
  O  O166  1  0.24154740  0.98031215  0.12084932  1
  O  O167  1  0.25906195  0.99911095  0.66606267  1
  O  O168  1  0.73519727  0.47378713  0.12938842  1
  O  O169  1  0.78114911  0.46619527  0.62508606  1
  O  O170  1  0.73955119  1.01772466  0.12780622  1
  O  O171  1  0.73021057  1.04186279  0.63073614  1
  O  O172  1  0.01186953  0.36804604  0.25719289  1
  O  O173  1  0.08692564  0.39076236  0.67799601  1
  O  O174  1  0.01727854  0.85707852  0.24425221  1
  O  O175  1  0.02206616  0.88779732  0.75372314  1
  O  O176  1  0.50410586  0.37883969  0.22134047  1
  O  O177  1  0.52157590  0.37396274  0.74305954  1
  O  O178  1  0.50348195  0.86210587  0.24355989  1
  O  O179  1  0.48457583  0.86413858  0.76690730  1
  O  O180  1  0.50732986  0.12202411  0.22503191  1
  O  O181  1  0.49103004  0.13256863  0.78955300  1
  O  O182  1  0.50446918  0.64459421  0.23140950  1
  O  O183  1  0.47675502  0.63592841  0.76344070  1
  O  O184  1  1.01903204  0.13092755  0.24079033  1
  O  O185  1  0.98867151  0.11339373  0.73656467  1
  O  O186  1  0.99932284  0.63409222  0.24899010  1
  O  O187  1  0.98094840  0.60835707  0.73380656  1
  O  O188  1  0.37078067  0.26588637  0.00874194  1
  O  O189  1  0.37251462  0.27329154  0.50781790  1
  O  O190  1  0.35027337  0.74229668  -0.01098560  1
  O  O191  1  0.37230756  0.72022101  0.52284356  1
  O  O192  1  0.89652419  0.26281068  0.02567521  1
  O  O193  1  0.87661450  0.25470247  0.47645695  1
  O  O194  1  0.87915605  0.75516400  0.01509089  1
  O  O195  1  0.86347791  0.75340857  0.50931488  1
  O  O196  1  0.13528941  0.23197795  0.49251596  1
  O  O197  1  0.12348353  0.23429277  1.02166856  1
  O  O198  1  0.11411787  0.74407169  0.49761997  1
  O  O199  1  0.12080825  0.73399115  0.99906631  1
  O  O200  1  0.62430710  0.27138682  0.48580226  1
  O  O201  1  0.61551479  0.24205280  0.99611465  1
  O  O202  1  0.64741025  0.73786739  0.49937894  1
  O  O203  1  0.64720006  0.75260155  1.02255469  1
  O  O204  1  0.49758363  0.23844856  0.11404504  1
  O  O205  1  0.49075771  0.23045133  0.62244057  1
  O  O206  1  0.49775703  0.74578491  0.13013727  1
  O  O207  1  0.48300823  0.73827035  0.64686873  1
  O  O208  1  1.00333461  0.23992233  0.14003086  1
  O  O209  1  0.99577702  0.22325432  0.61531072  1
  O  O210  1  0.99376058  0.73429509  0.12942250  1
  O  O211  1  0.97707700  0.73833974  0.61630033  1
  O  O212  1  0.00238383  0.26079688  0.36391057  1
  O  O213  1  0.00629300  0.26164346  0.88594064  1
  O  O214  1  -0.00405015  0.74425555  0.36606382  1
  O  O215  1  0.00207600  0.74246646  0.88179628  1
  O  O216  1  0.56843394  0.34341197  0.36995145  1
  O  O217  1  0.50356607  0.27821692  0.85414486  1
  O  O218  1  0.49666831  0.75323077  0.34809210  1
  O  O219  1  0.47821626  0.76057863  0.86899386  1
  O  O220  1  0.23059861  0.10193463  0.49554543  1
  O  O221  1  0.23357328  0.12327450  1.00300978  1
  O  O222  1  0.22205760  0.62338170  0.52010822  1
  O  O223  1  0.23572991  0.63279480  0.98959395  1
  O  O224  1  0.72366114  0.13824109  0.47513935  1
  O  O225  1  0.73958210  0.13249011  0.99292057  1
  O  O226  1  0.74047099  0.62514255  0.49371290  1
  O  O227  1  0.76466292  0.63711484  1.00493265  1
  O  O228  1  0.28112196  0.38684596  -0.03369301  1
  O  O229  1  0.26930651  0.39519189  0.51213360  1
  O  O230  1  0.24196220  0.86148368  0.00543620  1
  O  O231  1  0.26940890  0.90070710  0.49908966  1
  O  O232  1  0.76666472  0.36485015  0.02420942  1
  O  O233  1  0.76209536  0.36280707  0.49012953  1
  O  O234  1  0.76943642  0.85815294  0.00959362  1
  O  O235  1  0.73935513  0.86646717  0.48873116  1
  O  O236  1  0.11492620  0.49670537  0.23919546  1
  O  O237  1  0.18469452  0.49097755  0.69679454  1
  O  O238  1  0.12963084  0.97960121  0.23868746  1
  O  O239  1  0.13199577  1.00709864  0.75267926  1
  O  O240  1  0.61300644  0.49541105  0.23237595  1
  O  O241  1  0.69167278  0.60021115  0.73862059  1
  O  O242  1  0.63197762  0.99294166  0.23339215  1
  O  O243  1  0.63090584  0.99107398  0.77658556  1
  O  O244  1  0.36069351  -0.01118359  0.23044451  1
  O  O245  1  0.36369873  0.04000204  0.76816778  1
  O  O246  1  0.37545611  0.48576917  0.26960591  1
  O  O247  1  0.37448638  0.51131192  0.74413118  1
  O  O248  1  0.84910951  0.01459949  0.22929330  1
  O  O249  1  0.88124305  0.00459473  0.77509419  1
  O  O250  1  0.88646072  0.50644836  0.26613740  1
  O  O251  1  0.91072050  0.43141994  0.77298303  1
  O  O252  1  0.11906284  0.39113113  0.36472305  1
  O  O253  1  0.10314879  0.37015607  0.84745572  1
  O  O254  1  0.13366750  0.87131381  0.35723307  1
  O  O255  1  0.11320373  0.85151028  0.88645438  1
  O  O256  1  0.63418343  0.38803559  0.35224083  1
  O  O257  1  0.62723306  0.37527414  0.87965258  1
  O  O258  1  0.60914200  0.87967962  0.34355296  1
  O  O259  1  0.62236391  0.84665319  0.88972317  1
  O  O260  1  0.38898479  0.12873967  0.11685535  1
  O  O261  1  0.38077346  0.13640519  0.58557332  1
  O  O262  1  0.37940882  0.62459360  0.12092982  1
  O  O263  1  0.37428546  0.63294738  0.64379603  1
  O  O264  1  0.89244368  0.13385311  0.11922047  1
  O  O265  1  0.86475836  0.13410417  0.64571289  1
  O  O266  1  0.88208307  0.62479449  0.14007422  1
  O  O267  1  0.88234342  0.62036860  0.61226630  1
  O  O268  1  0.31678479  0.25916030  0.22385621  1
  O  O269  1  0.26221513  0.24309190  0.62175445  1
  O  O270  1  0.24084630  0.75599540  0.10707458  1
  O  O271  1  0.26097712  0.75138959  0.63531424  1
  O  O272  1  0.78107186  0.24188111  0.13724358  1
  O  O273  1  0.74399155  0.25176037  0.58868956  1
  O  O274  1  0.76959388  0.73919686  0.12281185  1
  O  O275  1  0.76314277  0.75340141  0.61161373  1
  O  O276  1  0.33537739  0.16366193  0.37856261  1
  O  O277  1  0.20564057  0.26719497  0.88506872  1
  O  O278  1  0.25266915  0.73147732  0.37362883  1
  O  O279  1  0.23009571  0.74449799  0.88517068  1
  O  O280  1  0.74175676  0.24503887  0.37541841  1
  O  O281  1  0.76887222  0.25321663  0.87953778  1
  O  O282  1  0.77053343  0.75444373  0.38419305  1
  O  O283  1  0.75894347  0.74358972  0.90255575  1
  O  O284  1  0.00810369  0.11336380  0.01632958  1
  O  O285  1  0.02079135  0.12360978  0.50238916  1
  O  O286  1  -0.00200405  0.61254371  0.01370744  1
  O  O287  1  0.00818849  0.61059825  0.49461766  1
  O  O288  1  0.51084315  0.12181592  -0.01484738  1
  O  O289  1  0.49982128  0.09661655  0.48590759  1
  O  O290  1  0.49808557  0.64500525  0.01137359  1
  O  O291  1  0.51792454  0.64111636  0.50714864  1
  O  O292  1  0.47702359  0.39084779  0.51969938  1
  O  O293  1  0.46112559  0.38754833  0.93962050  1
  O  O294  1  0.50938842  0.86232541  0.46765716  1
  O  O295  1  0.48886708  0.88221564  0.98860783  1
  O  O296  1  0.99280294  0.37536842  0.49180605  1
  O  O297  1  0.99546249  0.38749178  1.01690302  1
  O  O298  1  0.99253325  0.89616375  0.49885854  1
  O  O299  1  0.99020948  0.88357018  1.00398075  1
  O  O300  1  0.48347733  0.52209142  0.37650119  1
  O  O301  1  0.53010957  0.49374017  0.84237009  1
  O  O302  1  0.49232845  0.98366322  0.35537390  1
  O  O303  1  0.49374344  0.97843490  0.88118923  1
  O  O304  1  0.99669104  0.48963976  0.38568044  1
  O  O305  1  0.99347768  0.49835318  0.90065429  1
  O  O306  1  0.99791238  1.00908585  0.38025727  1
  O  O307  1  0.99158455  1.00289664  0.89274018  1
  O  O308  1  0.00356564  -0.00055560  0.12566817  1
  O  O309  1  -0.01552513  0.02064033  0.60770538  1
  O  O310  1  0.00233911  0.50914811  0.12779024  1
  O  O311  1  -0.01589064  0.50594807  0.60730850  1
  O  O312  1  0.50035846  0.01265776  0.10114164  1
  O  O313  1  0.49049160  0.03780062  0.64214739  1
  O  O314  1  0.50984245  0.53252686  0.12541621  1
  O  O315  1  0.49090644  0.52918182  0.62353247  1
  O  O316  1  0.23499886  0.39258262  0.26178456  1
  O  O317  1  0.27418575  0.37264809  0.77421525  1
  O  O318  1  0.23811022  0.86752517  0.23021383  1
  O  O319  1  0.20851857  0.86370069  0.75304152  1
  O  O320  1  0.77282885  0.37255933  0.24731683  1
  O  O321  1  0.74958052  0.34412391  0.72352217  1
  O  O322  1  0.73854822  0.89345430  0.24689295  1
  O  O323  1  0.72332245  0.80348541  0.77114167  1
  O  O324  1  0.24326559  0.09786894  0.22952970  1
  O  O325  1  0.24173650  0.13164556  0.77004089  1
  O  O326  1  0.23653894  0.62387336  0.25769832  1
  O  O327  1  0.25058239  0.62876840  0.75908468  1
  O  O328  1  0.72763167  0.12636926  0.25356001  1
  O  O329  1  0.77732641  0.12796472  0.78025251  1
  O  O330  1  0.76632088  0.62744874  0.25255705  1
  O  O331  1  0.75859137  0.59691688  0.78357973  1
  O  O332  1  0.37576083  0.10438762  0.37481778  1
  O  O333  1  0.36503318  0.16244474  0.88547814  1
  O  O334  1  0.36150319  0.62388155  0.37302019  1
  O  O335  1  0.34980302  0.62406697  0.86398691  1
  O  O336  1  0.84850886  0.13653550  0.36251185  1
  O  O337  1  0.86931171  0.11455459  0.89482317  1
  O  O338  1  0.88293735  0.60830381  0.37330063  1
  O  O339  1  0.86041875  0.61116216  0.88053332  1
  O  O340  1  0.12429198  0.39031548  0.13821873  1
  O  O341  1  0.12448826  0.35474070  0.62602150  1
  O  O342  1  0.12701768  0.87850785  0.12471414  1
  O  O343  1  0.11512271  0.88420697  0.62353387  1
  O  O344  1  0.66003784  0.31312371  0.15859963  1
  O  O345  1  0.64093717  0.37621215  0.61040112  1
  O  O346  1  0.61310587  0.88217672  0.13192837  1
  O  O347  1  0.58960567  0.88500053  0.63177398  1
  O  O348  1  0.12677108  0.27168459  0.24770959  1
  O  O349  1  0.10817975  0.23631059  0.75614463  1
  O  O350  1  0.11333886  0.75325149  0.24713512  1
  O  O351  1  0.11489294  0.73538976  0.76784329  1
  O  O352  1  0.56388791  0.27566160  0.33817615  1
  O  O353  1  0.63064989  0.19414195  0.72696690  1
  O  O354  1  0.63421473  0.76630465  0.23685151  1
  O  O355  1  0.59171135  0.74071698  0.76153400  1
  O  O356  1  0.46368804  0.32215156  0.25049200  1
  O  O357  1  0.37367272  0.21759874  0.72374824  1
  O  O358  1  0.37812029  0.75056146  0.24020574  1
  O  O359  1  0.37215949  0.74709135  0.74556740  1
  O  O360  1  0.89902940  0.24989125  0.24222118  1
  O  O361  1  0.89052218  0.24070681  0.76262906  1
  O  O362  1  0.89010732  0.74033981  0.24676513  1
  O  O363  1  0.86939708  0.74847536  0.73134988  1
  O  O364  1  0.38098693  0.50809555  0.48788742  1
  O  O365  1  0.37914972  0.50530958  0.99852557  1
  O  O366  1  0.32729582  0.94602181  0.51110474  1
  O  O367  1  0.38834975  1.01444101  0.99374673  1
  O  O368  1  0.88498000  0.48581938  0.48608477  1
  O  O369  1  0.88414346  0.48493111  1.02126190  1
  O  O370  1  0.88989423  1.03547762  0.48877101  1
  O  O371  1  0.88175429  0.99238964  1.00152419  1
  O  O372  1  0.11484992  -0.00101492  0.00438064  1
  O  O373  1  0.10693880  0.01343459  0.48880736  1
  O  O374  1  0.10687126  0.50828060  0.01849943  1
  O  O375  1  0.10637673  0.49115389  0.50297269  1
  O  O376  1  0.61029887  0.01348957  -0.01493031  1
  O  O377  1  0.62874250  -0.00570307  0.48781044  1
  O  O378  1  0.60420360  0.42841008  0.05904238  1
  O  O379  1  0.62048714  0.52129999  0.49372588  1
  O  O380  1  0.38641032  0.38595522  0.10459585  1
  O  O381  1  0.37647033  0.35566967  0.63446942  1
  O  O382  1  0.35845653  0.87241908  0.11747854  1
  O  O383  1  0.38993173  0.85702428  0.62276456  1
  O  O384  1  0.87142507  0.36347132  0.12973194  1
  O  O385  1  0.87588862  0.35247347  0.59753931  1
  O  O386  1  0.88706003  0.86019246  0.12492716  1
  O  O387  1  0.87746836  0.87321890  0.63278415  1
  O  O388  1  0.14028355  0.13185655  0.36754928  1
  O  O389  1  0.10718224  0.14007703  0.89691432  1
  O  O390  1  0.13696905  0.61779016  0.39251954  1
  O  O391  1  0.12801379  0.63288583  0.88634075  1
  O  O392  1  0.61999765  0.11988856  0.37667407  1
  O  O393  1  0.65127701  0.13476905  0.88197525  1
  O  O394  1  0.62810261  0.62903428  0.37463167  1
  O  O395  1  0.64934713  0.65480800  0.87621100  1
