# generated using pymatgen
data_V35Zn35O128
_symmetry_space_group_name_H-M   'P 1'
_cell_length_a   16.89996138
_cell_length_b   16.85554252
_cell_length_c   16.93429938
_cell_angle_alpha   90.01692873
_cell_angle_beta   90.08949522
_cell_angle_gamma   89.95373405
_symmetry_Int_Tables_number   1
_chemical_formula_structural   V35Zn35O128
_chemical_formula_sum   'V70 Zn70 O256'
_cell_volume   4823.86328555
_cell_formula_units_Z   2
loop_
 _symmetry_equiv_pos_site_id
 _symmetry_equiv_pos_as_xyz
  1  'x, y, z'
loop_
 _atom_site_type_symbol
 _atom_site_label
 _atom_site_symmetry_multiplicity
 _atom_site_fract_x
 _atom_site_fract_y
 _atom_site_fract_z
 _atom_site_occupancy
  V  V0  1  0.11764958  0.37501476  0.25108942  1
  V  V1  1  0.61504579  0.62153218  0.49105158  1
  V  V2  1  0.61486007  0.38148618  0.74853347  1
  V  V3  1  0.74274464  0.38563953  0.61319635  1
  V  V4  1  0.24535760  0.75089308  0.50000732  1
  V  V5  1  0.74414238  0.23352775  0.49728632  1
  V  V6  1  0.50353741  0.00924839  -0.00774838  1
  V  V7  1  0.39440892  0.37780059  0.49798639  1
  V  V8  1  0.61989721  0.25695474  0.86652842  1
  V  V9  1  0.74771893  0.63553818  0.87959177  1
  V  V10  1  0.09685418  0.01498603  0.11451500  1
  V  V11  1  0.37586547  0.75519340  0.62550861  1
  V  V12  1  0.88282806  0.63419751  0.75513135  1
  V  V13  1  0.11753087  0.36482530  0.74171826  1
  V  V14  1  0.51664427  0.76331676  0.75113629  1
  V  V15  1  0.49797319  0.48313171  -0.01450029  1
  V  V16  1  0.10822032  0.87035986  0.77082473  1
  V  V17  1  0.24205490  0.88124013  0.63000463  1
  V  V18  1  0.48907058  0.63250359  0.11925657  1
  V  V19  1  0.86395343  -0.00367123  0.39414754  1
  V  V20  1  0.88988857  0.89221095  0.00038274  1
  V  V21  1  0.87731269  0.74997180  0.11451052  1
  V  V22  1  0.62493129  0.63747627  -0.00517247  1
  V  V23  1  0.79260495  0.68016215  0.42795096  1
  V  V24  1  0.37614010  0.62766845  0.24307888  1
  V  V25  1  0.52113790  0.87667475  0.88108329  1
  V  V26  1  0.51176692  0.00647133  0.51868795  1
  V  V27  1  0.87386167  0.25010251  0.62258247  1
  V  V28  1  0.61823046  0.49459039  0.12041231  1
  V  V29  1  0.62469395  0.00540110  0.12095295  1
  V  V30  1  0.48651666  0.23409660  0.24601678  1
  V  V31  1  0.73759902  -0.01376417  0.74839319  1
  V  V32  1  0.75659872  0.49586745  0.76057159  1
  V  V33  1  0.86879006  0.63150362  0.24719753  1
  V  V34  1  0.00939099  0.61810427  0.12372089  1
  V  V35  1  0.38093116  0.24259616  0.61580525  1
  V  V36  1  0.74768550  0.50067276  0.25537080  1
  V  V37  1  -0.00710796  0.64597182  0.62037096  1
  V  V38  1  0.36703911  0.25243271  0.10404935  1
  V  V39  1  0.24999458  0.62139429  0.37624569  1
  V  V40  1  0.35720525  -0.00120723  0.87735978  1
  V  V41  1  0.59870845  0.75570561  0.36693590  1
  V  V42  1  0.38379196  -0.00593076  0.37769214  1
  V  V43  1  0.87053146  0.12600765  0.26246646  1
  V  V44  1  -0.00784003  0.38630591  0.39817068  1
  V  V45  1  0.12440817  0.75790068  0.34948271  1
  V  V46  1  0.36577154  0.62784636  0.75451134  1
  V  V47  1  0.86960943  0.50007039  0.38744672  1
  V  V48  1  0.74417271  0.86941848  0.11785370  1
  V  V49  1  0.75969198  0.12747608  0.86834687  1
  V  V50  1  0.63772710  0.13549574  -0.00033524  1
  V  V51  1  -0.00332078  0.89079824  0.36897721  1
  V  V52  1  0.61290405  0.37159863  0.25600037  1
  V  V53  1  0.38770346  0.49474904  0.37794607  1
  V  V54  1  0.11118647  0.10252887  0.50854838  1
  V  V55  1  0.23924660  -0.01073889  0.25693861  1
  V  V56  1  0.25211119  0.38987671  0.61445644  1
  V  V57  1  0.24362462  0.48923241  0.24570535  1
  V  V58  1  -0.00999272  0.25425113  0.25947056  1
  V  V59  1  0.88231675  0.12064498  0.73727167  1
  V  V60  1  0.10898467  0.50942826  0.62470843  1
  V  V61  1  0.37787958  0.13384220  0.75707813  1
  V  V62  1  0.25500641  0.13060530  0.38030720  1
  V  V63  1  0.12600652  0.25347321  0.39467877  1
  V  V64  1  0.36941755  0.49378465  0.86515921  1
  V  V65  1  0.51022526  0.62002069  0.62561669  1
  V  V66  1  0.74690135  0.00172928  0.25366136  1
  V  V67  1  0.75356752  0.36971905  0.11580684  1
  V  V68  1  0.87412158  0.24788834  0.12152998  1
  V  V69  1  0.61888608  0.23846591  0.38245512  1
  Zn  Zn70  1  0.90391744  0.42838815  0.92682156  1
  Zn  Zn71  1  0.06077491  0.48404404  0.01920307  1
  Zn  Zn72  1  0.24153656  0.01358935  0.74074109  1
  Zn  Zn73  1  0.38005024  0.87704846  0.49915687  1
  Zn  Zn74  1  0.60352602  0.87171685  0.24894154  1
  Zn  Zn75  1  0.10882301  0.62360436  0.48670950  1
  Zn  Zn76  1  0.23162906  0.15154256  0.15750786  1
  Zn  Zn77  1  0.20050856  0.19584796  0.67046051  1
  Zn  Zn78  1  0.19777279  0.68121721  0.18542415  1
  Zn  Zn79  1  0.18079800  0.69339806  0.69075428  1
  Zn  Zn80  1  0.68891930  0.18792027  0.19244500  1
  Zn  Zn81  1  0.69198556  0.19338156  0.69003080  1
  Zn  Zn82  1  0.68183985  0.68865984  0.18594506  1
  Zn  Zn83  1  0.69303334  0.69095315  0.68427337  1
  Zn  Zn84  1  0.31039273  0.31138563  0.31852274  1
  Zn  Zn85  1  0.31280715  0.32131326  0.78786536  1
  Zn  Zn86  1  0.31654638  0.81123284  0.31240002  1
  Zn  Zn87  1  0.32398839  0.82020581  0.81047680  1
  Zn  Zn88  1  0.80396403  0.32124616  0.31867768  1
  Zn  Zn89  1  0.80566027  0.30835183  0.80640309  1
  Zn  Zn90  1  0.80931509  0.82108095  0.30746099  1
  Zn  Zn91  1  0.81921266  0.81168601  0.82252650  1
  Zn  Zn92  1  0.18512806  0.44349794  0.44339243  1
  Zn  Zn93  1  0.19303381  0.42872455  0.90867841  1
  Zn  Zn94  1  0.18790255  0.93643477  0.43507882  1
  Zn  Zn95  1  0.13607450  0.96760896  0.92419830  1
  Zn  Zn96  1  0.67446735  0.43786625  0.43536588  1
  Zn  Zn97  1  0.68764227  0.43863951  0.93661971  1
  Zn  Zn98  1  0.67810415  0.92883410  0.44151863  1
  Zn  Zn99  1  0.69936728  0.94228007  0.93633196  1
  Zn  Zn100  1  0.35020706  0.03042544  0.09822728  1
  Zn  Zn101  1  0.30760057  0.06583616  0.55178207  1
  Zn  Zn102  1  0.31138180  0.53762116  0.05710337  1
  Zn  Zn103  1  0.31893330  0.56519387  0.56236536  1
  Zn  Zn104  1  0.81554907  0.06757705  0.06712803  1
  Zn  Zn105  1  0.78642024  0.05879042  0.57084880  1
  Zn  Zn106  1  0.80580001  0.55901705  0.06565596  1
  Zn  Zn107  1  0.80726757  0.56953355  0.57228792  1
  Zn  Zn108  1  0.42942698  0.43264687  0.18168165  1
  Zn  Zn109  1  0.43800551  0.44147468  0.68397859  1
  Zn  Zn110  1  0.41870318  0.93460668  0.21872658  1
  Zn  Zn111  1  0.43711356  0.94523279  0.69422684  1
  Zn  Zn112  1  0.93763599  0.44227154  0.18872607  1
  Zn  Zn113  1  0.92876830  0.43567175  0.67689046  1
  Zn  Zn114  1  0.93678064  0.94266536  0.19217639  1
  Zn  Zn115  1  0.93536021  0.95335367  0.82376500  1
  Zn  Zn116  1  0.09191524  0.09987420  0.27433455  1
  Zn  Zn117  1  0.07395800  0.06192203  0.69842115  1
  Zn  Zn118  1  0.05501413  0.56519835  0.30970898  1
  Zn  Zn119  1  0.03540025  0.50666846  0.80133321  1
  Zn  Zn120  1  0.56269919  0.06192384  0.31132662  1
  Zn  Zn121  1  0.56509098  0.07080637  0.80299743  1
  Zn  Zn122  1  0.56241770  0.56846387  0.30503406  1
  Zn  Zn123  1  0.56411007  0.56443051  0.80751121  1
  Zn  Zn124  1  0.44181343  0.19212578  0.43630302  1
  Zn  Zn125  1  0.44203810  0.18569750  0.93135105  1
  Zn  Zn126  1  0.43230939  0.68474460  0.43664342  1
  Zn  Zn127  1  0.44931909  0.68415988  0.93077158  1
  Zn  Zn128  1  0.93489723  0.18435323  0.44217200  1
  Zn  Zn129  1  0.91256888  0.23732023  0.91277898  1
  Zn  Zn130  1  0.96328867  0.73374208  0.45326254  1
  Zn  Zn131  1  0.93685140  0.58846310  0.94528148  1
  Zn  Zn132  1  0.21141842  0.36012126  0.08220582  1
  Zn  Zn133  1  0.06274878  0.31176210  0.57649162  1
  Zn  Zn134  1  0.05115014  0.83099375  0.10969254  1
  Zn  Zn135  1  0.06183920  0.82368758  0.55869658  1
  Zn  Zn136  1  0.55567620  0.30513877  0.06654123  1
  Zn  Zn137  1  0.55746039  0.18038069  0.57393932  1
  Zn  Zn138  1  0.46796069  0.84787579  0.09524907  1
  Zn  Zn139  1  0.54785132  0.80405768  0.54189215  1
  O  O140  1  0.12163194  0.11117768  0.16029246  1
  O  O141  1  0.12924082  0.11741414  0.61404694  1
  O  O142  1  0.10603057  0.62834840  0.14474067  1
  O  O143  1  0.10649749  0.62312672  0.63350468  1
  O  O144  1  0.63841911  0.12193992  0.10827157  1
  O  O145  1  0.62895099  0.12375630  0.63438905  1
  O  O146  1  0.61351183  0.61600157  0.11450346  1
  O  O147  1  0.61661258  0.63792491  0.61075784  1
  O  O148  1  0.37110691  0.38661777  0.38544723  1
  O  O149  1  0.37983923  0.39601936  0.84542660  1
  O  O150  1  0.37460049  0.88911829  0.37645397  1
  O  O151  1  0.38437263  0.89793007  0.87315840  1
  O  O152  1  0.88436983  0.38511309  0.37662766  1
  O  O153  1  0.89585239  0.33877821  0.86746622  1
  O  O154  1  0.88052914  0.88657170  0.37232264  1
  O  O155  1  0.88121664  0.87746248  0.89498663  1
  O  O156  1  0.25988980  0.00953534  0.37787974  1
  O  O157  1  0.25847904  -0.00262982  0.88833908  1
  O  O158  1  0.25520965  0.50838997  0.37050868  1
  O  O159  1  0.27003188  0.50595777  0.87680381  1
  O  O160  1  0.75624493  -0.01652517  0.36717562  1
  O  O161  1  0.75324604  0.02009637  0.87040779  1
  O  O162  1  0.75288504  0.48863597  0.36266950  1
  O  O163  1  0.75133004  0.50457686  0.86502864  1
  O  O164  1  0.25393815  0.48774845  0.14536904  1
  O  O165  1  0.25127295  0.49574280  0.62337611  1
  O  O166  1  0.24665683  1.02057153  0.15693235  1
  O  O167  1  0.26238889  0.98247597  0.62047511  1
  O  O168  1  0.73717866  0.48803199  0.13144592  1
  O  O169  1  0.75097099  0.49095240  0.63559847  1
  O  O170  1  0.74396025  0.99741892  0.13268962  1
  O  O171  1  0.74993666  0.98931409  0.64742003  1
  O  O172  1  0.00500910  0.37764901  0.26621365  1
  O  O173  1  0.01433776  0.39561281  0.74197957  1
  O  O174  1  -0.00485560  0.87664733  0.26765843  1
  O  O175  1  0.00764259  0.88227834  0.76825876  1
  O  O176  1  0.51145714  0.37240290  0.24234301  1
  O  O177  1  0.51625007  0.38499544  0.74417526  1
  O  O178  1  0.49977583  0.86244648  0.20742042  1
  O  O179  1  0.50045621  0.87016255  0.76119989  1
  O  O180  1  0.49863878  0.13499026  0.24724677  1
  O  O181  1  0.47769959  0.11634357  0.74528810  1
  O  O182  1  0.49271053  0.62077819  0.22792865  1
  O  O183  1  0.50350597  0.64121821  0.73943965  1
  O  O184  1  0.98430440  0.14355053  0.26712616  1
  O  O185  1  0.98246549  0.11803365  0.73147305  1
  O  O186  1  0.97708338  0.61165761  0.23759656  1
  O  O187  1  0.98456116  0.61316880  0.75250976  1
  O  O188  1  0.39188269  0.25063348  0.00744451  1
  O  O189  1  0.37949509  0.26799195  0.50224607  1
  O  O190  1  0.35490314  0.75273587  -0.03201981  1
  O  O191  1  0.36775082  0.75135328  0.50879225  1
  O  O192  1  0.88487191  0.24043678  0.02409013  1
  O  O193  1  0.85364496  0.24151444  0.50604763  1
  O  O194  1  0.87123480  0.75967766  0.01670395  1
  O  O195  1  0.85485627  0.73270968  0.48442279  1
  O  O196  1  0.11989788  0.25265610  0.49550584  1
  O  O197  1  0.18678112  0.17462596  0.98411181  1
  O  O198  1  0.13796368  0.74230882  0.49627615  1
  O  O199  1  0.14225440  0.78157636  1.02519621  1
  O  O200  1  0.62376882  0.24603251  0.48783902  1
  O  O201  1  0.62357646  0.24005771  0.99388458  1
  O  O202  1  0.61784343  0.74204639  0.47906006  1
  O  O203  1  0.61957418  0.73265908  1.00219286  1
  O  O204  1  0.48612119  0.24961643  0.13849718  1
  O  O205  1  0.48131753  0.25541718  0.61915217  1
  O  O206  1  0.48055340  0.72970483  0.10153330  1
  O  O207  1  0.49496657  0.75340242  0.63518039  1
  O  O208  1  0.97549732  0.26446370  0.15314715  1
  O  O209  1  0.97222013  0.25505656  0.61263399  1
  O  O210  1  0.98249503  0.74223859  0.13432142  1
  O  O211  1  1.00170097  0.74453439  0.62858651  1
  O  O212  1  -0.00014852  0.26699430  0.37998396  1
  O  O213  1  0.03752323  0.26646454  0.94216601  1
  O  O214  1  0.02459770  0.73550769  0.35547627  1
  O  O215  1  0.09864955  0.67902111  0.88476351  1
  O  O216  1  0.51159658  0.24954312  0.36177765  1
  O  O217  1  0.52081046  0.24503444  0.87170478  1
  O  O218  1  0.49772809  0.75163314  0.36999493  1
  O  O219  1  0.49987431  0.76493116  0.86335085  1
  O  O220  1  0.22644872  0.11978292  0.48704599  1
  O  O221  1  0.19712927  0.16837921  0.91271815  1
  O  O222  1  0.25894888  0.63401956  0.48720197  1
  O  O223  1  0.24325951  0.63458888  1.03493708  1
  O  O224  1  0.73788368  0.13508546  0.49913220  1
  O  O225  1  0.74502793  0.12351316  0.98694788  1
  O  O226  1  0.73266930  0.62818804  0.49926699  1
  O  O227  1  0.73663011  0.61936645  0.98978402  1
  O  O228  1  0.25645884  0.32440469  -0.05594904  1
  O  O229  1  0.25662363  0.38223535  0.50957131  1
  O  O230  1  0.20569674  0.81893705  0.02508934  1
  O  O231  1  0.25448189  0.86540309  0.50823577  1
  O  O232  1  0.74561398  0.37694142  0.01659465  1
  O  O233  1  0.73596726  0.37927791  0.51199254  1
  O  O234  1  0.76379531  0.88362632  0.01482981  1
  O  O235  1  0.74543409  0.86542471  0.52542278  1
  O  O236  1  0.13319923  0.48943395  0.26126263  1
  O  O237  1  0.12755607  0.49682978  0.72927934  1
  O  O238  1  0.13961570  0.99485187  0.28078084  1
  O  O239  1  0.13266388  0.98104401  0.74801921  1
  O  O240  1  0.62508200  0.49117222  0.24107814  1
  O  O241  1  0.63768257  0.49001223  0.75602644  1
  O  O242  1  0.62916398  0.99947773  0.23925168  1
  O  O243  1  0.63725131  0.99710564  0.75994113  1
  O  O244  1  0.36172456  0.01399630  0.27346757  1
  O  O245  1  0.36504476  0.00922847  0.76416468  1
  O  O246  1  0.36289592  0.49782634  0.26085519  1
  O  O247  1  0.38403022  0.51955581  0.75268677  1
  O  O248  1  0.86415377  0.01037796  0.25559554  1
  O  O249  1  0.86512586  0.01772992  0.75656335  1
  O  O250  1  0.86312664  0.50568138  0.25785505  1
  O  O251  1  0.86147957  0.50592391  0.74833865  1
  O  O252  1  0.11096107  0.37260363  0.38238723  1
  O  O253  1  0.13096834  0.36347503  0.84187343  1
  O  O254  1  0.11664217  0.86153612  0.37649058  1
  O  O255  1  0.13712872  0.87139141  0.86915348  1
  O  O256  1  0.62147095  0.36937944  0.35908757  1
  O  O257  1  0.63181846  0.36558972  0.86655797  1
  O  O258  1  0.62095895  0.86046906  0.36840268  1
  O  O259  1  0.61968881  0.87519067  0.88271464  1
  O  O260  1  0.35038780  0.14512831  0.12390818  1
  O  O261  1  0.36918360  0.14036520  0.61689669  1
  O  O262  1  0.38632955  0.60249090  0.12765138  1
  O  O263  1  0.38800957  0.63572912  0.63257672  1
  O  O264  1  0.86374079  0.14229786  0.14469053  1
  O  O265  1  0.85822115  0.13305553  0.63070011  1
  O  O266  1  0.87142514  0.63650745  0.12709380  1
  O  O267  1  0.88423887  0.62457286  0.63921036  1
  O  O268  1  0.25464594  0.25984206  0.11152985  1
  O  O269  1  0.27064166  0.27295509  0.61917786  1
  O  O270  1  0.26069239  0.69157723  0.08528027  1
  O  O271  1  0.25726663  0.75505237  0.61757158  1
  O  O272  1  0.75777563  0.26183724  0.13286972  1
  O  O273  1  0.74768147  0.26128979  0.60857230  1
  O  O274  1  0.75312130  0.76381783  0.12837272  1
  O  O275  1  0.75329557  0.77461403  0.62282168  1
  O  O276  1  0.23424941  0.24582713  0.37910388  1
  O  O277  1  0.27807457  0.27177260  0.89276118  1
  O  O278  1  0.24419362  0.74351825  0.37961468  1
  O  O279  1  0.29950969  0.75850741  0.91483515  1
  O  O280  1  0.73409016  0.26175286  0.39076225  1
  O  O281  1  0.73882859  0.23770702  0.87200738  1
  O  O282  1  0.74176951  0.74702672  0.37105750  1
  O  O283  1  0.74687212  0.73392399  0.87327177  1
  O  O284  1  0.01522090  0.09196007  -0.09904075  1
  O  O285  1  0.01300788  0.12584043  0.50063871  1
  O  O286  1  0.00810857  0.63196061  0.02208020  1
  O  O287  1  -0.00518197  0.63814897  0.51583538  1
  O  O288  1  0.52311900  0.11562790  -0.01504690  1
  O  O289  1  0.49845181  0.11433157  0.49835430  1
  O  O290  1  0.50884274  0.61267234  0.00271614  1
  O  O291  1  0.50432793  0.63389343  0.51434762  1
  O  O292  1  0.48944323  0.38468205  0.49953756  1
  O  O293  1  0.50773470  0.38455221  0.99659181  1
  O  O294  1  0.49489147  0.89438238  0.50531981  1
  O  O295  1  0.50222691  0.89011421  0.98690369  1
  O  O296  1  0.99770841  0.37979932  0.49585522  1
  O  O297  1  1.06388302  0.24619962  1.00837984  1
  O  O298  1  0.99409230  0.84478080  0.47073717  1
  O  O299  1  0.98711189  0.87461034  1.01907683  1
  O  O300  1  0.48547698  0.50423785  0.36475030  1
  O  O301  1  0.49881995  0.50283491  0.88268262  1
  O  O302  1  0.48638163  1.00813031  0.37641985  1
  O  O303  1  0.50907850  0.99202147  0.87963891  1
  O  O304  1  0.98886870  0.49415683  0.37782310  1
  O  O305  1  1.00986721  0.49588863  0.91132212  1
  O  O306  1  0.98225915  0.99069111  0.38415653  1
  O  O307  1  1.02410746  1.00810350  0.88250653  1
  O  O308  1  -0.00469810  0.01696870  0.12821884  1
  O  O309  1  -0.04081989  -0.06823044  0.61021157  1
  O  O310  1  0.00082995  0.50791109  0.11750701  1
  O  O311  1  0.00592045  0.50879102  0.62061870  1
  O  O312  1  0.51746956  0.00436377  0.10107285  1
  O  O313  1  0.49514312  0.00509701  0.61821553  1
  O  O314  1  0.50537845  0.49945088  0.11062434  1
  O  O315  1  0.50356398  0.52177273  0.63035148  1
  O  O316  1  0.23313207  0.38165713  0.26636509  1
  O  O317  1  0.23463599  0.37629060  0.72672154  1
  O  O318  1  0.25916507  0.88990176  0.25412332  1
  O  O319  1  0.25181209  0.87190792  0.73572593  1
  O  O320  1  0.73540219  0.38235664  0.24175739  1
  O  O321  1  0.74745511  0.38816168  0.74754701  1
  O  O322  1  0.74834189  0.88823313  0.23478465  1
  O  O323  1  0.75605330  0.88896110  0.77138297  1
  O  O324  1  0.23772701  0.12285641  0.27840665  1
  O  O325  1  0.26592151  0.12659904  0.73716095  1
  O  O326  1  0.25573451  0.60725934  0.25614357  1
  O  O327  1  0.26703889  0.63711468  0.74557115  1
  O  O328  1  0.75440396  0.11329166  0.25306541  1
  O  O329  1  0.75359591  0.11908037  0.75927148  1
  O  O330  1  0.75114278  0.60814886  0.23611697  1
  O  O331  1  0.75112882  0.61670109  0.75705878  1
  O  O332  1  0.35719952  0.12760200  0.38842630  1
  O  O333  1  0.37327255  0.12231527  0.86318406  1
  O  O334  1  0.36921507  0.61438320  0.36499806  1
  O  O335  1  0.38497488  0.62121414  0.85800396  1
  O  O336  1  0.87289296  0.10790316  0.37372312  1
  O  O337  1  0.86748321  0.14541474  0.85848885  1
  O  O338  1  0.85633387  0.62004688  0.36542143  1
  O  O339  1  0.85959241  0.62197401  0.86545609  1
  O  O340  1  0.11558519  0.36724061  0.15372306  1
  O  O341  1  0.13328210  0.39437009  0.61699796  1
  O  O342  1  0.11757949  0.91539540  0.13824431  1
  O  O343  1  0.13998184  0.87460707  0.62203368  1
  O  O344  1  0.63065938  0.37729672  0.13154282  1
  O  O345  1  0.64110163  0.37269160  0.64407026  1
  O  O346  1  0.64087602  0.88795469  0.11867902  1
  O  O347  1  0.70684527  0.82900452  0.58428709  1
  O  O348  1  0.10812065  0.26499803  0.27482591  1
  O  O349  1  0.11422029  0.26776804  0.70801783  1
  O  O350  1  0.14588883  0.75857749  0.25159147  1
  O  O351  1  0.12396108  0.77195511  0.74625043  1
  O  O352  1  0.61674024  0.25898097  0.25221836  1
  O  O353  1  0.63172659  0.26596029  0.75947832  1
  O  O354  1  0.62241255  0.74590140  0.26321183  1
  O  O355  1  0.61494095  0.75530755  0.74366894  1
  O  O356  1  0.38647109  0.25227105  0.25873734  1
  O  O357  1  0.37556039  0.24064770  0.73594598  1
  O  O358  1  0.35887160  0.72693295  0.24544849  1
  O  O359  1  0.38657880  0.74328504  0.74423003  1
  O  O360  1  0.87192228  0.24348417  0.26442606  1
  O  O361  1  0.86116596  0.23744970  0.72965431  1
  O  O362  1  0.85987681  0.73673639  0.24317405  1
  O  O363  1  0.87261285  0.73391304  0.75528851  1
  O  O364  1  0.37610279  0.49774180  0.48492612  1
  O  O365  1  0.38795907  0.49903737  0.98184969  1
  O  O366  1  0.38135826  1.00161592  0.48910299  1
  O  O367  1  0.39618178  1.02251311  0.98230373  1
  O  O368  1  0.85969056  0.51367848  0.48554564  1
  O  O369  1  0.87521540  0.50445462  0.99879506  1
  O  O370  1  0.85347660  1.00133181  0.49167866  1
  O  O371  1  0.87881653  0.99247773  1.00969439  1
  O  O372  1  0.12376967  0.02600711  0.01652699  1
  O  O373  1  0.11472122  0.00277343  0.49556395  1
  O  O374  1  0.16630052  0.44297980  0.01640383  1
  O  O375  1  0.13191444  0.51557519  0.51673227  1
  O  O376  1  0.62669542  0.01219363  0.00150563  1
  O  O377  1  0.61205392  -0.00122753  0.50074168  1
  O  O378  1  0.61557280  0.50169891  0.00547778  1
  O  O379  1  0.61795892  0.52138458  0.48836124  1
  O  O380  1  0.36824200  0.35754326  0.12525106  1
  O  O381  1  0.37077833  0.38391949  0.61176501  1
  O  O382  1  0.37812243  0.92011867  0.11221411  1
  O  O383  1  0.36953359  0.86354692  0.62970707  1
  O  O384  1  0.86003981  0.36840620  0.13407694  1
  O  O385  1  0.85415250  0.36238867  0.62812212  1
  O  O386  1  0.86762384  0.86723903  0.12478430  1
  O  O387  1  0.89642526  0.89873308  0.62701316  1
  O  O388  1  0.12088200  0.14379956  0.38627395  1
  O  O389  1  0.06411990  0.13574820  0.86392271  1
  O  O390  1  0.13645251  0.63267570  0.36862690  1
  O  O391  1  0.16959542  0.66629514  0.89402049  1
  O  O392  1  0.62901903  0.14092265  0.36478980  1
  O  O393  1  0.63655973  0.13617597  0.87880050  1
  O  O394  1  0.61318319  0.63613444  0.38221208  1
  O  O395  1  0.63382328  0.62009115  0.88455591  1
