# generated using pymatgen
data_V35Zn35O128
_symmetry_space_group_name_H-M   'P 1'
_cell_length_a   16.93383876
_cell_length_b   16.90823069
_cell_length_c   16.97786488
_cell_angle_alpha   89.93806628
_cell_angle_beta   90.29566427
_cell_angle_gamma   90.09554397
_symmetry_Int_Tables_number   1
_chemical_formula_structural   V35Zn35O128
_chemical_formula_sum   'V70 Zn70 O256'
_cell_volume   4861.04925647
_cell_formula_units_Z   2
loop_
 _symmetry_equiv_pos_site_id
 _symmetry_equiv_pos_as_xyz
  1  'x, y, z'
loop_
 _atom_site_type_symbol
 _atom_site_label
 _atom_site_symmetry_multiplicity
 _atom_site_fract_x
 _atom_site_fract_y
 _atom_site_fract_z
 _atom_site_occupancy
  V  V0  1  0.00047555  0.88009679  0.85929673  1
  V  V1  1  0.01096686  0.12902662  0.12413205  1
  V  V2  1  0.38262956  0.49017630  0.37334548  1
  V  V3  1  0.74918762  0.62161868  0.87942230  1
  V  V4  1  0.88656513  0.49972034  0.87100345  1
  V  V5  1  0.36856705  0.50664523  0.87688125  1
  V  V6  1  0.00898325  -0.00640197  0.00976069  1
  V  V7  1  0.63820913  0.10275493  0.51052414  1
  V  V8  1  0.24733522  0.37903322  0.12195906  1
  V  V9  1  0.87723818  0.24510858  0.63305815  1
  V  V10  1  0.74755065  0.38118067  0.62557289  1
  V  V11  1  0.61425279  0.50864973  0.63219434  1
  V  V12  1  0.87510411  0.83943738  0.50576899  1
  V  V13  1  0.87946851  0.38757519  0.49978475  1
  V  V14  1  0.10660190  0.09792080  0.49963646  1
  V  V15  1  0.74826331  0.25866311  0.00116251  1
  V  V16  1  0.61976135  0.73990177  0.88269003  1
  V  V17  1  0.62637957  0.12856260  -0.00095453  1
  V  V18  1  0.63055664  0.88917533  0.74494213  1
  V  V19  1  0.74968726  0.24669267  0.49738791  1
  V  V20  1  0.11529954  0.24361516  0.37399711  1
  V  V21  1  0.86960205  0.00027625  0.88004055  1
  V  V22  1  0.37242163  0.88162791  0.00604227  1
  V  V23  1  0.38080531  0.64437905  0.24240891  1
  V  V24  1  0.12264788  0.59815027  0.50081870  1
  V  V25  1  0.23021536  0.00130806  0.24579201  1
  V  V26  1  0.24879535  0.24181168  0.51241168  1
  V  V27  1  0.50564863  0.51855261  0.48972398  1
  V  V28  1  0.49894063  0.26375408  0.26299323  1
  V  V29  1  0.35535420  0.75019295  0.62080275  1
  V  V30  1  0.86506903  0.62809330  0.24990744  1
  V  V31  1  0.39940651  0.36860568  0.51878728  1
  V  V32  1  0.49861175  0.88466435  0.86982435  1
  V  V33  1  0.12613799  0.63409498  -0.01295280  1
  V  V34  1  0.49905204  0.73927186  0.74057126  1
  V  V35  1  0.51156648  0.37463444  0.85182074  1
  V  V36  1  0.35097289  0.62503923  0.75419405  1
  V  V37  1  0.86627569  0.11670769  0.24858858  1
  V  V38  1  0.50874068  0.12373104  0.13976951  1
  V  V39  1  -0.02138729  0.62496428  0.65863895  1
  V  V40  1  0.75037446  0.49959233  0.75113830  1
  V  V41  1  0.47772096  -0.00420668  0.53436431  1
  V  V42  1  0.62872075  0.50212786  0.12663769  1
  V  V43  1  0.88090019  0.37651958  -0.00200721  1
  V  V44  1  0.12470057  0.37333537  0.25273218  1
  V  V45  1  -0.00160769  0.11371749  0.62952268  1
  V  V46  1  0.38714643  0.38248411  0.00290942  1
  V  V47  1  0.87506176  0.00587815  0.39491130  1
  V  V48  1  0.24962980  0.49802862  0.25246635  1
  V  V49  1  0.25695286  0.11409889  0.86825457  1
  V  V50  1  0.25258007  0.74970544  -0.00626079  1
  V  V51  1  0.75053610  0.89349388  0.11785792  1
  V  V52  1  0.75662440  0.13253268  0.86970997  1
  V  V53  1  0.39348591  0.00213651  0.35405930  1
  V  V54  1  0.87150095  0.75121392  0.11604800  1
  V  V55  1  0.12047292  0.25141565  0.87163752  1
  V  V56  1  -0.00060723  0.85820303  0.36527366  1
  V  V57  1  0.01345032  0.62859781  0.13357101  1
  V  V58  1  0.64900518  0.64122540  0.49614821  1
  V  V59  1  0.24434288  0.23769388  0.00365327  1
  V  V60  1  0.00622622  0.38758194  0.37815495  1
  V  V61  1  0.85950665  0.50132687  0.36456633  1
  V  V62  1  0.62177999  0.25985960  0.38044985  1
  V  V63  1  0.37818735  0.24741602  0.13349257  1
  V  V64  1  0.50238100  0.00721670  -0.00141944  1
  V  V65  1  0.88400302  0.26014016  0.13591033  1
  V  V66  1  0.23813734  0.76135116  0.50103486  1
  V  V67  1  0.01684322  0.50005204  0.00417943  1
  V  V68  1  0.24955811  0.63161318  0.37798886  1
  V  V69  1  0.62919675  0.90405054  0.24674575  1
  Zn  Zn70  1  0.00922206  0.25565221  0.74826905  1
  Zn  Zn71  1  0.75161759  0.75209442  -0.00381929  1
  Zn  Zn72  1  0.50814567  0.87322171  0.38462657  1
  Zn  Zn73  1  0.21859275  0.00100553  0.72365484  1
  Zn  Zn74  1  0.26752964  0.12682132  0.36632109  1
  Zn  Zn75  1  0.26790280  0.87021713  0.14509529  1
  Zn  Zn76  1  0.19307070  0.18810509  0.19407938  1
  Zn  Zn77  1  0.24047757  0.23642964  0.72054146  1
  Zn  Zn78  1  0.21320338  0.68390531  0.17299280  1
  Zn  Zn79  1  0.13975016  0.49484325  0.64747610  1
  Zn  Zn80  1  0.70867364  0.23521417  0.20660832  1
  Zn  Zn81  1  0.70985655  0.05712052  0.69333115  1
  Zn  Zn82  1  0.69704926  0.68537571  0.18605277  1
  Zn  Zn83  1  0.68350863  0.68408758  0.69673425  1
  Zn  Zn84  1  0.31032658  0.30751321  0.32011435  1
  Zn  Zn85  1  0.36969124  0.29563434  0.81274106  1
  Zn  Zn86  1  0.31865515  0.82400078  0.32223768  1
  Zn  Zn87  1  0.30895268  0.82341387  0.81262913  1
  Zn  Zn88  1  0.81132643  0.32304545  0.31568810  1
  Zn  Zn89  1  0.81169212  0.31573348  0.81303152  1
  Zn  Zn90  1  0.83912017  0.84008926  0.28769123  1
  Zn  Zn91  1  0.80655208  0.82272781  0.82588840  1
  Zn  Zn92  1  0.20876168  0.42321234  0.44510282  1
  Zn  Zn93  1  0.19850397  0.41633067  0.82680214  1
  Zn  Zn94  1  0.18451638  0.93664624  0.41226728  1
  Zn  Zn95  1  0.17911663  0.93811993  0.93619257  1
  Zn  Zn96  1  0.68291830  0.44184595  0.44265791  1
  Zn  Zn97  1  0.68596698  0.43628155  0.93557596  1
  Zn  Zn98  1  0.71036848  0.91530135  0.41417774  1
  Zn  Zn99  1  0.68634588  0.94055814  0.93823277  1
  Zn  Zn100  1  0.31759969  0.05795363  0.07481292  1
  Zn  Zn101  1  0.30102572  0.07533369  0.54727860  1
  Zn  Zn102  1  0.31070792  0.56250899  0.06142921  1
  Zn  Zn103  1  0.31048950  0.55973334  0.56733785  1
  Zn  Zn104  1  0.82274068  0.07434928  0.05735752  1
  Zn  Zn105  1  0.77244864  -0.02689494  0.55381629  1
  Zn  Zn106  1  0.82324124  0.56836715  0.05585703  1
  Zn  Zn107  1  0.81585385  0.56836830  0.56084446  1
  Zn  Zn108  1  0.43719180  0.43908175  0.19325729  1
  Zn  Zn109  1  0.31369578  0.42775740  0.69155999  1
  Zn  Zn110  1  0.44964075  0.93525362  0.18543800  1
  Zn  Zn111  1  0.36839939  0.94898751  0.67565732  1
  Zn  Zn112  1  0.94309281  0.44172871  0.18668804  1
  Zn  Zn113  1  0.94304848  0.44565255  0.67956512  1
  Zn  Zn114  1  0.93959510  0.94124173  0.18188240  1
  Zn  Zn115  1  0.89784487  0.94810970  0.68404457  1
  Zn  Zn116  1  0.04364554  0.05931673  0.30638345  1
  Zn  Zn117  1  0.06860471  0.07242649  0.81838123  1
  Zn  Zn118  1  0.06543132  0.56354766  0.31267947  1
  Zn  Zn119  1  0.07644500  0.56111064  0.80652463  1
  Zn  Zn120  1  0.57927213  0.07344465  0.32502610  1
  Zn  Zn121  1  0.56704662  0.07145899  0.81572195  1
  Zn  Zn122  1  0.55337222  0.68659682  0.32890543  1
  Zn  Zn123  1  0.55347825  0.55427190  0.81269827  1
  Zn  Zn124  1  0.44379206  0.17371663  0.45509431  1
  Zn  Zn125  1  0.43450863  0.19309790  0.93936872  1
  Zn  Zn126  1  0.42734534  0.69075841  0.44006904  1
  Zn  Zn127  1  0.42903330  0.69880201  0.93447801  1
  Zn  Zn128  1  0.93428269  0.19068700  0.43577994  1
  Zn  Zn129  1  0.94272819  0.18698526  0.94202281  1
  Zn  Zn130  1  0.94519117  0.67911815  0.43165062  1
  Zn  Zn131  1  0.94503782  0.68443520  0.84800889  1
  Zn  Zn132  1  0.06574882  0.31536907  0.06065780  1
  Zn  Zn133  1  0.06091869  0.30963035  0.55847300  1
  Zn  Zn134  1  0.01303026  0.77799551  0.00670346  1
  Zn  Zn135  1  0.04988970  0.79153060  0.54639485  1
  Zn  Zn136  1  0.56458456  0.30702378  0.06837572  1
  Zn  Zn137  1  0.56055979  0.31676882  0.56671785  1
  Zn  Zn138  1  0.57263114  0.82565366  0.05895843  1
  Zn  Zn139  1  0.56419666  0.81710658  0.56428881  1
  O  O140  1  0.10893370  0.13860092  0.13521585  1
  O  O141  1  0.10652012  0.10848417  0.60448648  1
  O  O142  1  0.11610917  0.63147027  0.12645389  1
  O  O143  1  0.13655497  0.60741957  0.59954579  1
  O  O144  1  0.60931340  0.13828888  0.11086708  1
  O  O145  1  0.64746358  0.11355712  0.60998525  1
  O  O146  1  0.62700435  0.60616868  0.13007477  1
  O  O147  1  0.64084596  0.61384233  0.61575428  1
  O  O148  1  0.38094557  0.38811780  0.37500859  1
  O  O149  1  0.38271567  0.38615252  0.89472226  1
  O  O150  1  0.38601897  0.89708928  0.37676449  1
  O  O151  1  0.39647930  0.86360680  0.89275346  1
  O  O152  1  0.88420839  0.38560076  0.37780872  1
  O  O153  1  0.87510460  0.38839335  0.88542084  1
  O  O154  1  0.87731949  0.88075364  0.39268188  1
  O  O155  1  0.87472301  0.89273758  0.88286634  1
  O  O156  1  0.26238126  0.00403007  0.35894805  1
  O  O157  1  0.24630793  0.01641665  0.89164579  1
  O  O158  1  0.26614678  0.50183112  0.36957329  1
  O  O159  1  0.27048716  0.49317345  0.88521622  1
  O  O160  1  0.77898638  -0.00650713  0.36290516  1
  O  O161  1  0.75876590  0.01675474  0.88792012  1
  O  O162  1  0.76116302  0.48945926  0.36990077  1
  O  O163  1  0.75575719  0.50218782  0.87012961  1
  O  O164  1  0.25776096  0.48492938  0.13653999  1
  O  O165  1  0.24980170  0.47798677  0.61410721  1
  O  O166  1  0.25454123  0.99087464  0.14075397  1
  O  O167  1  0.28248899  1.01217905  0.63321839  1
  O  O168  1  0.73290956  0.50209331  0.11603368  1
  O  O169  1  0.75255116  0.49567229  0.63444893  1
  O  O170  1  0.75938624  0.99152479  0.11110993  1
  O  O171  1  0.78928501  0.98891358  0.65942805  1
  O  O172  1  0.01866710  0.38360688  0.25556637  1
  O  O173  1  0.03011368  0.37038090  0.70959031  1
  O  O174  1  -0.04274600  0.86902150  0.26465138  1
  O  O175  1  -0.01814191  0.88012034  0.76279823  1
  O  O176  1  0.50190255  0.36250610  0.25305933  1
  O  O177  1  0.50488235  0.37721137  0.75538574  1
  O  O178  1  0.52958251  0.87271721  0.23419746  1
  O  O179  1  0.50399611  0.86542304  0.76717444  1
  O  O180  1  0.51083335  0.12969783  0.24005170  1
  O  O181  1  0.50778075  0.14303342  0.74135520  1
  O  O182  1  0.48161384  0.64011337  0.25300511  1
  O  O183  1  0.49657989  0.63877944  0.75563995  1
  O  O184  1  0.98393867  0.12644352  0.23250538  1
  O  O185  1  1.01267280  0.13660259  0.73073518  1
  O  O186  1  0.99730220  0.61680662  0.23594283  1
  O  O187  1  0.99948849  0.63578594  0.76304508  1
  O  O188  1  0.36679476  0.26426333  0.01486959  1
  O  O189  1  0.44862593  0.27823114  0.51102039  1
  O  O190  1  0.36020864  0.75868250  0.00247507  1
  O  O191  1  0.35492948  0.73605371  0.51493502  1
  O  O192  1  0.87377163  0.26347880  0.00208480  1
  O  O193  1  0.86481923  0.26405146  0.50032768  1
  O  O194  1  0.87400427  0.74448304  0.01609387  1
  O  O195  1  0.87358798  0.73906445  0.49763359  1
  O  O196  1  0.13296979  0.26054314  0.48245456  1
  O  O197  1  0.14181886  0.24975673  1.00760289  1
  O  O198  1  0.14018871  0.72885266  0.49865705  1
  O  O199  1  0.12632301  0.73839507  0.99773530  1
  O  O200  1  0.63746058  0.25209102  0.50305461  1
  O  O201  1  0.64204948  0.25041373  1.00735202  1
  O  O202  1  0.62935460  0.73858640  0.51767803  1
  O  O203  1  0.62496636  0.75196178  0.98369542  1
  O  O204  1  0.49845132  0.24608587  0.14200490  1
  O  O205  1  0.51286118  0.23309225  0.64671502  1
  O  O206  1  0.50384873  0.72512002  0.09249184  1
  O  O207  1  0.49660791  0.74833959  0.64049482  1
  O  O208  1  0.99020999  0.24508118  0.11597713  1
  O  O209  1  0.98443855  0.24541559  0.61637794  1
  O  O210  1  0.98756698  0.73410617  0.11712648  1
  O  O211  1  1.00794122  0.70965649  0.61427507  1
  O  O212  1  0.01063347  0.26740128  0.37744369  1
  O  O213  1  0.01416451  0.24219188  0.87134201  1
  O  O214  1  -0.00432646  0.75597320  0.36375849  1
  O  O215  1  -0.01929815  0.77701394  0.89341559  1
  O  O216  1  0.50562194  0.24348445  0.36785856  1
  O  O217  1  0.47428417  0.27255654  0.86790396  1
  O  O218  1  0.49204675  0.76102516  0.38483927  1
  O  O219  1  0.50982957  0.75376152  0.87206223  1
  O  O220  1  0.21177431  0.12692968  0.48586968  1
  O  O221  1  0.25734379  0.13861259  1.01863536  1
  O  O222  1  0.24831577  0.61899513  0.48457952  1
  O  O223  1  0.23883458  0.63839054  1.00828408  1
  O  O224  1  0.75020308  0.14698541  0.50067244  1
  O  O225  1  0.74375577  0.13934621  0.99722019  1
  O  O226  1  0.74882103  0.62740198  0.49264175  1
  O  O227  1  0.75271424  0.62518786  0.98387957  1
  O  O228  1  0.25937570  0.36749827  0.02074978  1
  O  O229  1  0.28762821  0.34456140  0.49032792  1
  O  O230  1  0.26694130  0.87884151  -0.00202886  1
  O  O231  1  0.23426051  0.85863009  0.48459702  1
  O  O232  1  0.76114921  0.36535497  -0.00627911  1
  O  O233  1  0.75937011  0.37778957  0.50776417  1
  O  O234  1  0.74036788  0.86955815  0.01299365  1
  O  O235  1  0.77000804  0.87041020  0.49991093  1
  O  O236  1  0.14240936  0.48939021  0.25821619  1
  O  O237  1  0.14368733  0.48942779  0.76179461  1
  O  O238  1  0.13078640  1.00367817  0.25350766  1
  O  O239  1  0.11670754  0.99149484  0.75953477  1
  O  O240  1  0.63950679  0.49516836  0.22910410  1
  O  O241  1  0.63280374  0.50669437  0.73846864  1
  O  O242  1  0.62872970  1.00396330  0.24680423  1
  O  O243  1  0.62347362  0.99522765  0.75145798  1
  O  O244  1  0.38365327  0.00141255  0.25250223  1
  O  O245  1  0.30160697  -0.07781754  0.76243543  1
  O  O246  1  0.37063668  0.50415498  0.26079336  1
  O  O247  1  0.36616173  0.51456331  0.76418634  1
  O  O248  1  0.86479217  0.01816032  0.23333269  1
  O  O249  1  0.88499421  0.01358014  0.78237779  1
  O  O250  1  0.87778868  0.50263079  0.25890449  1
  O  O251  1  0.87280820  0.48983805  0.76678534  1
  O  O252  1  0.12419050  0.36949517  0.36988459  1
  O  O253  1  0.13366885  0.35092582  0.89265493  1
  O  O254  1  0.09818214  0.87909677  0.36327680  1
  O  O255  1  0.10078550  0.87884518  0.87777274  1
  O  O256  1  0.61775218  0.35958140  0.39185256  1
  O  O257  1  0.61023551  0.37712903  0.87878018  1
  O  O258  1  0.62569899  0.88146169  0.35112003  1
  O  O259  1  0.61335748  0.86688850  0.87278556  1
  O  O260  1  0.39523365  0.14025730  0.11867209  1
  O  O261  1  0.33640921  0.18694657  0.52232747  1
  O  O262  1  0.36021199  0.62217521  0.14448108  1
  O  O263  1  0.36121280  0.63345275  0.64533184  1
  O  O264  1  0.88136146  0.14396447  0.13139811  1
  O  O265  1  0.87838616  0.14530166  0.62719337  1
  O  O266  1  0.88242716  0.62847159  0.13394675  1
  O  O267  1  0.87954217  0.61422548  0.64137648  1
  O  O268  1  0.26149016  0.25913941  0.12906177  1
  O  O269  1  0.21876514  0.25147190  0.60613365  1
  O  O270  1  0.23690362  0.76966466  0.10374724  1
  O  O271  1  0.25213898  0.75613262  0.61352015  1
  O  O272  1  0.77112149  0.25046171  0.10666202  1
  O  O273  1  0.76532415  0.26778207  0.61341331  1
  O  O274  1  0.76106315  0.74383970  0.11677747  1
  O  O275  1  0.78826530  0.74966313  0.67220426  1
  O  O276  1  0.23893101  0.24062551  0.38104653  1
  O  O277  1  0.24861347  0.23862900  0.89887947  1
  O  O278  1  0.25970840  0.73695253  0.38685858  1
  O  O279  1  0.24911010  0.76619531  0.89359082  1
  O  O280  1  0.73935516  0.26242124  0.39035307  1
  O  O281  1  0.75874155  0.24420774  0.88910931  1
  O  O282  1  0.71054980  0.74705807  0.33145371  1
  O  O283  1  0.73713558  0.74116820  0.87318756  1
  O  O284  1  -0.00094389  0.12094362  0.01727500  1
  O  O285  1  0.00282175  0.13057266  0.50648335  1
  O  O286  1  0.01551549  0.61880384  0.00979788  1
  O  O287  1  0.02414238  0.61363340  0.48035270  1
  O  O288  1  0.50778367  0.12350354  -0.00362652  1
  O  O289  1  0.52474717  0.09206632  0.50894417  1
  O  O290  1  0.49387228  0.67062318  0.04142189  1
  O  O291  1  0.48905621  0.61651203  0.50872861  1
  O  O292  1  0.50308518  0.40983172  0.50985106  1
  O  O293  1  0.48648023  0.37020209  1.01302296  1
  O  O294  1  0.52050876  0.90447113  0.50402843  1
  O  O295  1  0.49913413  0.88702239  0.99432127  1
  O  O296  1  0.98864810  0.37504250  0.49066313  1
  O  O297  1  0.99815275  0.39274657  1.00625528  1
  O  O298  1  0.98602666  0.85904285  0.48075907  1
  O  O299  1  0.99775432  0.89212419  1.01533301  1
  O  O300  1  0.48828292  0.51305256  0.38477495  1
  O  O301  1  0.48605228  0.48503132  0.87227888  1
  O  O302  1  0.49794198  1.00026006  0.36760551  1
  O  O303  1  0.50251502  0.99102358  0.87895478  1
  O  O304  1  0.99574193  0.48983178  0.37007817  1
  O  O305  1  0.99040103  0.50928034  0.88869498  1
  O  O306  1  0.97816600  0.98765485  0.36552609  1
  O  O307  1  0.99252108  0.99433413  0.88991136  1
  O  O308  1  -0.00339051  0.01516349  0.11900708  1
  O  O309  1  -0.02367766  0.01839391  0.63047324  1
  O  O310  1  -0.00501072  0.51530144  0.11105456  1
  O  O311  1  0.01433750  0.52675971  0.64039769  1
  O  O312  1  0.49722723  0.01972414  0.11483531  1
  O  O313  1  0.46649548  -0.00696472  0.63314032  1
  O  O314  1  0.52425724  0.50071134  0.13485143  1
  O  O315  1  0.51701684  0.51181625  0.62336962  1
  O  O316  1  0.24822720  0.37941206  0.24644954  1
  O  O317  1  0.27579205  0.35181003  0.76633513  1
  O  O318  1  0.25115025  0.89122196  0.25691326  1
  O  O319  1  0.16135396  0.83187674  0.74171742  1
  O  O320  1  0.73870493  0.34261781  0.23570476  1
  O  O321  1  0.75256750  0.38722857  0.74036987  1
  O  O322  1  0.74234434  0.87692901  0.23182639  1
  O  O323  1  0.72748973  0.87681045  0.76570554  1
  O  O324  1  0.25193494  0.10914509  0.24914468  1
  O  O325  1  0.24695685  0.11823476  0.76631680  1
  O  O326  1  0.25281864  0.61622204  0.25992034  1
  O  O327  1  0.25798593  0.63790496  0.76760977  1
  O  O328  1  0.76941734  0.14592172  0.24465215  1
  O  O329  1  0.74082535  0.13569035  0.77201120  1
  O  O330  1  0.76699232  0.61519199  0.24543778  1
  O  O331  1  0.74704556  0.60930006  0.76363440  1
  O  O332  1  0.38298541  0.10849196  0.38040262  1
  O  O333  1  0.35746470  0.13038439  0.88493860  1
  O  O334  1  0.36401738  0.61645227  0.36503211  1
  O  O335  1  0.38335489  0.61461883  0.87348541  1
  O  O336  1  0.88587334  0.11732047  0.35913475  1
  O  O337  1  0.86141419  0.12601694  0.88400330  1
  O  O338  1  0.88015563  0.60983274  0.36061997  1
  O  O339  1  0.86547706  0.60809202  0.87567521  1
  O  O340  1  0.14109608  0.36659887  0.13705745  1
  O  O341  1  0.08974038  0.37624587  0.65014246  1
  O  O342  1  0.10370028  0.82372689  0.19804263  1
  O  O343  1  0.11114606  0.86196416  0.62335748  1
  O  O344  1  0.62524659  0.39716586  0.12024097  1
  O  O345  1  0.63797742  0.39557621  0.61468337  1
  O  O346  1  0.64145485  0.87454821  0.13268392  1
  O  O347  1  0.62273029  0.87252344  0.64710537  1
  O  O348  1  0.13384912  0.26013351  0.26680532  1
  O  O349  1  0.13541750  0.25177777  0.76945686  1
  O  O350  1  0.12575321  0.76808344  0.23996539  1
  O  O351  1  0.11498111  0.81207926  0.68707071  1
  O  O352  1  0.61324803  0.24542902  0.27136798  1
  O  O353  1  0.54646221  0.20697005  0.71183710  1
  O  O354  1  0.65327781  0.74046097  0.27825325  1
  O  O355  1  0.61198112  0.75573545  0.75878165  1
  O  O356  1  0.38720885  0.25441014  0.24691894  1
  O  O357  1  0.35466267  0.23063706  0.72360652  1
  O  O358  1  0.35527452  0.74179226  0.25088907  1
  O  O359  1  0.38146270  0.74146809  0.75061010  1
  O  O360  1  0.88123249  0.25903473  0.23682063  1
  O  O361  1  0.88345966  0.26814042  0.73501205  1
  O  O362  1  0.86972109  0.73273294  0.24009894  1
  O  O363  1  0.84242534  0.75808853  0.72539755  1
  O  O364  1  0.38343215  0.49379959  0.48909731  1
  O  O365  1  0.37594119  0.49075400  1.00039091  1
  O  O366  1  0.38404926  1.00522245  0.49616825  1
  O  O367  1  0.38747478  0.99033412  1.00344566  1
  O  O368  1  0.87107629  0.49463517  0.48347872  1
  O  O369  1  0.88069549  0.49291681  0.99163382  1
  O  O370  1  0.86900036  1.01335352  0.49338249  1
  O  O371  1  0.89005326  1.01236079  0.99086348  1
  O  O372  1  0.10867809  0.00225710  0.00171427  1
  O  O373  1  0.11352959  0.00137515  0.48170646  1
  O  O374  1  0.11611131  0.50972533  0.00155166  1
  O  O375  1  0.13510688  0.49580324  0.48906301  1
  O  O376  1  0.61184788  0.01161586  -0.00200541  1
  O  O377  1  0.66930381  0.00746545  0.49539886  1
  O  O378  1  0.62349218  0.50333310  0.02034110  1
  O  O379  1  0.61761418  0.51654570  0.50692974  1
  O  O380  1  0.37049689  0.37035811  0.12465126  1
  O  O381  1  0.38829259  0.37788947  0.61552783  1
  O  O382  1  0.38618154  0.87283066  0.10885463  1
  O  O383  1  0.38168654  0.84516948  0.62641038  1
  O  O384  1  0.88617735  0.36832286  0.11472349  1
  O  O385  1  0.87085301  0.38044967  0.61366012  1
  O  O386  1  0.86137433  0.85934504  0.13122090  1
  O  O387  1  0.89289841  0.86411984  0.60247945  1
  O  O388  1  0.10141090  0.13965470  0.37933509  1
  O  O389  1  0.14075773  0.13971452  0.88405063  1
  O  O390  1  0.14585531  0.61758295  0.37450131  1
  O  O391  1  0.12348761  0.62521354  0.88978356  1
  O  O392  1  0.62499384  0.14395805  0.40207419  1
  O  O393  1  0.63748805  0.12740849  0.89077738  1
  O  O394  1  0.61786894  0.62682182  0.40028525  1
  O  O395  1  0.62718649  0.63478880  0.87040082  1
