# generated using pymatgen
data_V35Zn35O128
_symmetry_space_group_name_H-M   'P 1'
_cell_length_a   16.89384022
_cell_length_b   16.89692447
_cell_length_c   16.90741777
_cell_angle_alpha   89.91049109
_cell_angle_beta   89.93124557
_cell_angle_gamma   90.09392328
_symmetry_Int_Tables_number   1
_chemical_formula_structural   V35Zn35O128
_chemical_formula_sum   'V70 Zn70 O256'
_cell_volume   4826.27318919
_cell_formula_units_Z   2
loop_
 _symmetry_equiv_pos_site_id
 _symmetry_equiv_pos_as_xyz
  1  'x, y, z'
loop_
 _atom_site_type_symbol
 _atom_site_label
 _atom_site_symmetry_multiplicity
 _atom_site_fract_x
 _atom_site_fract_y
 _atom_site_fract_z
 _atom_site_occupancy
  V  V0  1  0.63016855  0.76091033  0.36658457  1
  V  V1  1  0.74706711  0.86170991  0.61850712  1
  V  V2  1  0.87464937  -0.01288178  0.38431528  1
  V  V3  1  0.24525574  0.24558404  0.50769643  1
  V  V4  1  0.75016779  0.37734471  0.14706566  1
  V  V5  1  0.63212226  0.23899317  0.88257740  1
  V  V6  1  0.12621669  0.24878577  0.37026639  1
  V  V7  1  0.63091585  0.75535414  0.89908175  1
  V  V8  1  0.88268761  0.12855256  0.74747834  1
  V  V9  1  0.11541588  0.87727687  0.75336429  1
  V  V10  1  0.48367674  0.88103971  0.88692296  1
  V  V11  1  0.25248559  0.11820855  0.88651016  1
  V  V12  1  0.86345652  0.50409211  0.86109187  1
  V  V13  1  0.87140587  0.12271276  0.24276757  1
  V  V14  1  0.12101607  0.37563598  0.74396955  1
  V  V15  1  0.38202326  0.38054717  -0.00661384  1
  V  V16  1  0.62508674  0.63156519  0.50337550  1
  V  V17  1  0.77504251  0.24338498  0.51799269  1
  V  V18  1  0.24147125  -0.00142479  0.24195946  1
  V  V19  1  0.26029177  0.37302746  0.62635557  1
  V  V20  1  0.00934508  0.73181199  0.74483561  1
  V  V21  1  0.00051102  0.24805656  0.24581841  1
  V  V22  1  0.38452402  0.25531458  0.13066080  1
  V  V23  1  0.24653966  -0.00223319  0.73841221  1
  V  V24  1  0.13113622  0.50333596  0.11711803  1
  V  V25  1  0.88835699  0.39030938  0.51166666  1
  V  V26  1  0.25250236  0.12679909  0.37623371  1
  V  V27  1  0.77801353  0.24817925  0.00382106  1
  V  V28  1  0.49538260  0.01220846  -0.00440712  1
  V  V29  1  0.73460345  -0.00713656  0.24136508  1
  V  V30  1  0.26024410  0.51047904  0.75128443  1
  V  V31  1  0.38062036  0.62021454  0.23641201  1
  V  V32  1  0.00768526  0.52767948  -0.00784892  1
  V  V33  1  0.24136513  0.65841150  0.90991053  1
  V  V34  1  0.61882669  0.26295813  0.37894638  1
  V  V35  1  0.73686590  0.58873156  0.36154082  1
  V  V36  1  0.37270023  0.12399206  0.75097526  1
  V  V37  1  0.87577252  -0.00901600  0.88704778  1
  V  V38  1  0.49406860  -0.00864300  0.49514003  1
  V  V39  1  0.01593456  -0.00466150  0.00343321  1
  V  V40  1  0.49634085  0.25881916  0.75280088  1
  V  V41  1  0.83932038  0.62221322  0.73833101  1
  V  V42  1  0.61351434  0.86914109  0.75589396  1
  V  V43  1  0.49712139  0.77079400  0.25221757  1
  V  V44  1  0.25266695  0.86710193  0.61002416  1
  V  V45  1  0.24301264  0.48739991  0.25310058  1
  V  V46  1  0.55906881  0.55569875  0.03996374  1
  V  V47  1  0.38271165  0.74591235  0.65259746  1
  V  V48  1  0.62477742  0.12899193  0.50321861  1
  V  V49  1  0.02542037  -0.00397134  0.50210074  1
  V  V50  1  0.00106615  0.37779973  0.88235075  1
  V  V51  1  0.75069022  0.00336013  0.75876950  1
  V  V52  1  0.12290229  0.51600383  0.60485865  1
  V  V53  1  0.62331529  -0.00137443  0.62715045  1
  V  V54  1  0.01130381  0.11941967  0.11955057  1
  V  V55  1  0.75343415  0.12523903  0.37742743  1
  V  V56  1  0.24557854  0.25989896  0.00780838  1
  V  V57  1  0.36567055  0.76756739  0.11556568  1
  V  V58  1  0.37907463  -0.01326636  0.37060862  1
  V  V59  1  0.64768974  0.38296588  0.74212892  1
  V  V60  1  0.49764902  0.51064942  0.51243164  1
  V  V61  1  0.00631476  0.74186287  0.23343039  1
  V  V62  1  0.51472733  0.12694611  0.12685943  1
  V  V63  1  -0.00109106  0.38273456  0.37497180  1
  V  V64  1  0.13384298  0.73519493  0.38891676  1
  V  V65  1  0.49217279  0.12905601  0.62682836  1
  V  V66  1  0.12251076  0.24530978  0.87441212  1
  V  V67  1  0.38287936  0.36605145  0.49418205  1
  V  V68  1  0.01597870  0.86955525  0.36663235  1
  V  V69  1  0.37493176  0.50454892  0.37595228  1
  Zn  Zn70  1  -0.00797309  0.11195893  0.61829386  1
  Zn  Zn71  1  0.38182138  0.13350432  0.25258674  1
  Zn  Zn72  1  0.88989089  0.84357953  0.03076861  1
  Zn  Zn73  1  0.87123511  0.74923234  0.62399163  1
  Zn  Zn74  1  0.50491987  0.38895134  0.87217696  1
  Zn  Zn75  1  0.37699358  0.52152107  0.88608847  1
  Zn  Zn76  1  0.19008664  0.18062375  0.18906799  1
  Zn  Zn77  1  0.18666492  0.18876605  0.69308583  1
  Zn  Zn78  1  0.18968722  0.67934537  0.19685818  1
  Zn  Zn79  1  0.18840226  0.69145211  0.68001742  1
  Zn  Zn80  1  0.67281227  0.22968745  0.17444783  1
  Zn  Zn81  1  0.68491789  0.18774441  0.69503727  1
  Zn  Zn82  1  0.65123638  0.65450022  0.19646575  1
  Zn  Zn83  1  0.63132531  0.65588765  0.71538269  1
  Zn  Zn84  1  0.31250551  0.31652073  0.31332279  1
  Zn  Zn85  1  0.31112080  0.31086484  0.81252394  1
  Zn  Zn86  1  0.30549107  0.80888340  0.30061811  1
  Zn  Zn87  1  0.30781458  0.81194670  0.81605753  1
  Zn  Zn88  1  0.81496856  0.31159378  0.32405445  1
  Zn  Zn89  1  0.81592722  0.30841849  0.81688226  1
  Zn  Zn90  1  0.81264474  0.81172679  0.29310723  1
  Zn  Zn91  1  0.81578004  0.80679629  0.81624466  1
  Zn  Zn92  1  0.18917122  0.43023594  0.43315693  1
  Zn  Zn93  1  0.18996196  0.44180870  0.93232701  1
  Zn  Zn94  1  0.19538868  0.93132264  0.42952663  1
  Zn  Zn95  1  0.18525794  0.93096545  0.93343176  1
  Zn  Zn96  1  0.69360221  0.43267081  0.47875473  1
  Zn  Zn97  1  0.68321976  0.42106722  0.93285638  1
  Zn  Zn98  1  0.68534496  0.93807837  0.43410876  1
  Zn  Zn99  1  0.67029863  0.95543104  0.93608937  1
  Zn  Zn100  1  0.31931986  0.06721199  0.06430285  1
  Zn  Zn101  1  0.31381943  0.06045856  0.56059516  1
  Zn  Zn102  1  0.30479114  0.56519045  0.06305623  1
  Zn  Zn103  1  0.33505838  0.54788817  0.59111151  1
  Zn  Zn104  1  0.80487694  0.06524363  0.06297628  1
  Zn  Zn105  1  0.81234588  0.05534803  0.56667046  1
  Zn  Zn106  1  0.83660152  0.43781311  0.03194761  1
  Zn  Zn107  1  0.80051975  0.56140037  0.55807422  1
  Zn  Zn108  1  0.43563459  0.44538189  0.17332662  1
  Zn  Zn109  1  0.47185837  0.53382837  0.72538170  1
  Zn  Zn110  1  0.43493264  0.94561704  0.17886197  1
  Zn  Zn111  1  0.43101724  0.93771207  0.68924690  1
  Zn  Zn112  1  0.96673992  0.41935471  0.16146836  1
  Zn  Zn113  1  0.94161482  0.44639431  0.68415030  1
  Zn  Zn114  1  0.93589560  0.93715145  0.19101588  1
  Zn  Zn115  1  0.93177397  0.93516764  0.67823727  1
  Zn  Zn116  1  0.06279658  0.06475755  0.31694502  1
  Zn  Zn117  1  0.06061261  0.05639684  0.81502472  1
  Zn  Zn118  1  0.07124997  0.56630300  0.31232602  1
  Zn  Zn119  1  0.07898214  0.56381929  0.81139735  1
  Zn  Zn120  1  0.56109698  0.07458225  0.31140142  1
  Zn  Zn121  1  0.55949635  0.06299496  0.81494082  1
  Zn  Zn122  1  0.55466184  0.55930344  0.32608860  1
  Zn  Zn123  1  0.58163975  0.55661438  0.85096979  1
  Zn  Zn124  1  0.43878646  0.18578189  0.43755189  1
  Zn  Zn125  1  0.43534100  0.19135461  0.93931139  1
  Zn  Zn126  1  0.44146892  0.68323781  0.42334809  1
  Zn  Zn127  1  0.43002105  0.69868186  0.92065688  1
  Zn  Zn128  1  0.94452057  0.17651247  0.43380701  1
  Zn  Zn129  1  0.93718136  0.17479625  0.92737421  1
  Zn  Zn130  1  0.92253243  0.67276924  0.34968849  1
  Zn  Zn131  1  0.93339423  0.69209254  0.91608629  1
  Zn  Zn132  1  0.06545746  0.31598452  0.06493146  1
  Zn  Zn133  1  0.06419729  0.31283638  0.56063934  1
  Zn  Zn134  1  0.06882638  0.81732561  0.06425562  1
  Zn  Zn135  1  0.06049181  0.81522814  0.56501052  1
  Zn  Zn136  1  0.56585944  0.32402206  0.06153895  1
  Zn  Zn137  1  0.56285531  0.31528455  0.56779453  1
  Zn  Zn138  1  0.54157501  0.71918093  0.05756114  1
  Zn  Zn139  1  0.56263203  0.80727425  0.55959530  1
  O  O140  1  0.11014293  0.12628320  0.12504760  1
  O  O141  1  0.10129640  0.16370905  0.62145293  1
  O  O142  1  0.11968032  0.60109357  0.13779410  1
  O  O143  1  0.13673785  0.61552995  0.61235835  1
  O  O144  1  0.61302334  0.14344284  0.12669704  1
  O  O145  1  0.61540832  0.11508415  0.62236846  1
  O  O146  1  0.61612112  0.62454838  0.09555959  1
  O  O147  1  0.62575081  0.64299998  0.60165599  1
  O  O148  1  0.37112784  0.38214724  0.38910780  1
  O  O149  1  0.37538334  0.36744691  0.88895314  1
  O  O150  1  0.37366257  0.88881700  0.37230831  1
  O  O151  1  0.38512524  0.87780086  0.86970894  1
  O  O152  1  0.89352393  0.36519001  0.38979800  1
  O  O153  1  0.89700559  0.38770926  0.85560587  1
  O  O154  1  0.88014628  0.88598246  0.36834426  1
  O  O155  1  0.87707571  0.89250804  0.86523448  1
  O  O156  1  0.26548519  0.00903887  0.37508853  1
  O  O157  1  0.24222497  0.01500301  0.87465385  1
  O  O158  1  0.25985581  0.49019989  0.36332283  1
  O  O159  1  0.26208419  0.49023978  0.85610837  1
  O  O160  1  0.75848470  0.00589412  0.37039968  1
  O  O161  1  0.75406624  -0.00562615  0.86541277  1
  O  O162  1  0.72667323  0.49182005  0.38294306  1
  O  O163  1  0.76819018  0.48752609  0.87637017  1
  O  O164  1  0.23521534  0.49133291  0.12793420  1
  O  O165  1  0.23947539  0.48928909  0.62994311  1
  O  O166  1  0.25542163  1.01944162  0.14356626  1
  O  O167  1  0.25295368  0.99294665  0.63362053  1
  O  O168  1  0.74027559  0.47193043  0.11361975  1
  O  O169  1  0.72915317  0.47745807  0.57773146  1
  O  O170  1  0.74723257  1.01180678  0.14299716  1
  O  O171  1  0.73483919  0.99517173  0.63281327  1
  O  O172  1  -0.01198059  0.35268820  0.26264871  1
  O  O173  1  0.01875639  0.37829519  0.75458691  1
  O  O174  1  0.00309987  0.86871724  0.26006536  1
  O  O175  1  0.01703390  0.89421835  0.74307227  1
  O  O176  1  0.53269069  0.40269293  0.25191920  1
  O  O177  1  0.49129215  0.35689869  0.74697821  1
  O  O178  1  0.49361279  0.86952503  0.24893297  1
  O  O179  1  0.51012268  0.89265706  0.75878845  1
  O  O180  1  0.49788752  0.12954760  0.23410925  1
  O  O181  1  0.48936117  0.12390370  0.74329190  1
  O  O182  1  0.48422719  0.61402439  0.25317963  1
  O  O183  1  0.53619105  0.61794320  0.75934704  1
  O  O184  1  0.99305447  0.12634009  0.24217472  1
  O  O185  1  0.98658145  0.10827882  0.74573622  1
  O  O186  1  0.99652691  0.63753627  0.26283317  1
  O  O187  1  1.01371096  0.63085003  0.74479555  1
  O  O188  1  0.36302705  0.25921483  0.00673463  1
  O  O189  1  0.36732782  0.26119717  0.49485201  1
  O  O190  1  0.38112372  0.74825897  0.01816538  1
  O  O191  1  0.33553809  0.71743828  0.48290724  1
  O  O192  1  0.87700967  0.25300116  -0.01535160  1
  O  O193  1  0.87450089  0.22668295  0.51071731  1
  O  O194  1  0.86194263  0.75855886  -0.03155272  1
  O  O195  1  0.87327723  0.73961102  0.49875973  1
  O  O196  1  0.14216313  0.25374830  0.48966581  1
  O  O197  1  0.13592768  0.25844835  0.99096928  1
  O  O198  1  0.12361643  0.75834492  0.48801869  1
  O  O199  1  0.18156182  0.84466125  1.01544399  1
  O  O200  1  0.63257514  0.23657474  0.50511264  1
  O  O201  1  0.61446018  0.25429213  0.98081060  1
  O  O202  1  0.61124798  0.74020165  0.47830630  1
  O  O203  1  0.62118137  0.77074264  0.99994945  1
  O  O204  1  0.48884135  0.24668281  0.11733843  1
  O  O205  1  0.50570066  0.23615993  0.63795162  1
  O  O206  1  0.47929197  0.74755079  0.14553605  1
  O  O207  1  0.47730050  0.76452402  0.61841844  1
  O  O208  1  1.00352992  0.24011501  0.13867487  1
  O  O209  1  1.03975775  0.22519848  0.63213098  1
  O  O210  1  1.01271080  0.74728720  0.13226276  1
  O  O211  1  0.98691412  0.76729408  0.64223816  1
  O  O212  1  0.01130728  0.24214646  0.36610846  1
  O  O213  1  0.01606669  0.25823420  0.88017039  1
  O  O214  1  0.01176520  0.76334567  0.37378312  1
  O  O215  1  -0.00918036  0.75907489  0.84041565  1
  O  O216  1  0.51820527  0.24621491  0.38450730  1
  O  O217  1  0.50412946  0.24519491  0.86061444  1
  O  O218  1  0.50247222  0.75111129  0.35888692  1
  O  O219  1  0.51031614  0.77344386  0.88312344  1
  O  O220  1  0.25936893  0.13998821  0.49530954  1
  O  O221  1  0.25308692  0.13471990  0.98916673  1
  O  O222  1  0.28380836  0.66495076  0.49175141  1
  O  O223  1  0.23827934  0.63932106  1.01008640  1
  O  O224  1  0.74397639  0.12435494  0.49716421  1
  O  O225  1  0.75707932  0.14796140  1.00346888  1
  O  O226  1  0.72801852  0.61986800  0.48259709  1
  O  O227  1  0.78699236  0.68697020  1.04209445  1
  O  O228  1  0.25539002  0.36336886  -0.00435096  1
  O  O229  1  0.25707449  0.36214903  0.50413523  1
  O  O230  1  0.20305168  0.88219169  0.08908044  1
  O  O231  1  0.25394932  0.87706397  0.51116238  1
  O  O232  1  0.75452683  0.36188444  -0.00230007  1
  O  O233  1  0.78264754  0.34980437  0.50036847  1
  O  O234  1  0.73765999  0.88352056  0.02689798  1
  O  O235  1  0.73174945  0.87959089  0.51950675  1
  O  O236  1  0.14001525  0.49808829  0.24945169  1
  O  O237  1  0.14014060  0.48403021  0.74605258  1
  O  O238  1  0.14213293  1.00962620  0.25914048  1
  O  O239  1  0.13928082  0.99804322  0.75008035  1
  O  O240  1  0.58759958  0.45279584  0.26260389  1
  O  O241  1  0.63469968  0.48019633  0.76641291  1
  O  O242  1  0.63682523  1.00693631  0.26177618  1
  O  O243  1  0.63137842  0.99964123  0.74401887  1
  O  O244  1  0.37558998  0.00756357  0.26461083  1
  O  O245  1  0.35914323  0.01222291  0.75064415  1
  O  O246  1  0.37452218  0.49837900  0.25777676  1
  O  O247  1  0.35881287  0.50381585  0.72651141  1
  O  O248  1  0.87300660  0.01123890  0.26217507  1
  O  O249  1  0.85880155  -0.00200071  0.75299651  1
  O  O250  1  0.87290870  0.53049453  0.21672062  1
  O  O251  1  0.87320445  0.51094865  0.74923760  1
  O  O252  1  0.11299648  0.35901956  0.37630717  1
  O  O253  1  0.11994245  0.36884382  0.86716433  1
  O  O254  1  0.11797593  0.87301947  0.36838419  1
  O  O255  1  0.12664916  0.87666104  0.85313792  1
  O  O256  1  0.63390915  0.35733589  0.41153790  1
  O  O257  1  0.61863094  0.35815946  0.85804347  1
  O  O258  1  0.62504406  0.86042432  0.37545191  1
  O  O259  1  0.61249148  0.88118103  0.86550709  1
  O  O260  1  0.38051545  0.14581067  0.12656727  1
  O  O261  1  0.38313417  0.12003957  0.63340094  1
  O  O262  1  0.38008984  0.61621689  0.13486862  1
  O  O263  1  0.37058194  0.64693628  0.62698100  1
  O  O264  1  0.88225077  0.12059133  0.14074458  1
  O  O265  1  0.87582128  0.11316133  0.64085155  1
  O  O266  1  0.85791581  0.58678522  0.17382466  1
  O  O267  1  0.85746156  0.62530430  0.63406737  1
  O  O268  1  0.25251072  0.24469357  0.11132510  1
  O  O269  1  0.24799816  0.25414165  0.61336599  1
  O  O270  1  0.26937823  0.74293573  0.14292255  1
  O  O271  1  0.26442585  0.76196241  0.63035751  1
  O  O272  1  0.76824365  0.25982732  0.11181229  1
  O  O273  1  0.75123300  0.23532488  0.61462361  1
  O  O274  1  0.77612702  0.71322429  0.10905323  1
  O  O275  1  0.74105553  0.76291063  0.62848342  1
  O  O276  1  0.24623414  0.24641714  0.38056541  1
  O  O277  1  0.24114552  0.24262297  0.88547225  1
  O  O278  1  0.23169877  0.75468782  0.36569958  1
  O  O279  1  0.24020753  0.75830859  0.88847237  1
  O  O280  1  0.75206728  0.23599783  0.39473679  1
  O  O281  1  0.73971799  0.25374233  0.88751612  1
  O  O282  1  0.73039710  0.74481180  0.35189343  1
  O  O283  1  0.72759236  0.78170111  0.88096163  1
  O  O284  1  -0.00765591  0.11548417  0.01373962  1
  O  O285  1  -0.00033621  0.09962628  0.49562665  1
  O  O286  1  0.01012636  0.62502506  -0.02758604  1
  O  O287  1  -0.07798980  0.68514665  0.47999130  1
  O  O288  1  0.49497559  0.12364016  0.00999895  1
  O  O289  1  0.50632840  0.12078891  0.51023816  1
  O  O290  1  0.49278881  0.62168529  -0.00506681  1
  O  O291  1  0.50004155  0.61682128  0.49465070  1
  O  O292  1  0.48545765  0.38237231  0.50837842  1
  O  O293  1  0.48673405  0.37258932  0.99196165  1
  O  O294  1  0.50716669  0.89418080  0.50020649  1
  O  O295  1  0.49274211  0.89288999  0.98783172  1
  O  O296  1  0.99889052  0.36943556  0.48638084  1
  O  O297  1  1.00133531  0.37859542  0.98353843  1
  O  O298  1  1.00514986  0.88734709  0.48222988  1
  O  O299  1  0.99969866  0.89062956  1.01037098  1
  O  O300  1  0.48034468  0.49493527  0.38987053  1
  O  O301  1  0.47848632  0.49688693  0.84375467  1
  O  O302  1  0.49073308  1.01062252  0.38565706  1
  O  O303  1  0.49701509  0.99892630  0.88430348  1
  O  O304  1  1.00684383  0.47996201  0.36075038  1
  O  O305  1  1.01347583  0.48841410  0.87637158  1
  O  O306  1  0.99208175  0.99230368  0.37906008  1
  O  O307  1  0.99041318  1.00574990  0.89577262  1
  O  O308  1  -0.00179049  0.01071559  0.11763380  1
  O  O309  1  0.00247157  -0.00972115  0.60463622  1
  O  O310  1  -0.00844853  0.51896622  0.09226758  1
  O  O311  1  0.02612526  0.49947092  0.62897830  1
  O  O312  1  0.49884996  0.02058490  0.11918716  1
  O  O313  1  0.50320116  0.00665074  0.61542733  1
  O  O314  1  0.51361027  0.49227042  0.10397015  1
  O  O315  1  0.47947141  0.50775647  0.61090739  1
  O  O316  1  0.25604680  0.38758102  0.24382029  1
  O  O317  1  0.24734815  0.37609103  0.74071528  1
  O  O318  1  0.25819130  0.89972629  0.25390669  1
  O  O319  1  0.24588521  0.89164415  0.75131973  1
  O  O320  1  0.76111115  0.37316457  0.24793206  1
  O  O321  1  0.74676447  0.36290791  0.74559637  1
  O  O322  1  0.74807428  0.89316018  0.25095362  1
  O  O323  1  0.73257722  0.88788714  0.74184732  1
  O  O324  1  0.25852546  0.12216736  0.26268981  1
  O  O325  1  0.25265193  0.11719014  0.75458884  1
  O  O326  1  0.26880595  0.60163018  0.24416053  1
  O  O327  1  0.24173118  0.60868242  0.74369399  1
  O  O328  1  0.76324242  0.12196829  0.26132076  1
  O  O329  1  0.75506161  0.10816118  0.74569890  1
  O  O330  1  0.71534600  0.59297015  0.25998747  1
  O  O331  1  0.74133435  0.62353646  0.74608606  1
  O  O332  1  0.36614168  0.12532479  0.37394660  1
  O  O333  1  0.35762166  0.13181075  0.86764451  1
  O  O334  1  0.37036935  0.60751295  0.36622297  1
  O  O335  1  0.34422168  0.63205898  0.88326225  1
  O  O336  1  0.86842091  0.11190555  0.37068572  1
  O  O337  1  0.87669117  0.10275267  0.85938532  1
  O  O338  1  0.83693801  0.60565642  0.36704302  1
  O  O339  1  0.87297066  0.61115551  0.85209836  1
  O  O340  1  0.08227837  0.40487441  0.13569476  1
  O  O341  1  0.13502217  0.37280197  0.63598964  1
  O  O342  1  0.14542422  0.87403471  0.14038752  1
  O  O343  1  0.14644049  0.87100056  0.63580965  1
  O  O344  1  0.64509709  0.34296932  0.13768614  1
  O  O345  1  0.62082058  0.37357297  0.64308426  1
  O  O346  1  0.70470526  0.85975610  0.08783768  1
  O  O347  1  0.62147469  0.88277607  0.63625118  1
  O  O348  1  0.11208068  0.24154776  0.25634580  1
  O  O349  1  0.13748910  0.26486947  0.76691205  1
  O  O350  1  0.11155750  0.74110021  0.26101779  1
  O  O351  1  0.11506593  0.76237192  0.74037829  1
  O  O352  1  0.64203375  0.25270386  0.28146952  1
  O  O353  1  0.61332441  0.25348007  0.75620366  1
  O  O354  1  0.60466293  0.74613457  0.25159118  1
  O  O355  1  0.61994536  0.76956726  0.75474019  1
  O  O356  1  0.37206690  0.25984270  0.23361905  1
  O  O357  1  0.38353854  0.23668298  0.75313332  1
  O  O358  1  0.38293087  0.73419193  0.25370539  1
  O  O359  1  0.38046565  0.74939424  0.75303603  1
  O  O360  1  0.88872268  0.22979733  0.26442451  1
  O  O361  1  0.87449766  0.22705320  0.76163021  1
  O  O362  1  0.89963737  0.74932781  0.26000467  1
  O  O363  1  0.87105011  0.72826972  0.74853905  1
  O  O364  1  0.37269182  0.49350568  0.49176644  1
  O  O365  1  0.36171021  0.48333835  1.00065924  1
  O  O366  1  0.38684772  1.00371836  0.49036170  1
  O  O367  1  0.39052559  1.00565467  1.00531687  1
  O  O368  1  0.88023638  0.48865758  0.50581531  1
  O  O369  1  0.89714938  0.50819386  0.96811661  1
  O  O370  1  0.86965370  0.99615534  0.48524554  1
  O  O371  1  0.86650240  0.99540142  0.99002409  1
  O  O372  1  0.11409340  0.00161671  -0.00334162  1
  O  O373  1  0.12486073  -0.00059416  0.49347312  1
  O  O374  1  0.11877614  0.49771928  0.00615095  1
  O  O375  1  0.13224564  0.49288116  0.50701738  1
  O  O376  1  0.60118644  0.00506497  0.00512893  1
  O  O377  1  0.61483771  0.01050776  0.50587434  1
  O  O378  1  0.61021608  0.50546312  -0.03627287  1
  O  O379  1  0.60126930  0.51279638  0.49933116  1
  O  O380  1  0.38043749  0.36470734  0.11007822  1
  O  O381  1  0.36123422  0.37906991  0.60746541  1
  O  O382  1  0.37008680  0.86777835  0.12722847  1
  O  O383  1  0.36014176  0.86826461  0.63408606  1
  O  O384  1  0.86782204  0.38192571  0.12551510  1
  O  O385  1  0.90266776  0.36910299  0.61001570  1
  O  O386  1  0.86806666  0.87395100  0.13239466  1
  O  O387  1  0.85176972  0.87117621  0.63017872  1
  O  O388  1  0.14077902  0.13512480  0.37505039  1
  O  O389  1  0.13366204  0.13903346  0.86801614  1
  O  O390  1  0.12258767  0.63454279  0.38648444  1
  O  O391  1  0.15438976  0.61763681  0.87507132  1
  O  O392  1  0.63487510  0.12905688  0.38832987  1
  O  O393  1  0.62522224  0.13895268  0.86685675  1
  O  O394  1  0.62425178  0.63082361  0.37962143  1
  O  O395  1  0.63046088  0.65606856  0.88598418  1
