# generated using pymatgen
data_V35Zn35O128
_symmetry_space_group_name_H-M   'P 1'
_cell_length_a   17.00535972
_cell_length_b   16.91507236
_cell_length_c   17.00573079
_cell_angle_alpha   89.68761121
_cell_angle_beta   90.10285479
_cell_angle_gamma   90.04854803
_symmetry_Int_Tables_number   1
_chemical_formula_structural   V35Zn35O128
_chemical_formula_sum   'V70 Zn70 O256'
_cell_volume   4891.56327422
_cell_formula_units_Z   2
loop_
 _symmetry_equiv_pos_site_id
 _symmetry_equiv_pos_as_xyz
  1  'x, y, z'
loop_
 _atom_site_type_symbol
 _atom_site_label
 _atom_site_symmetry_multiplicity
 _atom_site_fract_x
 _atom_site_fract_y
 _atom_site_fract_z
 _atom_site_occupancy
  V  V0  1  0.38044690  0.39234628  -0.00803461  1
  V  V1  1  0.75810553  0.49255499  0.74090149  1
  V  V2  1  0.87401856  0.63785522  0.75182106  1
  V  V3  1  0.00376765  0.49431170  0.49024825  1
  V  V4  1  0.50354918  0.24508099  0.25107120  1
  V  V5  1  -0.00999060  0.63004120  0.62284839  1
  V  V6  1  0.37868716  0.12603851  0.74950553  1
  V  V7  1  0.37245642  0.25342817  0.61783055  1
  V  V8  1  0.89444850  0.37607835  -0.00347032  1
  V  V9  1  0.75187600  0.36289877  0.11051604  1
  V  V10  1  0.13090177  0.00473782  0.13116121  1
  V  V11  1  -0.00794479  0.00226195  -0.00657677  1
  V  V12  1  0.23585544  0.76019284  -0.02462134  1
  V  V13  1  0.24173310  0.00178987  0.74745414  1
  V  V14  1  0.24132873  0.25532364  0.49173202  1
  V  V15  1  -0.01324497  0.13395593  0.12933761  1
  V  V16  1  0.86175101  0.86112735  0.49690445  1
  V  V17  1  0.39435737  -0.00053617  0.88133744  1
  V  V18  1  0.87248512  0.87015335  -0.00522722  1
  V  V19  1  0.62996033  0.24726881  0.88170300  1
  V  V20  1  0.62438543  0.37639564  0.25819791  1
  V  V21  1  0.25855286  0.24921440  -0.00279447  1
  V  V22  1  0.51012131  0.87520011  0.36653140  1
  V  V23  1  -0.02853442  0.01342144  0.48448388  1
  V  V24  1  0.87397637  0.25125243  0.64029255  1
  V  V25  1  0.24850496  0.60129529  0.86653904  1
  V  V26  1  0.11440729  0.61282040  -0.00099643  1
  V  V27  1  0.47927184  0.37954852  0.38094399  1
  V  V28  1  0.00660900  0.85614090  0.84294150  1
  V  V29  1  0.50226092  0.25256990  0.75044267  1
  V  V30  1  0.51024273  0.12381823  0.62214031  1
  V  V31  1  0.37737085  0.11539405  0.24860130  1
  V  V32  1  0.24280447  0.86902240  0.12603003  1
  V  V33  1  0.89924074  0.74497889  0.12533231  1
  V  V34  1  0.61464448  0.10358403  0.00144206  1
  V  V35  1  0.38494302  0.24118440  0.11960316  1
  V  V36  1  0.12546465  0.10876870  0.49913914  1
  V  V37  1  0.48783768  0.61766724  0.09715111  1
  V  V38  1  0.66242948  0.74679350  0.89959243  1
  V  V39  1  0.12159203  0.50915966  0.62693873  1
  V  V40  1  0.76340744  0.12381618  0.87754767  1
  V  V41  1  0.03103631  0.24770995  0.25441951  1
  V  V42  1  0.24630104  0.11782457  0.37054558  1
  V  V43  1  0.75349074  0.01760224  0.74414102  1
  V  V44  1  0.75527402  0.63272032  0.37575475  1
  V  V45  1  0.25281781  0.12400548  0.87456737  1
  V  V46  1  0.38035102  0.00206788  0.38435344  1
  V  V47  1  0.74346169  0.24962980  0.49285502  1
  V  V48  1  0.62867582  0.50355234  0.10191411  1
  V  V49  1  0.37006704  0.75470821  0.63309165  1
  V  V50  1  0.11666991  0.25288043  0.86583690  1
  V  V51  1  0.62442063  0.12015586  0.49560650  1
  V  V52  1  0.50331250  0.39227600  0.87712278  1
  V  V53  1  0.76223420  0.49765977  0.25646271  1
  V  V54  1  0.24404281  0.37482602  0.63282220  1
  V  V55  1  0.11911534  0.86781096  0.25715153  1
  V  V56  1  0.70141345  0.69841220  0.55954671  1
  V  V57  1  0.38309216  0.61825233  0.75287347  1
  V  V58  1  0.74862140  0.87944211  0.63280530  1
  V  V59  1  0.62612899  0.38714841  0.74446538  1
  V  V60  1  0.24842815  0.62174350  0.35674640  1
  V  V61  1  0.12715098  0.12696607  0.00158585  1
  V  V62  1  0.24823868  0.38546145  0.12895920  1
  V  V63  1  -0.00193355  0.12542634  0.63393824  1
  V  V64  1  -0.01553239  0.87082544  0.36835425  1
  V  V65  1  0.38428550  0.87268732  0.00275240  1
  V  V66  1  0.87316218  0.37051250  0.49322500  1
  V  V67  1  0.24280672  0.88987691  0.62240724  1
  V  V68  1  0.39038205  0.88196014  0.50796272  1
  V  V69  1  0.50466768  0.77282930  0.76201102  1
  Zn  Zn70  1  0.47407526  0.72985961  0.25484677  1
  Zn  Zn71  1  0.00499099  0.36993810  0.36622995  1
  Zn  Zn72  1  0.53086645  0.52749514  0.49284852  1
  Zn  Zn73  1  0.57622388  0.69354510  0.40959638  1
  Zn  Zn74  1  0.12550414  0.38007426  0.75770233  1
  Zn  Zn75  1  0.18231535  0.71237822  0.47498356  1
  Zn  Zn76  1  0.19919353  0.19144127  0.18384415  1
  Zn  Zn77  1  0.18153923  0.18433900  0.68191200  1
  Zn  Zn78  1  0.17838615  0.68904245  0.18203154  1
  Zn  Zn79  1  0.19845166  0.71154588  0.72245506  1
  Zn  Zn80  1  0.67695277  0.18870568  0.17382624  1
  Zn  Zn81  1  0.69020537  0.20083469  0.68651219  1
  Zn  Zn82  1  0.64762158  0.66440539  0.21457050  1
  Zn  Zn83  1  0.66070034  0.65648927  0.74272454  1
  Zn  Zn84  1  0.31194208  0.30701548  0.30795432  1
  Zn  Zn85  1  0.31628945  0.31773619  0.81290358  1
  Zn  Zn86  1  0.32159806  0.78242878  0.32745909  1
  Zn  Zn87  1  0.32069292  0.82549234  0.81263994  1
  Zn  Zn88  1  0.80462014  0.31630694  0.31903331  1
  Zn  Zn89  1  0.81183684  0.32055618  0.82304057  1
  Zn  Zn90  1  0.81902862  0.79483646  0.30989959  1
  Zn  Zn91  1  0.82253623  0.82157263  0.81555173  1
  Zn  Zn92  1  0.20109532  0.45283753  0.44381818  1
  Zn  Zn93  1  0.18432220  0.43393154  0.94330797  1
  Zn  Zn94  1  0.15111062  0.89112743  0.47020161  1
  Zn  Zn95  1  0.17834773  0.93974895  0.93183814  1
  Zn  Zn96  1  0.69273836  0.45617883  0.43829943  1
  Zn  Zn97  1  0.84589201  0.50852925  0.89215982  1
  Zn  Zn98  1  0.64220420  0.90430337  0.49724816  1
  Zn  Zn99  1  0.68636993  0.93574289  0.91820446  1
  Zn  Zn100  1  0.31752733  0.05694951  0.06265585  1
  Zn  Zn101  1  0.31495797  0.06813086  0.56067075  1
  Zn  Zn102  1  0.29991826  0.57346744  0.05822448  1
  Zn  Zn103  1  0.30441722  0.56594491  0.56617946  1
  Zn  Zn104  1  0.80940061  0.07228081  0.05532911  1
  Zn  Zn105  1  0.80822874  0.07250716  0.56732308  1
  Zn  Zn106  1  0.83159589  0.54740119  0.08812654  1
  Zn  Zn107  1  0.81489831  0.54966016  0.56542451  1
  Zn  Zn108  1  0.44813799  0.42853159  0.17036544  1
  Zn  Zn109  1  0.43547565  0.43605501  0.68353091  1
  Zn  Zn110  1  0.40806492  0.90059802  0.21234661  1
  Zn  Zn111  1  0.44178391  0.94433817  0.68680342  1
  Zn  Zn112  1  0.93465760  0.42187078  0.18605261  1
  Zn  Zn113  1  0.93618451  0.43395804  0.68205541  1
  Zn  Zn114  1  0.94154957  0.93351472  0.17326822  1
  Zn  Zn115  1  0.92823223  0.94773362  0.67775456  1
  Zn  Zn116  1  0.06145099  0.06032137  0.31157565  1
  Zn  Zn117  1  0.06166955  0.06081596  0.81415498  1
  Zn  Zn118  1  0.08584927  0.55929685  0.32740492  1
  Zn  Zn119  1  0.06656806  0.57185820  0.80369160  1
  Zn  Zn120  1  0.55784265  0.06751615  0.32489088  1
  Zn  Zn121  1  0.57550219  0.05920280  0.80532664  1
  Zn  Zn122  1  0.57412198  0.55097010  0.32153375  1
  Zn  Zn123  1  0.63754865  0.54220321  0.89328019  1
  Zn  Zn124  1  0.43948346  0.19541793  0.43826699  1
  Zn  Zn125  1  0.44508134  0.18485928  0.93655740  1
  Zn  Zn126  1  0.38912993  0.67032674  0.45874963  1
  Zn  Zn127  1  0.42756910  0.69192022  0.92807295  1
  Zn  Zn128  1  0.93940500  0.19850450  0.43414055  1
  Zn  Zn129  1  0.93732070  0.19738239  0.94379437  1
  Zn  Zn130  1  0.93984212  0.68395940  0.43958243  1
  Zn  Zn131  1  0.93781364  0.68988726  0.92919903  1
  Zn  Zn132  1  0.06536939  0.31418571  0.06277368  1
  Zn  Zn133  1  0.06176408  0.30790855  0.56146926  1
  Zn  Zn134  1  0.06263470  0.81217897  0.05304423  1
  Zn  Zn135  1  0.08272482  0.79533880  0.62161570  1
  Zn  Zn136  1  0.56646286  0.31693776  0.06011617  1
  Zn  Zn137  1  0.58611196  0.35482969  0.53952005  1
  Zn  Zn138  1  0.55855578  0.78106461  0.05402776  1
  Zn  Zn139  1  0.53220444  0.67656372  0.59007204  1
  O  O140  1  0.13352935  0.11851321  0.11680879  1
  O  O141  1  0.10920551  0.12794865  0.61115720  1
  O  O142  1  0.13881247  0.62958342  0.09588041  1
  O  O143  1  0.11017701  0.61048433  0.61962345  1
  O  O144  1  0.63693025  0.11689206  0.09970162  1
  O  O145  1  0.61264225  0.13668601  0.62443193  1
  O  O146  1  0.62800271  0.60459548  0.11995205  1
  O  O147  1  0.63783959  0.64538109  0.62513594  1
  O  O148  1  0.38104250  0.37837191  0.36481106  1
  O  O149  1  0.38901710  0.37489163  0.88199369  1
  O  O150  1  0.38006105  0.88467033  0.39280213  1
  O  O151  1  0.37569204  0.89252096  0.88872589  1
  O  O152  1  0.88468613  0.36270411  0.38799257  1
  O  O153  1  0.87014781  0.38639831  0.89241846  1
  O  O154  1  0.87824148  0.87395565  0.37291774  1
  O  O155  1  0.90224835  0.87486324  0.88525955  1
  O  O156  1  0.26624517  0.01768576  0.37404999  1
  O  O157  1  0.25406135  0.01215403  0.86810933  1
  O  O158  1  0.26539559  0.52223267  0.38424801  1
  O  O159  1  0.25343924  0.50276638  0.87418416  1
  O  O160  1  0.72616331  -0.05932776  0.30683993  1
  O  O161  1  0.75423461  0.01840388  0.86478253  1
  O  O162  1  0.76497217  0.48588299  0.35886103  1
  O  O163  1  0.73814738  0.50783643  0.84936924  1
  O  O164  1  0.26027562  0.48501526  0.11610433  1
  O  O165  1  0.23391127  0.48250507  0.60886360  1
  O  O166  1  0.23334058  0.99295536  0.11212603  1
  O  O167  1  0.26162393  1.00393227  0.64115246  1
  O  O168  1  0.73748875  0.48917992  0.13385094  1
  O  O169  1  0.74584840  0.49742357  0.64029943  1
  O  O170  1  0.78590533  1.00652994  0.15628586  1
  O  O171  1  0.75411692  0.99653280  0.63405908  1
  O  O172  1  -0.00802590  0.34779610  0.24752626  1
  O  O173  1  0.00767715  0.40877059  0.77915650  1
  O  O174  1  0.00507553  0.88955546  0.25951842  1
  O  O175  1  -0.01129018  0.88039823  0.74603983  1
  O  O176  1  0.50728380  0.37027006  0.25318438  1
  O  O177  1  0.49901599  0.37306250  0.76135472  1
  O  O178  1  0.51200977  0.88672854  0.26532478  1
  O  O179  1  0.49089534  0.87366072  0.75562904  1
  O  O180  1  0.49478469  0.13796998  0.25291023  1
  O  O181  1  0.49580075  0.13251803  0.74369939  1
  O  O182  1  0.40849119  0.55357791  0.27607734  1
  O  O183  1  0.47925517  0.64349157  0.74572405  1
  O  O184  1  1.00819426  0.13496011  0.23752561  1
  O  O185  1  1.00439807  0.11403217  0.73156623  1
  O  O186  1  1.02356825  0.57035583  0.22117272  1
  O  O187  1  0.98960499  0.61836810  0.73244314  1
  O  O188  1  0.37106829  0.24407962  0.00263694  1
  O  O189  1  0.35877747  0.23809888  0.51255201  1
  O  O190  1  0.35592060  0.77044249  -0.01021592  1
  O  O191  1  0.37375733  0.77256520  0.52231793  1
  O  O192  1  0.87894719  0.27392647  -0.00009716  1
  O  O193  1  0.86721374  0.25383200  0.50339671  1
  O  O194  1  0.88419818  0.76439391  0.00160308  1
  O  O195  1  0.87112577  0.76295371  0.49274770  1
  O  O196  1  0.13834627  0.23671821  0.49895119  1
  O  O197  1  0.13929118  0.24170038  0.99193053  1
  O  O198  1  0.11497523  0.79045566  0.51358450  1
  O  O199  1  0.13501241  0.74730182  0.98955022  1
  O  O200  1  0.64356868  0.25772907  0.51428038  1
  O  O201  1  0.61690274  0.24877805  0.98236328  1
  O  O202  1  0.63937088  0.74650505  0.49629494  1
  O  O203  1  0.64356182  0.73582251  0.99961678  1
  O  O204  1  0.49071189  0.25838566  0.13259684  1
  O  O205  1  0.48568966  0.24520733  0.64022533  1
  O  O206  1  0.51642161  0.71304376  0.13909067  1
  O  O207  1  0.47668641  0.75995589  0.64084290  1
  O  O208  1  1.01285207  0.23808052  0.13511379  1
  O  O209  1  0.99236595  0.23474795  0.61960670  1
  O  O210  1  0.99972708  0.74536617  0.11896456  1
  O  O211  1  0.98849940  0.72694276  0.60709027  1
  O  O212  1  0.01221006  0.24309541  0.35724666  1
  O  O213  1  0.01930106  0.24412510  0.87896861  1
  O  O214  1  -0.00404193  0.77217818  0.38180323  1
  O  O215  1  0.00687509  0.75771421  0.86297908  1
  O  O216  1  0.49043199  0.26091807  0.35392262  1
  O  O217  1  0.50557399  0.24933348  0.86174083  1
  O  O218  1  0.49255584  0.77322472  0.37826962  1
  O  O219  1  0.49329917  0.75471609  0.86210759  1
  O  O220  1  0.24319801  0.12893730  0.49118296  1
  O  O221  1  0.24699973  0.12901091  0.99279779  1
  O  O222  1  0.27484881  0.64256675  0.49038999  1
  O  O223  1  0.25141077  0.64207310  0.97732808  1
  O  O224  1  0.73446725  0.13869995  0.50733278  1
  O  O225  1  0.73840075  0.12117694  0.98182148  1
  O  O226  1  0.76052414  0.63175318  0.50269289  1
  O  O227  1  0.74914323  0.76784880  1.11788861  1
  O  O228  1  0.26887882  0.36525582  -0.00396258  1
  O  O229  1  0.24195673  0.35908633  0.50482571  1
  O  O230  1  0.24170430  0.87066912  0.00080197  1
  O  O231  1  0.25871269  0.89251186  0.51959747  1
  O  O232  1  0.73979099  0.36708069  0.01505505  1
  O  O233  1  0.76845051  0.36819850  0.49732602  1
  O  O234  1  0.77654857  0.89116450  -0.01545919  1
  O  O235  1  0.76261265  0.88563966  0.49252967  1
  O  O236  1  0.13106818  0.45199287  0.29272767  1
  O  O237  1  0.12821644  0.49868208  0.72944349  1
  O  O238  1  0.12349383  0.99796257  0.23336364  1
  O  O239  1  0.14405357  1.01395193  0.75228387  1
  O  O240  1  0.63254098  0.48445725  0.24469587  1
  O  O241  1  0.62605811  0.48774931  0.74837438  1
  O  O242  1  0.65444611  1.04997917  0.25574545  1
  O  O243  1  0.65120464  0.99380619  0.75736041  1
  O  O244  1  0.38061658  0.01007614  0.25609580  1
  O  O245  1  0.37125746  0.01296589  0.76450221  1
  O  O246  1  0.37071115  0.50087901  0.24108836  1
  O  O247  1  0.38082626  0.51891451  0.73894142  1
  O  O248  1  0.84313036  0.00109682  0.20623496  1
  O  O249  1  0.85447881  -0.00228823  0.75015785  1
  O  O250  1  0.85904617  0.49778509  0.23048616  1
  O  O251  1  0.86051515  0.48450213  0.75028012  1
  O  O252  1  0.12944628  0.40155356  0.35420223  1
  O  O253  1  0.13953011  0.35552335  0.87458241  1
  O  O254  1  0.11298662  0.88407137  0.35946865  1
  O  O255  1  0.09699777  0.89671508  0.86861499  1
  O  O256  1  0.62085277  0.37215873  0.35721703  1
  O  O257  1  0.60880934  0.36057867  0.86457355  1
  O  O258  1  0.60624992  0.88423374  0.39295725  1
  O  O259  1  0.63523247  0.84381419  0.87903356  1
  O  O260  1  0.36829966  0.13042937  0.13394632  1
  O  O261  1  0.38042582  0.13424346  0.63483660  1
  O  O262  1  0.38981453  0.61528869  0.11626341  1
  O  O263  1  0.35606772  0.64931536  0.64019136  1
  O  O264  1  0.88933882  0.13306053  0.11926092  1
  O  O265  1  0.88645878  0.13902694  0.62301774  1
  O  O266  1  0.86346396  0.64990170  0.11098987  1
  O  O267  1  0.88552611  0.60955526  0.63624232  1
  O  O268  1  0.26562866  0.25437756  0.11048443  1
  O  O269  1  0.25189261  0.25532524  0.61604329  1
  O  O270  1  0.23962495  0.76755166  0.11025264  1
  O  O271  1  0.26101207  0.78095967  0.64322129  1
  O  O272  1  0.74956478  0.26395130  0.13600730  1
  O  O273  1  0.76962273  0.24731931  0.61780054  1
  O  O274  1  0.71429832  0.75976627  0.18345962  1
  O  O275  1  0.75538351  0.76517812  0.61422311  1
  O  O276  1  0.26024007  0.24001532  0.38858015  1
  O  O277  1  0.25433450  0.23871242  0.88100065  1
  O  O278  1  0.23114141  0.74372724  0.37325023  1
  O  O279  1  0.24336135  0.76512835  0.87532323  1
  O  O280  1  0.74520504  0.25176101  0.39343300  1
  O  O281  1  0.73426834  0.24209925  0.86646367  1
  O  O282  1  0.73745230  0.73103027  0.35834710  1
  O  O283  1  0.76208847  0.74834580  0.88146204  1
  O  O284  1  0.00937704  0.12755745  0.01430255  1
  O  O285  1  0.00771694  0.11997411  0.48843177  1
  O  O286  1  0.01661630  0.62812276  -0.01409278  1
  O  O287  1  -0.01340584  0.60217056  0.50965772  1
  O  O288  1  0.51463654  0.12186220  -0.00283855  1
  O  O289  1  0.50883449  0.14279655  0.51635949  1
  O  O290  1  0.49456785  0.63197597  -0.00103155  1
  O  O291  1  0.49810226  0.63844692  0.48790280  1
  O  O292  1  0.48983845  0.35048547  0.47684885  1
  O  O293  1  0.49034971  0.37123865  0.98703619  1
  O  O294  1  0.48803490  0.88406136  0.50325726  1
  O  O295  1  0.48046646  0.86012566  1.02160847  1
  O  O296  1  0.99820452  0.37612515  0.49027184  1
  O  O297  1  0.99459934  0.38258687  1.00933341  1
  O  O298  1  0.97269504  0.89958180  0.48345131  1
  O  O299  1  1.00077636  0.89684785  0.99878797  1
  O  O300  1  0.50442434  0.48289874  0.38217230  1
  O  O301  1  0.51982804  0.48816095  0.87729266  1
  O  O302  1  0.48744527  0.99430749  0.37571138  1
  O  O303  1  0.49072954  1.00816115  0.86910786  1
  O  O304  1  1.00303141  0.49858926  0.38834004  1
  O  O305  1  1.00703586  0.46696474  0.83362542  1
  O  O306  1  0.99682098  0.99835121  0.38074112  1
  O  O307  1  0.99520187  1.02435725  0.89586803  1
  O  O308  1  0.01092151  0.01760630  0.11858892  1
  O  O309  1  -0.01630086  0.01877548  0.59844862  1
  O  O310  1  0.02395021  0.51143147  0.17336326  1
  O  O311  1  0.01199896  0.49384790  0.61682854  1
  O  O312  1  0.60572416  -0.05812095  0.14531014  1
  O  O313  1  0.49572015  0.02510947  0.62894517  1
  O  O314  1  0.51458115  0.51018289  0.12358329  1
  O  O315  1  0.46077992  0.50316078  0.59007018  1
  O  O316  1  0.26388792  0.36704948  0.22650465  1
  O  O317  1  0.24797036  0.37053793  0.73604363  1
  O  O318  1  0.23051821  0.87709236  0.22904101  1
  O  O319  1  0.25866753  0.89879590  0.74718927  1
  O  O320  1  0.73978628  0.37842483  0.24545481  1
  O  O321  1  0.73348833  0.37923928  0.75438061  1
  O  O322  1  0.74004076  0.88487052  0.26162956  1
  O  O323  1  0.75816172  0.87466043  0.73394927  1
  O  O324  1  0.26381777  0.13651721  0.26439526  1
  O  O325  1  0.26045350  0.12273653  0.75523730  1
  O  O326  1  0.22623422  0.61976003  0.25721965  1
  O  O327  1  0.25649265  0.62585045  0.76189481  1
  O  O328  1  0.70566117  0.10709414  0.26026442  1
  O  O329  1  0.74779073  0.12440529  0.75708444  1
  O  O330  1  0.73943994  0.60419598  0.26471984  1
  O  O331  1  0.76964984  0.61281055  0.74050920  1
  O  O332  1  0.37469380  0.12083500  0.36966481  1
  O  O333  1  0.37071686  0.11754316  0.87088735  1
  O  O334  1  0.35366239  0.66228756  0.35073158  1
  O  O335  1  0.36085898  0.62739486  0.86170144  1
  O  O336  1  0.86576757  0.15748882  0.33773649  1
  O  O337  1  0.86090914  0.14001788  0.88165283  1
  O  O338  1  0.85639148  0.62743719  0.38120103  1
  O  O339  1  0.88981204  0.61319822  0.85433302  1
  O  O340  1  0.15074550  0.36893663  0.11037462  1
  O  O341  1  0.13394211  0.36942948  0.63146995  1
  O  O342  1  0.12459808  0.88940317  0.12469861  1
  O  O343  1  0.14485340  0.89688465  0.62840120  1
  O  O344  1  0.62901565  0.38438536  0.12963683  1
  O  O345  1  0.60826773  0.36399462  0.65018429  1
  O  O346  1  0.63262696  0.87985064  0.11747791  1
  O  O347  1  0.65144910  0.88023171  0.60884816  1
  O  O348  1  0.12964572  0.25235860  0.24976836  1
  O  O349  1  0.12991334  0.24643985  0.76364867  1
  O  O350  1  0.11577158  0.77069561  0.23985438  1
  O  O351  1  0.10390849  0.75946646  0.72389224  1
  O  O352  1  0.60909778  0.25973091  0.23860153  1
  O  O353  1  0.61550420  0.25391933  0.75971873  1
  O  O354  1  0.56114929  0.66240726  0.28909597  1
  O  O355  1  0.60210274  0.75707789  0.74163376  1
  O  O356  1  0.38554578  0.24051046  0.23757641  1
  O  O357  1  0.37957453  0.24053448  0.74849285  1
  O  O358  1  0.38291303  0.79218577  0.23743480  1
  O  O359  1  0.37710553  0.75537762  0.74584170  1
  O  O360  1  0.85753655  0.20900703  0.28170250  1
  O  O361  1  0.87239106  0.26493159  0.73845113  1
  O  O362  1  0.87855732  0.76227828  0.22320674  1
  O  O363  1  0.87196701  0.73577639  0.74999253  1
  O  O364  1  0.39561476  0.49908854  0.53700304  1
  O  O365  1  0.37422894  0.48906704  0.99682150  1
  O  O366  1  0.37493511  0.99674887  0.49478930  1
  O  O367  1  0.37737608  0.99467550  0.98817861  1
  O  O368  1  0.88850797  0.47737769  0.50941807  1
  O  O369  1  0.86756351  0.48895803  1.00225405  1
  O  O370  1  0.87334890  1.02739069  0.48046118  1
  O  O371  1  0.88940296  0.99769175  1.01199940  1
  O  O372  1  0.11564338  0.01403442  0.00568543  1
  O  O373  1  0.11947785  0.00733059  0.49440990  1
  O  O374  1  0.12638348  0.51187904  -0.00532550  1
  O  O375  1  0.11026054  0.48785349  0.50944044  1
  O  O376  1  0.62394623  0.00494344  -0.01587182  1
  O  O377  1  0.62622726  0.02200975  0.50269570  1
  O  O378  1  0.63210161  0.50040781  0.00354120  1
  O  O379  1  0.61792444  0.46183393  0.51500566  1
  O  O380  1  0.37513768  0.36523478  0.10448088  1
  O  O381  1  0.35810736  0.36226230  0.63147557  1
  O  O382  1  0.35035447  0.89318716  0.10786287  1
  O  O383  1  0.37140352  0.88278559  0.61911791  1
  O  O384  1  0.86013182  0.38173544  0.11076472  1
  O  O385  1  0.89310130  0.35569580  0.60956712  1
  O  O386  1  0.88487280  0.86406972  0.10436586  1
  O  O387  1  0.86434724  0.88447501  0.60181502  1
  O  O388  1  0.14263836  0.11763811  0.37657269  1
  O  O389  1  0.13565483  0.13324111  0.88276519  1
  O  O390  1  0.14322678  0.62483112  0.39465528  1
  O  O391  1  0.14219971  0.61947792  0.87614043  1
  O  O392  1  0.60890868  0.13774887  0.39837241  1
  O  O393  1  0.62795246  0.13597038  0.87976038  1
  O  O394  1  0.65436192  0.59332448  0.40051126  1
  O  O395  1  0.63201355  0.65054204  0.85570197  1
