# generated using pymatgen
data_V35Zn35O128
_symmetry_space_group_name_H-M   'P 1'
_cell_length_a   16.88107274
_cell_length_b   16.85778379
_cell_length_c   16.89110860
_cell_angle_alpha   90.06493837
_cell_angle_beta   89.83008398
_cell_angle_gamma   89.92592159
_symmetry_Int_Tables_number   1
_chemical_formula_structural   V35Zn35O128
_chemical_formula_sum   'V70 Zn70 O256'
_cell_volume   4806.80076169
_cell_formula_units_Z   2
loop_
 _symmetry_equiv_pos_site_id
 _symmetry_equiv_pos_as_xyz
  1  'x, y, z'
loop_
 _atom_site_type_symbol
 _atom_site_label
 _atom_site_symmetry_multiplicity
 _atom_site_fract_x
 _atom_site_fract_y
 _atom_site_fract_z
 _atom_site_occupancy
  V  V0  1  0.87135867  -0.00287365  0.36091116  1
  V  V1  1  0.50138805  0.24634705  0.73736103  1
  V  V2  1  0.87162865  0.38721561  0.49844525  1
  V  V3  1  0.62865004  0.12685323  0.51245792  1
  V  V4  1  0.68856107  0.79439565  -0.05833360  1
  V  V5  1  0.75514169  0.49698095  0.75076538  1
  V  V6  1  0.13269130  0.01043061  0.61259869  1
  V  V7  1  0.50879399  0.77056038  0.25343167  1
  V  V8  1  0.62978650  0.49930578  0.61959169  1
  V  V9  1  0.24400875  0.61444128  0.89015818  1
  V  V10  1  0.73710936  0.87307572  0.13750199  1
  V  V11  1  0.15193179  0.50153243  0.12619612  1
  V  V12  1  0.51889338  -0.01089653  -0.01266315  1
  V  V13  1  -0.01359414  0.24963194  0.23483875  1
  V  V14  1  0.75186132  0.25358396  0.01131752  1
  V  V15  1  -0.00828942  0.00684028  0.50368033  1
  V  V16  1  -0.00132230  0.87220619  0.38832749  1
  V  V17  1  0.87367617  0.12269750  0.76460098  1
  V  V18  1  0.86593622  0.75104660  0.11636019  1
  V  V19  1  0.27455592  0.24743011  0.53099329  1
  V  V20  1  0.01863847  0.61775084  0.61884840  1
  V  V21  1  0.31669008  0.78661135  0.56934668  1
  V  V22  1  0.62692386  0.76451931  0.39855897  1
  V  V23  1  0.01726112  0.50166004  0.49594692  1
  V  V24  1  0.75799599  0.12409756  0.36016927  1
  V  V25  1  0.37149200  0.61387172  0.75666268  1
  V  V26  1  0.13120607  0.75412113  0.89041957  1
  V  V27  1  0.50504013  0.01543851  0.46049256  1
  V  V28  1  0.63098752  0.60561821  0.00054142  1
  V  V29  1  -0.00132378  0.61748619  0.12159540  1
  V  V30  1  0.47969178  0.36716273  0.87879592  1
  V  V31  1  0.13042547  0.73570832  0.38254331  1
  V  V32  1  0.62594374  0.01881572  0.12410655  1
  V  V33  1  0.13205776  0.38734747  0.73415003  1
  V  V34  1  0.50117175  0.49703547  0.49580431  1
  V  V35  1  0.26010208  0.25431032  -0.02009105  1
  V  V36  1  0.63228880  0.36936627  0.76609727  1
  V  V37  1  -0.01221091  0.13204726  0.61898079  1
  V  V38  1  0.74705405  0.39414626  0.13853248  1
  V  V39  1  0.71988779  0.13655483  0.87793690  1
  V  V40  1  0.36459699  0.12825078  0.74052481  1
  V  V41  1  0.76163156  0.23876714  0.50177988  1
  V  V42  1  0.88420207  0.50020258  0.88755088  1
  V  V43  1  -0.00505735  0.75710057  0.24753072  1
  V  V44  1  0.14117093  0.37874085  0.25154683  1
  V  V45  1  -0.01245958  0.10883194  0.11955855  1
  V  V46  1  0.50275569  0.35615854  0.37468392  1
  V  V47  1  0.50910264  0.63441703  0.62759387  1
  V  V48  1  0.12301616  0.23343357  0.37955998  1
  V  V49  1  -0.00856882  0.37860391  0.36836469  1
  V  V50  1  0.48322225  0.49833237  -0.00379227  1
  V  V51  1  0.00935112  0.36926675  0.88426622  1
  V  V52  1  0.02446154  0.74542432  0.74579157  1
  V  V53  1  0.50669746  0.75078225  0.77415021  1
  V  V54  1  0.88290392  0.87395342  -0.02569872  1
  V  V55  1  0.36241031  0.12663879  0.23399445  1
  V  V56  1  0.37834756  -0.02074574  0.87040575  1
  V  V57  1  0.85996428  0.61862429  0.26514957  1
  V  V58  1  0.12809832  0.12244971  -0.00846701  1
  V  V59  1  0.87695759  0.62904534  0.73704417  1
  V  V60  1  0.75965482  0.36657926  0.62877769  1
  V  V61  1  0.73557264  -0.00138358  0.74601130  1
  V  V62  1  0.24093712  -0.01031858  0.75375208  1
  V  V63  1  -0.00111199  0.25579381  0.74382962  1
  V  V64  1  0.51180037  0.61486700  0.13877322  1
  V  V65  1  0.36056945  0.62464858  0.25795986  1
  V  V66  1  0.77088381  0.75815184  0.52153017  1
  V  V67  1  0.35877910  0.49988313  0.37819658  1
  V  V68  1  0.26262872  0.85263355  0.11536657  1
  V  V69  1  0.75079476  0.62682023  0.87949982  1
  Zn  Zn70  1  0.61650355  0.33143463  0.25031324  1
  Zn  Zn71  1  0.13134069  -0.00415797  0.12370666  1
  Zn  Zn72  1  0.62158550  0.87343863  0.77006892  1
  Zn  Zn73  1  0.01352700  0.50031102  0.00280785  1
  Zn  Zn74  1  0.57652440  0.93849058  0.29706472  1
  Zn  Zn75  1  0.13958932  0.88412506  0.25313978  1
  Zn  Zn76  1  0.17182296  0.19184217  0.17857761  1
  Zn  Zn77  1  0.17753168  0.18956329  0.68799759  1
  Zn  Zn78  1  0.17697177  0.69088163  0.18603808  1
  Zn  Zn79  1  0.20642199  0.68078518  0.66045215  1
  Zn  Zn80  1  0.69346045  0.19094685  0.18073281  1
  Zn  Zn81  1  0.69051917  0.18873620  0.68906042  1
  Zn  Zn82  1  0.68252718  0.68905202  0.18925946  1
  Zn  Zn83  1  0.68659319  0.69497119  0.68774186  1
  Zn  Zn84  1  0.29712920  0.32645519  0.36485642  1
  Zn  Zn85  1  0.30487562  0.30541689  0.80516706  1
  Zn  Zn86  1  0.30724172  0.79441688  0.29555701  1
  Zn  Zn87  1  0.30078668  0.79483113  0.78671260  1
  Zn  Zn88  1  0.80976821  0.31390745  0.31073897  1
  Zn  Zn89  1  0.83195904  0.29722986  0.84538250  1
  Zn  Zn90  1  0.80669971  0.80856268  0.32152341  1
  Zn  Zn91  1  0.84640026  0.83840130  0.75800577  1
  Zn  Zn92  1  0.18321156  0.42086412  0.44721264  1
  Zn  Zn93  1  0.19519033  0.43385710  0.93687075  1
  Zn  Zn94  1  0.14063692  0.84216374  0.54026085  1
  Zn  Zn95  1  0.18350237  0.93794188  0.93437318  1
  Zn  Zn96  1  0.67879743  0.41563075  0.44014066  1
  Zn  Zn97  1  0.70142190  0.43432513  0.94316042  1
  Zn  Zn98  1  0.68897820  0.93562783  0.44571056  1
  Zn  Zn99  1  0.72117078  0.95827979  0.94452102  1
  Zn  Zn100  1  0.30421747  0.05419088  0.04406209  1
  Zn  Zn101  1  0.31946945  0.07014579  0.55848177  1
  Zn  Zn102  1  0.32502445  0.60726445  0.06517580  1
  Zn  Zn103  1  0.34185946  0.60621645  0.53963068  1
  Zn  Zn104  1  0.80940103  0.05831023  0.05270470  1
  Zn  Zn105  1  0.81418636  -0.05821120  0.58192206  1
  Zn  Zn106  1  0.81100047  0.56027018  0.07340893  1
  Zn  Zn107  1  0.80356154  0.56994433  0.55185885  1
  Zn  Zn108  1  0.45138795  0.45311605  0.20290136  1
  Zn  Zn109  1  0.44846523  0.44003750  0.69607803  1
  Zn  Zn110  1  0.43498895  0.93880299  0.16003589  1
  Zn  Zn111  1  0.41545302  0.91202034  0.69844192  1
  Zn  Zn112  1  0.92670908  0.43730160  0.19150927  1
  Zn  Zn113  1  0.94173161  0.44081142  0.68713797  1
  Zn  Zn114  1  0.92839910  0.93439557  0.17923957  1
  Zn  Zn115  1  0.96404072  0.95034209  0.71317905  1
  Zn  Zn116  1  0.05408360  0.05866903  0.30262251  1
  Zn  Zn117  1  0.06260755  0.06559779  0.81316067  1
  Zn  Zn118  1  0.05716038  0.56247261  0.30463863  1
  Zn  Zn119  1  0.07209341  0.56327446  0.81120836  1
  Zn  Zn120  1  0.57563490  0.11984092  0.29923206  1
  Zn  Zn121  1  0.55021311  0.05971348  0.81204443  1
  Zn  Zn122  1  0.58755032  0.57190519  0.33264889  1
  Zn  Zn123  1  0.56289821  0.55679790  0.81613645  1
  Zn  Zn124  1  0.42290816  0.17280888  0.44763312  1
  Zn  Zn125  1  0.43857442  0.17131467  0.92623332  1
  Zn  Zn126  1  0.45701490  0.68260005  0.42741225  1
  Zn  Zn127  1  0.42744010  0.69161110  0.93713463  1
  Zn  Zn128  1  0.93352475  0.19348121  0.43092511  1
  Zn  Zn129  1  0.93609814  0.19258303  0.94899518  1
  Zn  Zn130  1  0.93706889  0.68357128  0.43979189  1
  Zn  Zn131  1  0.94458656  0.69059186  0.93189309  1
  Zn  Zn132  1  0.07772186  0.31613663  0.06473792  1
  Zn  Zn133  1  0.06171419  0.31286525  0.56041311  1
  Zn  Zn134  1  0.06400732  0.82355801  0.05881474  1
  Zn  Zn135  1  -0.05616627  0.81449225  0.58277231  1
  Zn  Zn136  1  0.58659651  0.33151607  0.04323031  1
  Zn  Zn137  1  0.57041416  0.31235811  0.55993207  1
  Zn  Zn138  1  0.54455819  0.80605283  0.06398070  1
  Zn  Zn139  1  0.48789616  0.81728567  0.53612275  1
  O  O140  1  0.11156138  0.11668525  0.11690582  1
  O  O141  1  0.10371232  0.12224593  0.62882134  1
  O  O142  1  0.10751961  0.60869643  0.13901923  1
  O  O143  1  0.11598267  0.61288181  0.62299340  1
  O  O144  1  0.64018674  0.11440757  0.10605811  1
  O  O145  1  0.62904250  0.12850210  0.61272525  1
  O  O146  1  0.62141930  0.62626760  0.10987223  1
  O  O147  1  0.62325806  0.60565430  0.63706942  1
  O  O148  1  0.38954908  0.39617420  0.37540542  1
  O  O149  1  0.38274793  0.37478052  0.86618536  1
  O  O150  1  0.35731917  0.89460579  0.37158035  1
  O  O151  1  0.36532300  0.88107899  0.84956450  1
  O  O152  1  0.88359182  0.37306238  0.38224772  1
  O  O153  1  0.89177552  0.39575945  0.86782235  1
  O  O154  1  0.88515911  0.88444583  0.37248536  1
  O  O155  1  0.87267749  0.85150876  0.87686216  1
  O  O156  1  0.30969456  -0.05653957  0.39934077  1
  O  O157  1  0.25519927  -0.00004916  0.85902836  1
  O  O158  1  0.26117014  0.49670074  0.39257415  1
  O  O159  1  0.24315470  0.51402328  0.87280473  1
  O  O160  1  0.76602942  0.00700707  0.38146175  1
  O  O161  1  0.74571401  0.02851063  0.85989164  1
  O  O162  1  0.72932011  0.49494802  0.36305502  1
  O  O163  1  0.76478814  0.50407721  0.86928527  1
  O  O164  1  0.24771047  0.52199834  0.12575230  1
  O  O165  1  0.29620473  0.44792568  0.61635209  1
  O  O166  1  0.25093180  0.97908621  0.11130151  1
  O  O167  1  0.23805555  1.01228503  0.62047954  1
  O  O168  1  0.74004675  0.49530584  0.13349551  1
  O  O169  1  0.74461169  0.49597264  0.63258105  1
  O  O170  1  0.73599467  0.98165590  0.11419411  1
  O  O171  1  0.74733166  1.01088983  0.64595906  1
  O  O172  1  -0.00144597  0.37229316  0.25642186  1
  O  O173  1  0.00231748  0.36876389  0.75379109  1
  O  O174  1  -0.00983114  0.86166050  0.25069112  1
  O  O175  1  0.01109470  0.84241406  0.73971469  1
  O  O176  1  0.50610082  0.37970780  0.26930819  1
  O  O177  1  0.51108617  0.37268237  0.76631476  1
  O  O178  1  0.49752364  0.87228805  0.23767678  1
  O  O179  1  0.50113366  0.85519741  0.75260971  1
  O  O180  1  0.46728994  0.13816288  0.24166925  1
  O  O181  1  0.51220484  0.14554310  0.74141232  1
  O  O182  1  0.52806429  0.59979444  0.23774651  1
  O  O183  1  0.50879903  0.63037101  0.74559282  1
  O  O184  1  1.00032191  0.14000765  0.22936242  1
  O  O185  1  0.99283707  0.13988852  0.74747429  1
  O  O186  1  0.98491641  0.63481064  0.24123781  1
  O  O187  1  0.99184596  0.61547453  0.73417708  1
  O  O188  1  0.36118876  0.23076828  -0.01552724  1
  O  O189  1  0.37641715  0.24523651  0.52180214  1
  O  O190  1  0.38049642  0.70399508  0.03401664  1
  O  O191  1  0.39669640  0.74443927  0.50232269  1
  O  O192  1  0.84918240  0.26531732  -0.03621714  1
  O  O193  1  0.86842349  0.26562057  0.50212012  1
  O  O194  1  0.88026957  0.75287324  0.01128150  1
  O  O195  1  0.87585997  0.75466888  0.50962127  1
  O  O196  1  0.11426971  0.25442357  0.48016914  1
  O  O197  1  0.14168832  0.24000730  1.00986101  1
  O  O198  1  0.10955628  0.75128943  0.48226489  1
  O  O199  1  0.11565189  0.74696557  0.98945640  1
  O  O200  1  0.64892053  0.24508410  0.50440636  1
  O  O201  1  0.64911457  0.25036731  0.99578010  1
  O  O202  1  0.59707690  0.78092491  0.49388633  1
  O  O203  1  0.62217505  0.73814665  0.99724855  1
  O  O204  1  0.41518249  0.32105671  0.10636057  1
  O  O205  1  0.49766957  0.27394315  0.64056729  1
  O  O206  1  0.50551330  0.72797456  0.14472490  1
  O  O207  1  0.51752374  0.73283207  0.62549943  1
  O  O208  1  0.99966189  0.26291468  0.13457356  1
  O  O209  1  0.99768292  0.24597028  0.63443298  1
  O  O210  1  0.98992136  0.74442273  0.13467010  1
  O  O211  1  1.00162178  0.72505508  0.63057504  1
  O  O212  1  0.00183266  0.26065889  0.36188486  1
  O  O213  1  -0.00322840  0.26726485  0.86939462  1
  O  O214  1  -0.00905406  0.76010778  0.36630697  1
  O  O215  1  0.02066441  0.73020676  0.85579196  1
  O  O216  1  0.47521842  0.26069877  0.38222351  1
  O  O217  1  0.49642483  0.26362223  0.86780642  1
  O  O218  1  0.50643798  0.76472902  0.36020900  1
  O  O219  1  0.50598770  0.74112780  0.87425396  1
  O  O220  1  0.25204429  0.15009538  0.50611276  1
  O  O221  1  0.23561913  0.13117393  0.99621691  1
  O  O222  1  0.26499821  0.68284508  0.55509343  1
  O  O223  1  0.24280617  0.62203682  0.98931502  1
  O  O224  1  0.75382649  0.13719177  0.50704430  1
  O  O225  1  0.75517120  0.13465960  0.98030692  1
  O  O226  1  0.74692480  0.65698730  0.51027240  1
  O  O227  1  0.74125038  0.61726130  0.99457196  1
  O  O228  1  0.25442453  0.35709369  -0.00790695  1
  O  O229  1  0.25612564  0.34122583  0.47643467  1
  O  O230  1  0.24215576  0.88065666  0.01494875  1
  O  O231  1  0.25401929  0.84756011  0.51907095  1
  O  O232  1  0.74418141  0.36829741  0.02358222  1
  O  O233  1  0.75570490  0.36591983  0.50843988  1
  O  O234  1  0.75164898  0.85180487  0.00278277  1
  O  O235  1  0.75237836  0.87086656  0.51487048  1
  O  O236  1  0.12322759  0.48881536  0.24246119  1
  O  O237  1  0.11664194  0.48767474  0.74121485  1
  O  O238  1  0.12166405  0.99635712  0.24127164  1
  O  O239  1  0.14050365  1.02064034  0.73760635  1
  O  O240  1  0.68159807  0.50543557  0.30354493  1
  O  O241  1  0.63880732  0.49068975  0.74667535  1
  O  O242  1  0.61716132  1.02141784  0.22894072  1
  O  O243  1  0.62956401  0.99427102  0.75665944  1
  O  O244  1  0.38051332  0.02027947  0.22724653  1
  O  O245  1  0.35775105  -0.00071428  0.74571847  1
  O  O246  1  0.37269896  0.50984109  0.26850863  1
  O  O247  1  0.39423305  0.51468202  0.76034533  1
  O  O248  1  0.87734826  -0.00212426  0.26183329  1
  O  O249  1  0.86328143  0.01994717  0.75275734  1
  O  O250  1  0.87398791  0.51903756  0.25217327  1
  O  O251  1  0.86985111  0.50929027  0.75672052  1
  O  O252  1  0.11063410  0.37214600  0.36337668  1
  O  O253  1  0.10899273  0.38764448  0.86327203  1
  O  O254  1  0.10031546  0.86521023  0.36559118  1
  O  O255  1  0.12985253  0.85443250  0.87470543  1
  O  O256  1  0.60864568  0.35431214  0.37713977  1
  O  O257  1  0.63277044  0.38037255  0.86733105  1
  O  O258  1  0.63125480  0.87301414  0.36709206  1
  O  O259  1  0.64288951  0.86679808  0.88847209  1
  O  O260  1  0.36468638  0.11626670  0.12753045  1
  O  O261  1  0.38994552  0.10927722  0.64469071  1
  O  O262  1  0.39780386  0.60991003  0.15657291  1
  O  O263  1  0.40508953  0.61398208  0.63925465  1
  O  O264  1  0.88648737  0.11614899  0.11234697  1
  O  O265  1  0.88944016  0.13033014  0.64446716  1
  O  O266  1  0.87879647  0.63762546  0.13042473  1
  O  O267  1  0.87218005  0.61807500  0.63695365  1
  O  O268  1  0.23911648  0.24648823  0.10694975  1
  O  O269  1  0.24870155  0.25760108  0.62890788  1
  O  O270  1  0.24123538  0.75117545  0.11758732  1
  O  O271  1  0.27609687  0.77712723  0.66701861  1
  O  O272  1  0.76769586  0.23713913  0.10989528  1
  O  O273  1  0.75454694  0.26026086  0.61996444  1
  O  O274  1  0.76093247  0.75392516  0.12613106  1
  O  O275  1  0.75366810  0.76009768  0.62415777  1
  O  O276  1  0.22438380  0.23814496  0.36161887  1
  O  O277  1  0.24348540  0.24511016  0.87969984  1
  O  O278  1  0.22883375  0.75352723  0.36892733  1
  O  O279  1  0.23730331  0.73654836  0.86600903  1
  O  O280  1  0.76865724  0.23443540  0.38930816  1
  O  O281  1  0.73596023  0.23871815  0.86156017  1
  O  O282  1  0.73734532  0.76487790  0.40329685  1
  O  O283  1  0.74822938  0.73558799  0.87738600  1
  O  O284  1  0.00934164  0.14121550  0.01687184  1
  O  O285  1  -0.01475082  0.12512856  0.51272977  1
  O  O286  1  -0.00434911  0.62733190  0.01894374  1
  O  O287  1  -0.00345330  0.61103594  0.50748350  1
  O  O288  1  0.49291464  0.09012417  -0.01291796  1
  O  O289  1  0.53088393  0.13876890  0.48422620  1
  O  O290  1  0.51542960  0.60859291  0.00268945  1
  O  O291  1  0.50822082  0.60870479  0.51787833  1
  O  O292  1  0.50564981  0.38792995  0.49310050  1
  O  O293  1  0.49986849  0.38274039  0.98902241  1
  O  O294  1  0.49168607  0.91834611  0.47600161  1
  O  O295  1  0.49359084  0.88760198  1.00550004  1
  O  O296  1  0.99153384  0.38814394  0.49415103  1
  O  O297  1  1.01004199  0.37718749  0.98756963  1
  O  O298  1  1.00262191  0.87984264  0.49278998  1
  O  O299  1  0.98090558  0.87579444  0.99749965  1
  O  O300  1  0.51487051  0.50198348  0.39288204  1
  O  O301  1  0.50347224  0.48797043  0.88838266  1
  O  O302  1  0.52022515  1.02702760  0.35855029  1
  O  O303  1  0.49281265  0.97969730  0.87479544  1
  O  O304  1  1.00289175  0.49353259  0.38697455  1
  O  O305  1  0.99301795  0.50503377  0.88159323  1
  O  O306  1  0.99055541  0.98986474  0.38094500  1
  O  O307  1  0.99369694  0.97918824  0.81890096  1
  O  O308  1  -0.00226376  0.00631746  0.12349724  1
  O  O309  1  0.00080465  0.01818883  0.62201228  1
  O  O310  1  -0.01275954  0.51264962  0.12288587  1
  O  O311  1  -0.00649272  0.50720134  0.60743207  1
  O  O312  1  0.52045269  -0.00373877  0.10776507  1
  O  O313  1  0.52644492  -0.02188178  0.62968269  1
  O  O314  1  0.50268900  0.50498136  0.11114626  1
  O  O315  1  0.51771058  0.49254124  0.61876197  1
  O  O316  1  0.23836841  0.37298203  0.26755334  1
  O  O317  1  0.23046493  0.37191197  0.75336434  1
  O  O318  1  0.25085818  0.86504338  0.23029021  1
  O  O319  1  0.23606154  0.89204645  0.74710477  1
  O  O320  1  0.73408687  0.36167271  0.24454675  1
  O  O321  1  0.75150165  0.38343534  0.74658063  1
  O  O322  1  0.75099799  0.86951346  0.23631574  1
  O  O323  1  0.74685856  0.89486596  0.75915509  1
  O  O324  1  0.25794442  0.11821447  0.23192672  1
  O  O325  1  0.26231767  0.12684303  0.74369359  1
  O  O326  1  0.26318847  0.63697851  0.24939735  1
  O  O327  1  0.27300030  0.61743914  0.73527140  1
  O  O328  1  0.75794686  0.13027426  0.26213383  1
  O  O329  1  0.75746885  0.12767521  0.75934422  1
  O  O330  1  0.76034822  0.63522669  0.24932826  1
  O  O331  1  0.76020403  0.61806440  0.75738248  1
  O  O332  1  0.35741691  0.12395831  0.33717947  1
  O  O333  1  0.39609280  0.09824905  0.84262728  1
  O  O334  1  0.38426298  0.61180426  0.36860906  1
  O  O335  1  0.35753947  0.62987371  0.86535169  1
  O  O336  1  0.87300244  0.10773148  0.37990642  1
  O  O337  1  0.88373989  0.12916674  0.86482747  1
  O  O338  1  0.87191275  0.63264673  0.36448476  1
  O  O339  1  0.87069160  0.61628217  0.86880080  1
  O  O340  1  0.13404764  0.38810550  0.14060495  1
  O  O341  1  0.12054524  0.37387798  0.63345031  1
  O  O342  1  0.13175751  0.87577858  0.13073576  1
  O  O343  1  0.11251063  0.90927282  0.62588005  1
  O  O344  1  0.63486609  0.36257750  0.13751536  1
  O  O345  1  0.64024154  0.38427454  0.63529937  1
  O  O346  1  0.63707384  0.86242479  0.12294162  1
  O  O347  1  0.57839704  0.92602959  0.62149673  1
  O  O348  1  0.11200473  0.26439470  0.25313560  1
  O  O349  1  0.10489191  0.25909407  0.75122283  1
  O  O350  1  0.10284804  0.74862028  0.25780094  1
  O  O351  1  0.12356990  0.73060807  0.73649361  1
  O  O352  1  0.60737003  0.21595560  0.24731958  1
  O  O353  1  0.61598551  0.26297650  0.74283498  1
  O  O354  1  0.61144921  0.75274663  0.25524868  1
  O  O355  1  0.61543363  0.75378207  0.75408097  1
  O  O356  1  0.35823315  0.22849196  0.22180771  1
  O  O357  1  0.38704876  0.23739492  0.75284512  1
  O  O358  1  0.39790151  0.72845874  0.26260495  1
  O  O359  1  0.40079301  0.73000296  0.75413207  1
  O  O360  1  0.88801764  0.25339258  0.25063149  1
  O  O361  1  0.88901248  0.24630314  0.75666781  1
  O  O362  1  0.87900385  0.74621919  0.24156988  1
  O  O363  1  0.88923176  0.72964766  0.75371246  1
  O  O364  1  0.39113978  0.51237459  0.49031086  1
  O  O365  1  0.38664264  0.51118707  1.00309626  1
  O  O366  1  0.40795236  1.05609785  0.48208138  1
  O  O367  1  0.36890034  0.99382983  0.97097086  1
  O  O368  1  0.86558747  0.49046086  0.49597717  1
  O  O369  1  0.87474943  0.50604970  0.98821944  1
  O  O370  1  0.88917804  0.99147385  0.50135903  1
  O  O371  1  0.84466346  0.97093537  0.98444570  1
  O  O372  1  0.12673218  0.01569437  0.00074829  1
  O  O373  1  0.10549670  0.01061177  0.50998518  1
  O  O374  1  0.12910471  0.49112557  0.02389584  1
  O  O375  1  0.11571097  0.49528386  0.50075845  1
  O  O376  1  0.62367767  -0.00873115  0.00078516  1
  O  O377  1  0.61594904  0.01761906  0.49410760  1
  O  O378  1  0.62553294  0.50414555  0.00176483  1
  O  O379  1  0.62597680  0.49371407  0.51427419  1
  O  O380  1  0.37408068  0.37470978  0.13611104  1
  O  O381  1  0.35096864  0.39928401  0.62760578  1
  O  O382  1  0.36428743  0.86224224  0.12177706  1
  O  O383  1  0.39619463  0.85517411  0.60470175  1
  O  O384  1  0.84879917  0.37836863  0.13596680  1
  O  O385  1  0.86535162  0.38517638  0.61756747  1
  O  O386  1  0.86152845  0.86349919  0.11607914  1
  O  O387  1  0.88694662  0.88358614  0.65315670  1
  O  O388  1  0.09992925  0.13579807  0.37138116  1
  O  O389  1  0.10681628  0.13020556  0.89274638  1
  O  O390  1  0.11508611  0.63621435  0.36930539  1
  O  O391  1  0.13742810  0.63130587  0.87126079  1
  O  O392  1  0.65730166  0.12274058  0.38740025  1
  O  O393  1  0.62077041  0.12890064  0.87486626  1
  O  O394  1  0.61515902  0.66175253  0.38993578  1
  O  O395  1  0.63921472  0.61311975  0.88693281  1
