# generated using pymatgen
data_V35Zn35O128
_symmetry_space_group_name_H-M   'P 1'
_cell_length_a   16.86217712
_cell_length_b   16.85804202
_cell_length_c   16.86258262
_cell_angle_alpha   89.93013318
_cell_angle_beta   89.95831800
_cell_angle_gamma   90.00088608
_symmetry_Int_Tables_number   1
_chemical_formula_structural   V35Zn35O128
_chemical_formula_sum   'V70 Zn70 O256'
_cell_volume   4793.40838528
_cell_formula_units_Z   2
loop_
 _symmetry_equiv_pos_site_id
 _symmetry_equiv_pos_as_xyz
  1  'x, y, z'
loop_
 _atom_site_type_symbol
 _atom_site_label
 _atom_site_symmetry_multiplicity
 _atom_site_fract_x
 _atom_site_fract_y
 _atom_site_fract_z
 _atom_site_occupancy
  V  V0  1  0.63071633  0.24413669  0.88592665  1
  V  V1  1  0.87155474  0.50126873  0.87880812  1
  V  V2  1  0.86535350  0.36602893  0.01198476  1
  V  V3  1  0.37972565  -0.02419135  0.87050873  1
  V  V4  1  0.62992848  -0.00230151  0.13899677  1
  V  V5  1  0.11668118  0.36861496  0.25607956  1
  V  V6  1  0.87817603  0.74343691  0.12064201  1
  V  V7  1  -0.00536794  0.12367685  0.13046408  1
  V  V8  1  0.86206312  0.26150537  0.61403603  1
  V  V9  1  0.12022792  0.76374119  0.87047595  1
  V  V10  1  0.62056478  0.01159482  0.61576987  1
  V  V11  1  0.75868633  0.76164272  0.49692594  1
  V  V12  1  0.49447929  -0.00729299  0.50059594  1
  V  V13  1  0.50940756  0.76140709  0.25151841  1
  V  V14  1  0.10998983  -0.00941902  0.62420534  1
  V  V15  1  0.50770665  0.61276582  0.12095521  1
  V  V16  1  0.25370906  0.49897756  0.24984954  1
  V  V17  1  0.50965638  0.24588453  0.24712672  1
  V  V18  1  0.38177260  0.75694130  0.12211245  1
  V  V19  1  0.63091027  0.62859796  -0.00259757  1
  V  V20  1  0.23670245  0.87472587  0.13302980  1
  V  V21  1  0.13015143  0.75754443  0.38255053  1
  V  V22  1  0.74407144  0.62219178  0.37160072  1
  V  V23  1  0.24352841  0.62450851  0.37901108  1
  V  V24  1  0.00895036  0.76026826  0.25381654  1
  V  V25  1  0.62359204  0.24639262  0.40064260  1
  V  V26  1  0.00907729  0.51758402  0.51009216  1
  V  V27  1  0.88131347  0.62621894  0.26207755  1
  V  V28  1  0.87905441  0.63579845  0.73969041  1
  V  V29  1  -0.01687935  0.37748993  0.38158245  1
  V  V30  1  0.75088595  0.87362908  0.13857610  1
  V  V31  1  0.74927031  0.63990522  0.88041360  1
  V  V32  1  0.48698281  0.74228298  0.74706859  1
  V  V33  1  0.25907821  0.75836213  0.00157835  1
  V  V34  1  0.48773075  0.38403886  0.37128140  1
  V  V35  1  0.24424501  0.24633067  -0.00774457  1
  V  V36  1  0.11930773  0.50433159  0.12498970  1
  V  V37  1  0.62347185  0.86573624  0.75830812  1
  V  V38  1  0.48668646  0.11592115  0.12441821  1
  V  V39  1  0.87954310  0.87918777  -0.00423658  1
  V  V40  1  0.49291344  -0.01677639  -0.00537143  1
  V  V41  1  0.76049339  0.88483686  0.61570280  1
  V  V42  1  0.00234175  0.37277842  0.86349479  1
  V  V43  1  0.26869613  0.85817114  0.61389756  1
  V  V44  1  0.62797758  0.37250984  0.74488163  1
  V  V45  1  0.87824130  0.13194902  0.75491087  1
  V  V46  1  0.25450118  -0.00599754  0.74211198  1
  V  V47  1  0.37700461  0.38464750  -0.00170536  1
  V  V48  1  0.26809112  0.61833701  0.88343242  1
  V  V49  1  0.50355856  0.38600271  0.88609169  1
  V  V50  1  0.37289919  0.60069992  0.74016955  1
  V  V51  1  0.74542308  0.00550682  0.76978252  1
  V  V52  1  0.38354461  -0.02261609  0.36940050  1
  V  V53  1  0.00163512  0.50189551  0.00343956  1
  V  V54  1  0.11571529  0.23907402  0.86102125  1
  V  V55  1  0.85058299  0.39565622  0.50319562  1
  V  V56  1  0.74378144  0.49638108  0.74747601  1
  V  V57  1  0.25720346  0.12952151  0.37511077  1
  V  V58  1  0.49600143  0.51010395  0.50852064  1
  V  V59  1  0.75115094  0.12025129  0.36983349  1
  V  V60  1  0.62346152  0.76955268  0.37582537  1
  V  V61  1  0.36774469  0.23815191  0.12718524  1
  V  V62  1  0.75054500  0.48790833  0.24702729  1
  V  V63  1  0.23956542  -0.00555057  0.25420851  1
  V  V64  1  0.24501620  0.37263893  0.11997240  1
  V  V65  1  0.89573170  -0.00364415  0.87223533  1
  V  V66  1  0.12377570  0.62638395  0.00148555  1
  V  V67  1  0.63121732  0.11805519  -0.00227665  1
  V  V68  1  0.38059808  0.61963147  0.25478416  1
  V  V69  1  0.27254073  0.13384861  0.86178918  1
  Zn  Zn70  1  -0.00535616  0.13460611  0.62428307  1
  Zn  Zn71  1  0.63229365  0.48372157  0.12660589  1
  Zn  Zn72  1  0.12267173  0.11895047  0.50035820  1
  Zn  Zn73  1  0.12176677  0.24742404  0.39117127  1
  Zn  Zn74  1  0.49045934  0.22883132  0.75788610  1
  Zn  Zn75  1  0.61636564  0.62728396  0.51612520  1
  Zn  Zn76  1  0.19196095  0.18595048  0.19388706  1
  Zn  Zn77  1  0.17530209  0.17622437  0.68983837  1
  Zn  Zn78  1  0.19019641  0.68661085  0.18822392  1
  Zn  Zn79  1  0.20106283  0.68706470  0.69855363  1
  Zn  Zn80  1  0.71966117  0.23668299  0.20362107  1
  Zn  Zn81  1  0.68726360  0.18835660  0.69436847  1
  Zn  Zn82  1  0.69042078  0.69004203  0.18875359  1
  Zn  Zn83  1  0.69266735  0.69033567  0.68111638  1
  Zn  Zn84  1  0.30986486  0.31015066  0.30898973  1
  Zn  Zn85  1  0.31224642  0.33670282  0.80228021  1
  Zn  Zn86  1  0.31561583  0.80450479  0.31063831  1
  Zn  Zn87  1  0.30734469  0.80429374  0.80691120  1
  Zn  Zn88  1  0.82196857  0.28648889  0.32330875  1
  Zn  Zn89  1  0.80961321  0.31361992  0.82821915  1
  Zn  Zn90  1  0.82587214  0.82176708  0.32193810  1
  Zn  Zn91  1  0.81206701  0.81904514  0.80684883  1
  Zn  Zn92  1  0.17709070  0.45146389  0.43409467  1
  Zn  Zn93  1  0.20283122  0.42188170  0.90032552  1
  Zn  Zn94  1  0.19001478  0.93973458  0.44239414  1
  Zn  Zn95  1  0.18526808  0.94247662  0.94278760  1
  Zn  Zn96  1  0.66852853  0.43444347  0.42207798  1
  Zn  Zn97  1  0.68422745  0.44461385  0.94394194  1
  Zn  Zn98  1  0.69212057  0.95106743  0.43008340  1
  Zn  Zn99  1  0.68854059  0.92452279  0.94770067  1
  Zn  Zn100  1  0.29377608  0.04974296  0.04887982  1
  Zn  Zn101  1  0.31537000  0.05764137  0.54914621  1
  Zn  Zn102  1  0.31281677  0.56661043  0.06760179  1
  Zn  Zn103  1  0.32476611  0.55906592  0.54647879  1
  Zn  Zn104  1  0.80857220  0.05201397  0.05793495  1
  Zn  Zn105  1  0.81003162  0.07349995  0.56065957  1
  Zn  Zn106  1  0.81037969  0.55987302  0.06518658  1
  Zn  Zn107  1  0.78756149  0.57291049  0.56890592  1
  Zn  Zn108  1  0.43600973  0.43036040  0.18541353  1
  Zn  Zn109  1  0.45327609  0.44110583  0.69819992  1
  Zn  Zn110  1  0.43311129  0.93942920  0.18776207  1
  Zn  Zn111  1  0.44405928  0.93487145  0.68854983  1
  Zn  Zn112  1  0.93242207  0.44086275  0.19168315  1
  Zn  Zn113  1  0.93110433  0.44526218  0.68412306  1
  Zn  Zn114  1  0.93981647  0.92822759  0.18878217  1
  Zn  Zn115  1  0.92476799  0.91039945  0.49747179  1
  Zn  Zn116  1  0.06735095  0.06254476  0.31073196  1
  Zn  Zn117  1  0.06532211  0.05754146  0.80429395  1
  Zn  Zn118  1  0.05658485  0.56120794  0.31859897  1
  Zn  Zn119  1  0.05962803  0.57811252  0.82090524  1
  Zn  Zn120  1  0.56133065  0.06788809  0.31635102  1
  Zn  Zn121  1  0.55827330  0.06114201  0.80948616  1
  Zn  Zn122  1  0.56981236  0.56368115  0.31018904  1
  Zn  Zn123  1  0.56005244  0.56707585  0.81369113  1
  Zn  Zn124  1  0.44577736  0.16943607  0.43203380  1
  Zn  Zn125  1  0.44375532  0.19178727  0.94323051  1
  Zn  Zn126  1  0.43860056  0.69283614  0.44133310  1
  Zn  Zn127  1  0.45015429  0.69557002  0.93426944  1
  Zn  Zn128  1  0.92567434  0.18941823  0.43939497  1
  Zn  Zn129  1  0.92916942  0.18984353  0.93409702  1
  Zn  Zn130  1  0.97078435  0.72584885  0.47257587  1
  Zn  Zn131  1  0.93805181  0.69095685  0.93451363  1
  Zn  Zn132  1  0.06268366  0.31910765  0.05266598  1
  Zn  Zn133  1  0.03672995  0.30344179  0.55467970  1
  Zn  Zn134  1  0.05955909  0.80933402  0.05895002  1
  Zn  Zn135  1  0.10140411  0.82026232  0.55833143  1
  Zn  Zn136  1  0.55483447  0.30180656  0.06118751  1
  Zn  Zn137  1  0.55282593  0.33184984  0.55966408  1
  Zn  Zn138  1  0.56945580  0.80946106  0.06455256  1
  Zn  Zn139  1  0.56457953  0.81547594  0.57171967  1
  O  O140  1  0.09965284  0.12647906  0.12999956  1
  O  O141  1  0.11109298  0.10919320  0.62488957  1
  O  O142  1  0.13302802  0.61563448  0.11382257  1
  O  O143  1  0.14330495  0.58007595  0.66493759  1
  O  O144  1  0.61071678  0.10538432  0.11156333  1
  O  O145  1  0.63122902  0.11041991  0.63230801  1
  O  O146  1  0.61639705  0.62669656  0.12275387  1
  O  O147  1  0.67905168  0.61014656  0.60773865  1
  O  O148  1  0.38829509  0.35935966  0.37153308  1
  O  O149  1  0.38956607  0.37113501  0.88885646  1
  O  O150  1  0.37738184  0.87781808  0.37263468  1
  O  O151  1  0.37030208  0.87774611  0.87564081  1
  O  O152  1  0.87773790  0.37256005  0.38768932  1
  O  O153  1  0.88432636  0.38423054  0.88526221  1
  O  O154  1  0.88067850  0.88728338  0.39416481  1
  O  O155  1  0.86964346  0.88190584  0.88594346  1
  O  O156  1  0.26146816  -0.00329263  0.36611530  1
  O  O157  1  0.26778706  0.01359629  0.86507622  1
  O  O158  1  0.24525233  0.50980632  0.35864721  1
  O  O159  1  0.25391817  0.52172590  0.90101650  1
  O  O160  1  0.74875647  0.01809818  0.35953173  1
  O  O161  1  0.74568479  -0.00172354  0.86962017  1
  O  O162  1  0.74345103  0.51822458  0.36708175  1
  O  O163  1  0.76036552  0.50687362  0.87485251  1
  O  O164  1  0.23934622  0.49325739  0.12940674  1
  O  O165  1  0.27687236  0.44203164  0.57432268  1
  O  O166  1  0.26311346  0.98289865  0.14407521  1
  O  O167  1  0.26668764  1.00721491  0.63945133  1
  O  O168  1  0.75343092  0.49809910  0.14093945  1
  O  O169  1  0.75777683  0.48735309  0.65116076  1
  O  O170  1  0.73708066  0.99494452  0.12943687  1
  O  O171  1  0.74013479  0.99605469  0.61888288  1
  O  O172  1  0.00787941  0.38518637  0.26472299  1
  O  O173  1  -0.01051993  0.38265534  0.76508094  1
  O  O174  1  0.00053343  0.86052273  0.25385940  1
  O  O175  1  -0.00543810  0.83218197  0.72824063  1
  O  O176  1  0.49034376  0.35150784  0.24931129  1
  O  O177  1  0.51802824  0.37874608  0.77078634  1
  O  O178  1  0.49855824  0.85946537  0.24372600  1
  O  O179  1  0.51468634  0.85985424  0.74787573  1
  O  O180  1  0.49788999  0.12977651  0.23366727  1
  O  O181  1  0.49848826  0.12074803  0.73929662  1
  O  O182  1  0.49772973  0.63025229  0.23991069  1
  O  O183  1  0.48120444  0.62213573  0.75044378  1
  O  O184  1  0.99399099  0.13290543  0.23437743  1
  O  O185  1  0.98124609  0.11448329  0.74589873  1
  O  O186  1  0.98624766  0.62970072  0.25495174  1
  O  O187  1  0.97904636  0.62325924  0.75736014  1
  O  O188  1  0.36646418  0.25700136  0.00816343  1
  O  O189  1  0.37433597  0.21971963  0.52796054  1
  O  O190  1  0.37188908  0.74231707  0.01018170  1
  O  O191  1  0.37380177  0.76810522  0.48795922  1
  O  O192  1  0.87333922  0.26503443  -0.00422384  1
  O  O193  1  0.86331177  0.26375922  0.51048912  1
  O  O194  1  0.87946200  0.75746317  0.01394845  1
  O  O195  1  0.85613200  0.75494357  0.48910643  1
  O  O196  1  0.10799778  0.23365533  0.50514282  1
  O  O197  1  0.13780969  0.25670648  0.98886979  1
  O  O198  1  0.12875576  0.73794607  0.48168959  1
  O  O199  1  0.13546162  0.74332755  0.99834986  1
  O  O200  1  0.60762326  0.25003264  0.50017453  1
  O  O201  1  0.61621714  0.22973101  0.99628754  1
  O  O202  1  0.62793103  0.75010788  0.48491770  1
  O  O203  1  0.62539986  0.73030362  1.00569688  1
  O  O204  1  0.48740259  0.23650077  0.12917436  1
  O  O205  1  0.47775721  0.28217907  0.64005405  1
  O  O206  1  0.49976259  0.74158475  0.13408735  1
  O  O207  1  0.52670044  0.73835068  0.64989266  1
  O  O208  1  0.99319784  0.22865499  0.12127986  1
  O  O209  1  0.97109576  0.25178337  0.63257723  1
  O  O210  1  0.98664842  0.75358872  0.13614071  1
  O  O211  1  1.00432522  0.78368630  0.67526435  1
  O  O212  1  -0.00017379  0.27262973  0.38514767  1
  O  O213  1  0.00660787  0.25929549  0.88084211  1
  O  O214  1  0.01844194  0.74407530  0.36260558  1
  O  O215  1  0.01974681  0.75169584  0.88454513  1
  O  O216  1  0.50391865  0.23913995  0.35867277  1
  O  O217  1  0.50915105  0.25938686  0.87415511  1
  O  O218  1  0.51289374  0.74543345  0.36097094  1
  O  O219  1  0.51271378  0.73671606  0.84857381  1
  O  O220  1  0.24393381  0.11326064  0.47867647  1
  O  O221  1  0.26099187  0.13918317  0.97478966  1
  O  O222  1  0.25350122  0.61610466  0.47798139  1
  O  O223  1  0.24713818  0.63822026  1.00076701  1
  O  O224  1  0.75643971  0.12388365  0.47532124  1
  O  O225  1  0.73053591  0.11518474  1.00506827  1
  O  O226  1  0.75299134  0.64309042  0.47799285  1
  O  O227  1  0.74448201  0.62515138  0.99167423  1
  O  O228  1  0.26029379  0.36676627  -0.00345088  1
  O  O229  1  0.25921260  0.39975397  0.51355997  1
  O  O230  1  0.25351615  0.86402534  0.01608082  1
  O  O231  1  0.25594480  0.88147726  0.51604375  1
  O  O232  1  0.76748869  0.38660917  -0.00408823  1
  O  O233  1  0.75196983  0.39111560  0.49119768  1
  O  O234  1  0.76616832  0.88051786  0.01816667  1
  O  O235  1  0.74047116  0.87252129  0.50328089  1
  O  O236  1  0.13028730  0.49364198  0.24143620  1
  O  O237  1  0.12600994  0.53167765  0.72100936  1
  O  O238  1  0.13887793  0.98809215  0.25941059  1
  O  O239  1  0.14573540  1.00461677  0.73995738  1
  O  O240  1  0.64368849  0.49991385  0.24699405  1
  O  O241  1  0.63438373  0.48934358  0.76129116  1
  O  O242  1  0.61207242  0.99941436  0.23592413  1
  O  O243  1  0.63559122  0.99449787  0.74518869  1
  O  O244  1  0.37040057  -0.00485153  0.26473162  1
  O  O245  1  0.37450004  -0.00450604  0.76428047  1
  O  O246  1  0.36299069  0.50510072  0.23690572  1
  O  O247  1  0.37565494  0.50030705  0.75548782  1
  O  O248  1  0.90512445  0.00568293  0.27863661  1
  O  O249  1  0.86066313  0.00353811  0.76732857  1
  O  O250  1  0.86736335  0.51909832  0.24758057  1
  O  O251  1  0.86388571  0.50526447  0.76363250  1
  O  O252  1  0.12674699  0.37195364  0.36393242  1
  O  O253  1  0.10559792  0.36568855  0.87949876  1
  O  O254  1  0.13825507  0.85765905  0.37844386  1
  O  O255  1  0.13771082  0.86422568  0.88198960  1
  O  O256  1  0.60035157  0.35348194  0.37069728  1
  O  O257  1  0.61535473  0.36274163  0.89132433  1
  O  O258  1  0.62736165  0.86824056  0.37360709  1
  O  O259  1  0.63391744  0.88053426  0.85802983  1
  O  O260  1  0.37615833  0.12487752  0.10945567  1
  O  O261  1  0.35930667  0.17143968  0.58443544  1
  O  O262  1  0.38952129  0.63107660  0.13156080  1
  O  O263  1  0.35182348  0.60963954  0.64225692  1
  O  O264  1  0.88963545  0.11732543  0.12824199  1
  O  O265  1  0.86881751  0.13772725  0.64118905  1
  O  O266  1  0.86678831  0.64101031  0.13237136  1
  O  O267  1  0.86511976  0.62028912  0.64128887  1
  O  O268  1  0.24884265  0.24961708  0.11373586  1
  O  O269  1  0.21613576  0.28961334  0.63370970  1
  O  O270  1  0.25992171  0.75700495  0.12335449  1
  O  O271  1  0.24400860  0.75896756  0.62438293  1
  O  O272  1  0.70284429  0.31828415  0.12109394  1
  O  O273  1  0.76515246  0.25362616  0.64382495  1
  O  O274  1  0.76285325  0.76336017  0.13238021  1
  O  O275  1  0.74683384  0.77045351  0.60612680  1
  O  O276  1  0.24469276  0.23298759  0.36434965  1
  O  O277  1  0.24033407  0.24341622  0.87008730  1
  O  O278  1  0.24014917  0.73394668  0.35925415  1
  O  O279  1  0.24822790  0.74267430  0.88760108  1
  O  O280  1  0.72258959  0.25984398  0.38251231  1
  O  O281  1  0.72992012  0.25052351  0.88314023  1
  O  O282  1  0.73892750  0.75514488  0.37703580  1
  O  O283  1  0.75382111  0.73798003  0.87541981  1
  O  O284  1  -0.00530279  0.11909672  0.02454589  1
  O  O285  1  -0.03180952  0.09885518  0.50480803  1
  O  O286  1  0.01140238  0.61474349  -0.00802909  1
  O  O287  1  -0.01082161  0.61553858  0.49156783  1
  O  O288  1  0.50276209  0.11197851  0.00782514  1
  O  O289  1  0.50027890  0.09855456  0.49923405  1
  O  O290  1  0.50936088  0.62634701  0.01417343  1
  O  O291  1  0.50138049  0.61999206  0.50082204  1
  O  O292  1  0.49694705  0.39210015  0.47982972  1
  O  O293  1  0.48802047  0.37118976  0.99902062  1
  O  O294  1  0.50893935  0.88927305  0.50402997  1
  O  O295  1  0.50367267  0.88432763  1.00326076  1
  O  O296  1  0.98669250  0.38984892  0.49413001  1
  O  O297  1  0.99067551  0.38656493  0.99244933  1
  O  O298  1  0.99648452  0.82614000  0.52286180  1
  O  O299  1  0.98033574  0.87753871  1.01081543  1
  O  O300  1  0.49536767  0.48166045  0.34535135  1
  O  O301  1  0.50948020  0.48543017  0.88367028  1
  O  O302  1  0.49037941  0.99788867  0.37884524  1
  O  O303  1  0.48929705  0.99633739  0.88278992  1
  O  O304  1  1.00283824  0.48633015  0.38728985  1
  O  O305  1  0.99535342  0.49316794  0.88182571  1
  O  O306  1  0.95624268  1.01953540  0.33294550  1
  O  O307  1  0.99453418  0.98813455  0.86512108  1
  O  O308  1  -0.00097486  0.01883083  0.13696877  1
  O  O309  1  0.01488851  -0.02198548  0.63621198  1
  O  O310  1  0.00960328  0.49737203  0.11760964  1
  O  O311  1  -0.00637071  0.50115216  0.60994611  1
  O  O312  1  0.50148402  -0.00200641  0.11320308  1
  O  O313  1  0.51065739  -0.00268487  0.61736198  1
  O  O314  1  0.50648503  0.50955438  0.13400502  1
  O  O315  1  0.49770993  0.48814930  0.60828560  1
  O  O316  1  0.23930963  0.38101171  0.24268697  1
  O  O317  1  0.23002878  0.40522984  0.79032337  1
  O  O318  1  0.25145756  0.87508842  0.24067199  1
  O  O319  1  0.25670086  0.88958018  0.74346096  1
  O  O320  1  0.76489452  0.39268014  0.26905511  1
  O  O321  1  0.73708218  0.38463095  0.76957591  1
  O  O322  1  0.76547758  0.87973830  0.23770148  1
  O  O323  1  0.75063909  0.89098746  0.73642615  1
  O  O324  1  0.24315997  0.10547331  0.25780394  1
  O  O325  1  0.25246350  0.12060403  0.75746007  1
  O  O326  1  0.26120514  0.61545875  0.24707026  1
  O  O327  1  0.26677404  0.62576066  0.77321849  1
  O  O328  1  0.73349254  0.14095680  0.26136176  1
  O  O329  1  0.75777167  0.10989332  0.75241182  1
  O  O330  1  0.75903691  0.62706501  0.25747210  1
  O  O331  1  0.75142020  0.61312810  0.76661830  1
  O  O332  1  0.36077541  0.11677178  0.37274064  1
  O  O333  1  0.37252922  0.13981339  0.86262047  1
  O  O334  1  0.36587913  0.63204582  0.35834574  1
  O  O335  1  0.37068303  0.62662064  0.88159801  1
  O  O336  1  0.85025987  0.16929892  0.35804757  1
  O  O337  1  0.88312085  0.10706795  0.87110272  1
  O  O338  1  0.86117031  0.63649662  0.36187370  1
  O  O339  1  0.86397388  0.62068902  0.87570417  1
  O  O340  1  0.12462521  0.38219597  0.13250996  1
  O  O341  1  0.16195237  0.34048009  0.62987763  1
  O  O342  1  0.13793613  0.86982558  0.12346619  1
  O  O343  1  0.15110713  0.88957627  0.63099263  1
  O  O344  1  0.63332991  0.36020159  0.12324367  1
  O  O345  1  0.62327433  0.36862066  0.64654456  1
  O  O346  1  0.63882692  0.88450928  0.12149653  1
  O  O347  1  0.63430012  0.89021882  0.63757578  1
  O  O348  1  0.12524950  0.26744733  0.24555800  1
  O  O349  1  0.11918255  0.24814781  0.76148201  1
  O  O350  1  0.11214115  0.74441047  0.24665482  1
  O  O351  1  0.13443197  0.74402360  0.77164947  1
  O  O352  1  0.60803235  0.24667965  0.23830532  1
  O  O353  1  0.62543753  0.26045145  0.76666117  1
  O  O354  1  0.61704708  0.75253125  0.25564235  1
  O  O355  1  0.64882506  0.76744660  0.74996049  1
  O  O356  1  0.37030067  0.24533912  0.23047085  1
  O  O357  1  0.37914195  0.27673387  0.73075373  1
  O  O358  1  0.38926708  0.73964546  0.24230876  1
  O  O359  1  0.38337151  0.74149998  0.74575243  1
  O  O360  1  0.83103550  0.25393150  0.21374648  1
  O  O361  1  0.86788467  0.23201007  0.77062071  1
  O  O362  1  0.88533369  0.74492690  0.24509754  1
  O  O363  1  0.86199018  0.73543128  0.75070319  1
  O  O364  1  0.39803052  0.50943776  0.47669336  1
  O  O365  1  0.37181168  0.48310075  1.01210491  1
  O  O366  1  0.38447639  0.99263868  0.48616170  1
  O  O367  1  0.38369000  0.99915611  0.98506830  1
  O  O368  1  0.86705670  0.49591173  0.50658636  1
  O  O369  1  0.88479587  0.50313944  0.99433348  1
  O  O370  1  0.90968462  1.03434633  0.50258310  1
  O  O371  1  0.87484962  0.99243128  0.98457516  1
  O  O372  1  0.18373673  0.01990590  0.01843303  1
  O  O373  1  0.12289764  -0.00112162  0.51650718  1
  O  O374  1  0.11818888  0.50575464  0.00759592  1
  O  O375  1  0.11107547  0.50577194  0.50542060  1
  O  O376  1  0.61038689  0.00361075  -0.00289684  1
  O  O377  1  0.61940610  -0.00088310  0.51049671  1
  O  O378  1  0.63135086  0.51727720  0.01455970  1
  O  O379  1  0.60082952  0.50990816  0.47332511  1
  O  O380  1  0.36609304  0.36290332  0.11505994  1
  O  O381  1  0.40453808  0.31825741  0.65883767  1
  O  O382  1  0.37226891  0.85986261  0.12841001  1
  O  O383  1  0.36767233  0.87192894  0.63225559  1
  O  O384  1  0.88263461  0.37976630  0.11146516  1
  O  O385  1  0.86853999  0.37260380  0.61356293  1
  O  O386  1  0.86771180  0.87347466  0.11931575  1
  O  O387  1  0.85805223  0.89471704  0.60569145  1
  O  O388  1  0.12986240  0.12524024  0.37695235  1
  O  O389  1  0.12194761  0.13621540  0.87138159  1
  O  O390  1  0.13942881  0.62774062  0.36366741  1
  O  O391  1  0.13858013  0.63231119  0.88792514  1
  O  O392  1  0.62951390  0.13886549  0.37520602  1
  O  O393  1  0.61699697  0.13197801  0.88632264  1
  O  O394  1  0.63842747  0.64058520  0.36690374  1
  O  O395  1  0.63669544  0.61856762  0.88721778  1
