# generated using pymatgen
data_V35Zn35O128
_symmetry_space_group_name_H-M   'P 1'
_cell_length_a   16.86026551
_cell_length_b   16.84704667
_cell_length_c   16.87856711
_cell_angle_alpha   90.02440731
_cell_angle_beta   89.78619376
_cell_angle_gamma   90.00011557
_symmetry_Int_Tables_number   1
_chemical_formula_structural   V35Zn35O128
_chemical_formula_sum   'V70 Zn70 O256'
_cell_volume   4794.25025834
_cell_formula_units_Z   2
loop_
 _symmetry_equiv_pos_site_id
 _symmetry_equiv_pos_as_xyz
  1  'x, y, z'
loop_
 _atom_site_type_symbol
 _atom_site_label
 _atom_site_symmetry_multiplicity
 _atom_site_fract_x
 _atom_site_fract_y
 _atom_site_fract_z
 _atom_site_occupancy
  V  V0  1  0.86245599  0.35413620  0.50928374  1
  V  V1  1  0.61945905  0.23814148  0.87912611  1
  V  V2  1  0.13835874  0.63000770  0.48433458  1
  V  V3  1  0.62234531  0.12539483  0.50179407  1
  V  V4  1  0.12635520  0.24879724  0.86606410  1
  V  V5  1  0.37187105  0.75805863  0.64051516  1
  V  V6  1  0.37209075  0.87282545  0.00159851  1
  V  V7  1  0.00344269  0.27047645  0.74863992  1
  V  V8  1  0.24919511  0.26129000  0.50020880  1
  V  V9  1  0.88435097  0.75140510  0.13240133  1
  V  V10  1  0.20329255  -0.01150407  0.71582053  1
  V  V11  1  0.37292447  0.50064769  0.34865128  1
  V  V12  1  0.50722974  0.62599300  0.10996970  1
  V  V13  1  0.76018303  -0.00229891  0.25513106  1
  V  V14  1  0.00390609  0.37393898  0.38493866  1
  V  V15  1  0.01749607  0.86701439  0.88076440  1
  V  V16  1  0.62852022  -0.01000151  0.62782905  1
  V  V17  1  0.61987052  0.24693782  0.37592992  1
  V  V18  1  0.74109100  0.77334991  0.50484673  1
  V  V19  1  0.25080326  -0.00433191  0.23949106  1
  V  V20  1  0.01021988  0.75524082  0.75278513  1
  V  V21  1  -0.00208917  0.25291032  0.23653556  1
  V  V22  1  0.39113993  0.00200181  0.38166267  1
  V  V23  1  0.86938269  0.62289327  0.25131179  1
  V  V24  1  0.62003083  0.37035009  0.24530232  1
  V  V25  1  0.74175082  0.49599534  0.24769465  1
  V  V26  1  0.87358660  0.13709444  0.74131102  1
  V  V27  1  0.39313701  0.24912469  0.12355752  1
  V  V28  1  0.25042788  0.73742703  -0.01056005  1
  V  V29  1  0.50917508  0.73923276  0.74854760  1
  V  V30  1  0.51482833  0.00203587  0.00519110  1
  V  V31  1  0.24134491  0.13248257  0.36716135  1
  V  V32  1  0.74786217  0.12401271  0.88488208  1
  V  V33  1  0.00330150  0.02246164  -0.00112008  1
  V  V34  1  0.38765726  0.13349745  0.24478279  1
  V  V35  1  0.60227477  0.86556910  0.28783117  1
  V  V36  1  -0.01205467  -0.00505655  0.48456976  1
  V  V37  1  0.74894820  0.87275222  0.12860309  1
  V  V38  1  0.48887065  0.11297957  0.62542300  1
  V  V39  1  0.61789812  0.49210696  0.62262321  1
  V  V40  1  0.88057155  0.86731958  0.00099931  1
  V  V41  1  0.00575877  0.62217676  0.12328643  1
  V  V42  1  0.86715104  0.50006281  0.38887415  1
  V  V43  1  0.49244325  0.37232121  0.38623501  1
  V  V44  1  0.49297906  0.24500893  0.74866697  1
  V  V45  1  0.76296305  0.13133259  0.38462488  1
  V  V46  1  0.10900612  0.86981355  0.25168494  1
  V  V47  1  -0.00508834  0.62790304  0.61243509  1
  V  V48  1  0.38496437  0.74582126  0.13798603  1
  V  V49  1  0.86197381  0.62542763  0.75570112  1
  V  V50  1  0.86895019  0.35650133  0.02705873  1
  V  V51  1  -0.00106600  0.12756217  0.62389478  1
  V  V52  1  0.36790439  0.01325802  0.86653288  1
  V  V53  1  0.87728756  0.13348340  0.23200021  1
  V  V54  1  0.37051899  0.50860353  0.86937446  1
  V  V55  1  0.12089347  0.01475163  0.11977554  1
  V  V56  1  0.86934544  0.79526348  0.62924098  1
  V  V57  1  0.36626280  0.25729179  0.62319890  1
  V  V58  1  0.75750138  -0.01141282  0.74607054  1
  V  V59  1  0.62638679  0.50199265  0.10007507  1
  V  V60  1  0.12634661  0.37667330  0.25140610  1
  V  V61  1  0.50751293  0.87610425  0.86391565  1
  V  V62  1  0.37851322  0.37766389  -0.00551023  1
  V  V63  1  0.24347609  0.23547313  -0.00310784  1
  V  V64  1  0.12983022  0.50113880  0.11932870  1
  V  V65  1  0.24299819  0.47566446  0.75310378  1
  V  V66  1  0.25271510  0.37873981  0.12814016  1
  V  V67  1  0.12589133  0.49477927  0.62586449  1
  V  V68  1  0.50286206  0.37453845  0.87219430  1
  V  V69  1  0.12740281  0.12189044  0.50734870  1
  Zn  Zn70  1  0.64004853  0.73336575  0.86932927  1
  Zn  Zn71  1  0.73966226  0.72515808  -0.00012185  1
  Zn  Zn72  1  0.88193242  0.00268983  0.87281734  1
  Zn  Zn73  1  0.62729726  0.00744407  0.12077674  1
  Zn  Zn74  1  0.00216966  0.48422148  -0.00973962  1
  Zn  Zn75  1  0.87663161  0.47850282  0.87729649  1
  Zn  Zn76  1  0.18740600  0.19706437  0.18445093  1
  Zn  Zn77  1  0.19164153  0.17790800  0.69365097  1
  Zn  Zn78  1  0.17491157  0.71568117  0.14537101  1
  Zn  Zn79  1  0.17163630  0.69543053  0.68198866  1
  Zn  Zn80  1  0.68887114  0.18169133  0.18866998  1
  Zn  Zn81  1  0.67373427  0.17515183  0.70107265  1
  Zn  Zn82  1  0.64966532  0.66980878  0.21727291  1
  Zn  Zn83  1  0.69612045  0.70183766  0.66746852  1
  Zn  Zn84  1  0.31323864  0.31259823  0.31118417  1
  Zn  Zn85  1  0.31412887  0.30240100  0.81232841  1
  Zn  Zn86  1  0.32739917  0.82366863  0.30678000  1
  Zn  Zn87  1  0.30785098  0.82624510  0.81193501  1
  Zn  Zn88  1  0.81141212  0.31341705  0.31270247  1
  Zn  Zn89  1  0.75190804  0.35830089  0.89265334  1
  Zn  Zn90  1  0.76927272  0.78460454  0.30739258  1
  Zn  Zn91  1  0.82316643  0.79489674  0.82450727  1
  Zn  Zn92  1  0.18744245  0.45124458  0.43745932  1
  Zn  Zn93  1  0.18931230  0.43014174  0.93880245  1
  Zn  Zn94  1  0.17884824  0.94950544  0.42124161  1
  Zn  Zn95  1  0.19315440  0.94017920  0.94372722  1
  Zn  Zn96  1  0.69140177  0.42798778  0.43379131  1
  Zn  Zn97  1  0.70868307  0.55343893  0.92069669  1
  Zn  Zn98  1  0.68663391  0.94498239  0.43804735  1
  Zn  Zn99  1  0.69909020  0.91246623  0.92886603  1
  Zn  Zn100  1  0.32301998  0.05933169  0.06065440  1
  Zn  Zn101  1  0.30734299  0.05562528  0.56003298  1
  Zn  Zn102  1  0.31983560  0.56607091  0.06210046  1
  Zn  Zn103  1  0.29597986  0.60897754  0.59032772  1
  Zn  Zn104  1  0.81553517  0.05770744  0.06243662  1
  Zn  Zn105  1  0.81445941  0.05703910  0.56283318  1
  Zn  Zn106  1  0.81766052  0.54913077  0.06530967  1
  Zn  Zn107  1  0.80483327  0.57534757  0.57156919  1
  Zn  Zn108  1  0.44842838  0.43500751  0.18127345  1
  Zn  Zn109  1  0.42560160  0.43528709  0.68876030  1
  Zn  Zn110  1  0.44076120  0.93501874  0.18833785  1
  Zn  Zn111  1  0.42337636  0.93165569  0.68494505  1
  Zn  Zn112  1  0.93807462  0.43993547  0.18806464  1
  Zn  Zn113  1  0.93144612  0.44955004  0.68451629  1
  Zn  Zn114  1  0.93982898  0.94662979  0.18747877  1
  Zn  Zn115  1  0.98075653  0.95518506  0.69668794  1
  Zn  Zn116  1  0.06141728  0.06759811  0.30789325  1
  Zn  Zn117  1  0.07262667  0.06575774  0.81394389  1
  Zn  Zn118  1  0.05256868  0.55691670  0.30864317  1
  Zn  Zn119  1  0.05378034  0.55217087  0.80359497  1
  Zn  Zn120  1  0.57598057  0.06169680  0.29529481  1
  Zn  Zn121  1  0.55908043  0.05425785  0.80854535  1
  Zn  Zn122  1  0.53308465  0.55936347  0.30269060  1
  Zn  Zn123  1  0.55620293  0.56284838  0.81257975  1
  Zn  Zn124  1  0.43588949  0.18296783  0.43838714  1
  Zn  Zn125  1  0.44272755  0.18398434  0.94737264  1
  Zn  Zn126  1  0.41939733  0.65158752  0.46219932  1
  Zn  Zn127  1  0.44528165  0.69057879  0.93505054  1
  Zn  Zn128  1  0.94412504  0.19471985  0.43480294  1
  Zn  Zn129  1  0.92976117  0.20806363  0.92667379  1
  Zn  Zn130  1  0.88790199  0.69125784  0.44141489  1
  Zn  Zn131  1  0.95567817  0.65531678  0.92013881  1
  Zn  Zn132  1  0.06302538  0.31157909  0.05607420  1
  Zn  Zn133  1  0.06642471  0.30988141  0.56331655  1
  Zn  Zn134  1  0.06930959  0.82399002  0.07131856  1
  Zn  Zn135  1  0.03380863  0.79504950  0.53243968  1
  Zn  Zn136  1  0.60547683  0.28709136  0.07705870  1
  Zn  Zn137  1  0.55767290  0.30164341  0.56018533  1
  Zn  Zn138  1  0.56426395  0.81178701  0.05248865  1
  Zn  Zn139  1  0.55483827  0.80861391  0.56257233  1
  O  O140  1  0.12439109  0.11480049  0.13483307  1
  O  O141  1  0.11994661  0.12754497  0.61179137  1
  O  O142  1  0.11340658  0.61668641  0.13859939  1
  O  O143  1  0.11084039  0.62893789  0.60987073  1
  O  O144  1  0.62177732  0.09334826  0.19363153  1
  O  O145  1  0.61596382  0.12105386  0.61901433  1
  O  O146  1  0.62764787  0.60990977  0.11126574  1
  O  O147  1  0.61063038  0.59639075  0.62002101  1
  O  O148  1  0.38763800  0.37721636  0.36719040  1
  O  O149  1  0.37890609  0.37575692  0.87833083  1
  O  O150  1  0.36898844  0.90312775  0.37033448  1
  O  O151  1  0.38331790  0.88404213  0.88685051  1
  O  O152  1  0.87775855  0.38105362  0.39092964  1
  O  O153  1  0.86895110  0.36143322  0.89484769  1
  O  O154  1  0.91798425  0.84041159  0.36681884  1
  O  O155  1  0.88568146  0.87789046  0.89337053  1
  O  O156  1  0.25748282  0.01791643  0.36019351  1
  O  O157  1  0.26920028  0.00314704  0.89127587  1
  O  O158  1  0.27817816  0.49019892  0.38288021  1
  O  O159  1  0.25681167  0.49259530  0.86305469  1
  O  O160  1  0.74545868  0.01814606  0.36361000  1
  O  O161  1  0.74994096  0.01148879  0.86217392  1
  O  O162  1  0.76084595  0.49494801  0.36615076  1
  O  O163  1  0.75727454  0.46780706  0.86455684  1
  O  O164  1  0.24709353  0.48850295  0.11801747  1
  O  O165  1  0.23646940  0.52191007  0.64983402  1
  O  O166  1  0.24253137  1.01190151  0.13393624  1
  O  O167  1  0.23651230  0.99104175  0.61833513  1
  O  O168  1  0.73532321  0.49830464  0.13875803  1
  O  O169  1  0.72269259  0.49770704  0.62423226  1
  O  O170  1  0.75123342  0.99379514  0.13804493  1
  O  O171  1  0.74254043  1.00114264  0.63503860  1
  O  O172  1  0.00375079  0.36739578  0.25397106  1
  O  O173  1  -0.00579945  0.36848509  0.74314546  1
  O  O174  1  0.00846292  0.88388355  0.25078764  1
  O  O175  1  -0.00837883  0.86782040  0.77402673  1
  O  O176  1  0.51567418  0.37681937  0.25956912  1
  O  O177  1  0.48526623  0.35586734  0.75741200  1
  O  O178  1  0.50709041  0.86757314  0.25435042  1
  O  O179  1  0.49229240  0.87405732  0.76137484  1
  O  O180  1  0.48385323  0.13313528  0.25246066  1
  O  O181  1  0.50014514  0.13119107  0.73589549  1
  O  O182  1  0.53750935  0.63879303  0.22738733  1
  O  O183  1  0.49300831  0.63952310  0.75314970  1
  O  O184  1  0.98821269  0.14108313  0.25624982  1
  O  O185  1  0.98807636  0.11894298  0.74091431  1
  O  O186  1  0.98000592  0.61748554  0.24023963  1
  O  O187  1  0.99758616  0.64603032  0.74818120  1
  O  O188  1  0.36997972  0.25434441  0.01003225  1
  O  O189  1  0.36257840  0.24041917  0.51168354  1
  O  O190  1  0.37196236  0.75960216  -0.00452779  1
  O  O191  1  0.45472702  0.77088727  0.42371128  1
  O  O192  1  0.87830984  0.25386882  0.01335282  1
  O  O193  1  0.87850483  0.25448511  0.50936437  1
  O  O194  1  0.87725455  0.76386905  0.01139718  1
  O  O195  1  0.88098532  0.76286015  0.52990351  1
  O  O196  1  0.14123093  0.24037241  0.50394427  1
  O  O197  1  0.13968444  0.24591177  1.00063896  1
  O  O198  1  0.10721882  0.72793126  0.48285534  1
  O  O199  1  0.15257630  0.75545306  1.03005541  1
  O  O200  1  0.62515522  0.23762885  0.49150902  1
  O  O201  1  0.59326784  0.23574673  0.97542835  1
  O  O202  1  0.63989078  0.76869408  0.50235894  1
  O  O203  1  0.62735581  0.74575135  0.98805429  1
  O  O204  1  0.49115662  0.25711521  0.11739605  1
  O  O205  1  0.48791149  0.23996589  0.63178954  1
  O  O206  1  0.49667418  0.73912977  0.11611943  1
  O  O207  1  0.49198437  0.76087066  0.64371486  1
  O  O208  1  1.00335275  0.25136049  0.13821353  1
  O  O209  1  1.01175719  0.24119677  0.64038037  1
  O  O210  1  0.99140941  0.74247467  0.13038798  1
  O  O211  1  0.99283009  0.74561660  0.63355097  1
  O  O212  1  -0.00407339  0.26968292  0.36307822  1
  O  O213  1  0.01072167  0.25018101  0.85663120  1
  O  O214  1  -0.03787531  0.78208391  0.37908847  1
  O  O215  1  0.00342167  0.75674051  0.86754006  1
  O  O216  1  0.50883407  0.25534629  0.37607172  1
  O  O217  1  0.49268286  0.25010455  0.86156467  1
  O  O218  1  0.55002453  0.64060896  0.46245269  1
  O  O219  1  0.50321100  0.76136730  0.86269323  1
  O  O220  1  0.24007152  0.12700228  0.48793137  1
  O  O221  1  0.25783190  0.13783120  1.00817594  1
  O  O222  1  0.23902487  0.63246118  0.49139920  1
  O  O223  1  0.25903853  0.63600330  0.99358654  1
  O  O224  1  0.74418072  0.12146372  0.48869921  1
  O  O225  1  0.75169326  0.11326723  0.98305082  1
  O  O226  1  0.74052083  0.66616151  0.55924772  1
  O  O227  1  0.77010775  0.61764838  0.99043840  1
  O  O228  1  0.26199011  0.36445895  0.00839574  1
  O  O229  1  0.24378692  0.35956459  0.49521422  1
  O  O230  1  0.26919432  0.87341177  0.00572728  1
  O  O231  1  0.22740917  0.86178705  0.50402651  1
  O  O232  1  0.76379510  0.36832327  0.00721058  1
  O  O233  1  0.76195129  0.36597712  0.49757421  1
  O  O234  1  0.77443010  0.89598806  0.01953712  1
  O  O235  1  0.75836633  0.87389731  0.48951125  1
  O  O236  1  0.11654979  0.48559012  0.23565052  1
  O  O237  1  0.13416636  0.49571962  0.74805921  1
  O  O238  1  0.13666634  1.00164222  0.24416871  1
  O  O239  1  0.09688856  0.98665847  0.73093245  1
  O  O240  1  0.63444900  0.49142069  0.26072742  1
  O  O241  1  0.61682927  0.49169445  0.72703258  1
  O  O242  1  0.64401053  0.95956083  0.25924525  1
  O  O243  1  0.64135550  1.00635883  0.73767069  1
  O  O244  1  0.36551651  0.01708305  0.24185608  1
  O  O245  1  0.37737738  -0.00084427  0.76575641  1
  O  O246  1  0.37402595  0.49379124  0.24778743  1
  O  O247  1  0.35688018  0.49860198  0.75712474  1
  O  O248  1  0.87297520  0.02070633  0.24645471  1
  O  O249  1  0.86881566  0.01459892  0.75215933  1
  O  O250  1  0.85885362  0.50525446  0.25033938  1
  O  O251  1  0.88329431  0.52077467  0.76313631  1
  O  O252  1  0.11044864  0.39133399  0.36813961  1
  O  O253  1  0.12681310  0.35244021  0.88515480  1
  O  O254  1  0.13513799  0.87635520  0.35121183  1
  O  O255  1  0.11580222  0.87459935  0.88801474  1
  O  O256  1  0.61548323  0.36610256  0.37187815  1
  O  O257  1  0.60538327  0.35604752  0.87160930  1
  O  O258  1  0.60553989  0.87797805  0.38774243  1
  O  O259  1  0.60736731  0.88490773  0.86607096  1
  O  O260  1  0.37541260  0.13944637  0.13165933  1
  O  O261  1  0.38684625  0.12111904  0.61963030  1
  O  O262  1  0.39685924  0.62870579  0.12548448  1
  O  O263  1  0.39330294  0.67713772  0.56620362  1
  O  O264  1  0.87098172  0.13180525  0.13349755  1
  O  O265  1  0.87840057  0.12929510  0.63479408  1
  O  O266  1  0.88119341  0.62885890  0.13470158  1
  O  O267  1  0.89056479  0.61562272  0.64011186  1
  O  O268  1  0.25679688  0.26091431  0.11453827  1
  O  O269  1  0.25858320  0.23921053  0.61691166  1
  O  O270  1  0.28228562  0.73706222  0.11370871  1
  O  O271  1  0.27297007  0.71692763  0.64430955  1
  O  O272  1  0.70672772  0.24648004  0.10305742  1
  O  O273  1  0.74550534  0.27797463  0.65955679  1
  O  O274  1  0.76713308  0.76717496  0.11964212  1
  O  O275  1  0.76410606  0.79583158  0.62699721  1
  O  O276  1  0.26067719  0.23998654  0.38751776  1
  O  O277  1  0.24493867  0.24824044  0.88739025  1
  O  O278  1  0.25638194  0.73502406  0.35833437  1
  O  O279  1  0.24981444  0.76238726  0.89164892  1
  O  O280  1  0.73863220  0.23683181  0.36938447  1
  O  O281  1  0.72687106  0.24234552  0.87594880  1
  O  O282  1  0.77789174  0.73521332  0.40998039  1
  O  O283  1  0.73789721  0.79454964  0.89663771  1
  O  O284  1  -0.00487778  0.11890031  -0.01344751  1
  O  O285  1  0.01544904  0.13392089  0.50164627  1
  O  O286  1  -0.00202788  0.63337203  0.02369756  1
  O  O287  1  -0.01765217  0.62864990  0.51352748  1
  O  O288  1  0.50287639  0.10224329  0.00096180  1
  O  O289  1  0.50879426  0.12854698  0.51489572  1
  O  O290  1  0.50523086  0.62426728  0.00848569  1
  O  O291  1  0.41044833  0.51053400  0.50387159  1
  O  O292  1  0.49740787  0.36608914  0.48636062  1
  O  O293  1  0.48672099  0.36853926  0.98021404  1
  O  O294  1  0.46729048  0.82453023  0.47609834  1
  O  O295  1  0.49415429  0.87833709  0.98511693  1
  O  O296  1  0.99802115  0.36879724  0.48751644  1
  O  O297  1  0.98443202  0.37143605  1.00649181  1
  O  O298  1  1.01011310  0.89754933  0.50144432  1
  O  O299  1  0.99609019  0.87489542  0.99508401  1
  O  O300  1  0.49076676  0.48125086  0.37255943  1
  O  O301  1  0.48537727  0.48156041  0.85697608  1
  O  O302  1  0.48974784  1.01385017  0.36006810  1
  O  O303  1  0.49290506  0.99195725  0.88212457  1
  O  O304  1  0.97664492  0.48253531  0.36503820  1
  O  O305  1  0.98520029  0.54085374  0.89056817  1
  O  O306  1  1.00308113  1.01043760  0.38500002  1
  O  O307  1  1.00522690  0.98997735  0.88771156  1
  O  O308  1  0.00853894  0.00884143  0.11107277  1
  O  O309  1  -0.00230368  0.02378521  0.60352627  1
  O  O310  1  0.00684797  0.51145571  0.12317865  1
  O  O311  1  0.01721711  0.52021849  0.64078435  1
  O  O312  1  0.50852391  -0.01508692  0.11005524  1
  O  O313  1  0.50938811  0.00846051  0.63549631  1
  O  O314  1  0.51588364  0.50999863  0.12275254  1
  O  O315  1  0.51247788  0.48885443  0.62111135  1
  O  O316  1  0.23976072  0.36499321  0.23962726  1
  O  O317  1  0.24992405  0.37721397  0.74434925  1
  O  O318  1  0.25513916  0.89517694  0.24468771  1
  O  O319  1  0.24137240  0.90331526  0.75908247  1
  O  O320  1  0.73781751  0.38519442  0.25707689  1
  O  O321  1  0.75988510  0.33032480  0.70984727  1
  O  O322  1  0.77815045  0.88440150  0.23745754  1
  O  O323  1  0.76533882  0.89245083  0.75870769  1
  O  O324  1  0.25304077  0.13032261  0.25843766  1
  O  O325  1  0.22564925  0.08415614  0.74965236  1
  O  O326  1  0.24751930  0.67483583  0.31582548  1
  O  O327  1  0.20796941  0.63802943  0.79163138  1
  O  O328  1  0.76748679  0.12344965  0.25908926  1
  O  O329  1  0.76304564  0.12567402  0.75227727  1
  O  O330  1  0.75363758  0.61008258  0.25034334  1
  O  O331  1  0.76444507  0.63463489  0.73382188  1
  O  O332  1  0.36732756  0.12441544  0.35949207  1
  O  O333  1  0.38428038  0.11246519  0.88074628  1
  O  O334  1  0.39805218  0.60115833  0.36688429  1
  O  O335  1  0.38471000  0.60577740  0.87817408  1
  O  O336  1  0.86380076  0.13523011  0.37583215  1
  O  O337  1  0.86075292  0.12977712  0.86527006  1
  O  O338  1  0.88119266  0.60923074  0.36174628  1
  O  O339  1  0.86370956  0.66133345  0.85335786  1
  O  O340  1  0.13452410  0.38029208  0.12981500  1
  O  O341  1  0.12049199  0.39545122  0.61974875  1
  O  O342  1  0.12246977  0.90155378  0.13931059  1
  O  O343  1  0.18612093  0.84781678  0.56411926  1
  O  O344  1  0.61567579  0.38826990  0.13950141  1
  O  O345  1  0.61888417  0.38677871  0.62101490  1
  O  O346  1  0.64786502  0.87140613  0.12081845  1
  O  O347  1  0.61280479  0.89293278  0.61939440  1
  O  O348  1  0.11206784  0.26323029  0.24852962  1
  O  O349  1  0.12047597  0.25058025  0.75584954  1
  O  O350  1  0.12779643  0.77129062  0.23099912  1
  O  O351  1  0.10817720  0.76819993  0.74007642  1
  O  O352  1  0.63072402  0.26506481  0.25924097  1
  O  O353  1  0.60162247  0.24565669  0.75770456  1
  O  O354  1  0.65801317  0.77525380  0.26635985  1
  O  O355  1  0.61512506  0.74356636  0.74322839  1
  O  O356  1  0.37147132  0.24481761  0.23385254  1
  O  O357  1  0.37689911  0.24082690  0.73459874  1
  O  O358  1  0.38153800  0.75328046  0.23711240  1
  O  O359  1  0.38349086  0.75754652  0.74651869  1
  O  O360  1  0.88327869  0.24484750  0.25061682  1
  O  O361  1  0.89510446  0.23881365  0.75235892  1
  O  O362  1  0.85820728  0.73026283  0.24527984  1
  O  O363  1  0.88232455  0.75179537  0.73320282  1
  O  O364  1  0.36658018  0.50587391  0.56468118  1
  O  O365  1  0.36672129  0.48818758  0.98257610  1
  O  O366  1  0.37967625  1.01631855  0.48102135  1
  O  O367  1  0.38877479  0.98662583  1.00089816  1
  O  O368  1  0.85897771  0.51232014  0.48830594  1
  O  O369  1  0.87990991  0.47906336  1.00151415  1
  O  O370  1  0.88744451  1.00744659  0.49332478  1
  O  O371  1  0.89421017  0.99484458  1.00084160  1
  O  O372  1  0.11798367  0.00258709  0.01094999  1
  O  O373  1  0.12046192  0.01910198  0.49208425  1
  O  O374  1  0.12286638  0.49260820  0.01439082  1
  O  O375  1  0.13467747  0.51309179  0.52064666  1
  O  O376  1  0.61896652  -0.01318224  -0.00171307  1
  O  O377  1  0.63228843  0.01317631  0.51697614  1
  O  O378  1  0.63307883  0.48992831  0.00369718  1
  O  O379  1  0.62274703  0.48961602  0.51733595  1
  O  O380  1  0.37392148  0.36731480  0.11806088  1
  O  O381  1  0.37478511  0.35610280  0.62232711  1
  O  O382  1  0.39094123  0.85819661  0.11190049  1
  O  O383  1  0.36858442  0.85680137  0.61475722  1
  O  O384  1  0.87071215  0.37359683  0.12822856  1
  O  O385  1  0.88390051  0.39161354  0.60170773  1
  O  O386  1  0.88347318  0.87037977  0.11794609  1
  O  O387  1  0.90036198  0.88909530  0.63660119  1
  O  O388  1  0.13782337  0.13095109  0.37689155  1
  O  O389  1  0.12241171  0.14468574  0.87731972  1
  O  O390  1  0.11855773  0.59502402  0.39012878  1
  O  O391  1  0.15393355  0.63194184  0.84461110  1
  O  O392  1  0.62851438  0.13045273  0.38183247  1
  O  O393  1  0.63565833  0.12840453  0.86171250  1
  O  O394  1  0.59331244  0.62513975  0.40314958  1
  O  O395  1  0.63678304  0.61747497  0.86273449  1
