# generated using pymatgen
data_V35Zn35O128
_symmetry_space_group_name_H-M   'P 1'
_cell_length_a   16.82342216
_cell_length_b   16.84919304
_cell_length_c   16.85691307
_cell_angle_alpha   89.93096211
_cell_angle_beta   90.29011676
_cell_angle_gamma   90.04607065
_symmetry_Int_Tables_number   1
_chemical_formula_structural   V35Zn35O128
_chemical_formula_sum   'V70 Zn70 O256'
_cell_volume   4778.21266663
_cell_formula_units_Z   2
loop_
 _symmetry_equiv_pos_site_id
 _symmetry_equiv_pos_as_xyz
  1  'x, y, z'
loop_
 _atom_site_type_symbol
 _atom_site_label
 _atom_site_symmetry_multiplicity
 _atom_site_fract_x
 _atom_site_fract_y
 _atom_site_fract_z
 _atom_site_occupancy
  V  V0  1  0.51155947  0.50154903  -0.00326826  1
  V  V1  1  0.13140186  0.60950806  0.49878541  1
  V  V2  1  -0.00651275  0.46983954  -0.03564822  1
  V  V3  1  0.75663888  0.12825617  0.36611843  1
  V  V4  1  0.13735901  0.49138676  0.64420272  1
  V  V5  1  0.25292296  0.02592100  0.26396006  1
  V  V6  1  0.73754376  0.63875117  0.38271695  1
  V  V7  1  0.86957256  0.24969919  0.61675584  1
  V  V8  1  -0.00715127  -0.00486338  0.49310172  1
  V  V9  1  0.50333136  0.11766755  0.63237510  1
  V  V10  1  0.49832392  0.13083464  0.13169772  1
  V  V11  1  0.74214371  0.84894420  0.60963667  1
  V  V12  1  0.37930963  0.24886324  0.65285517  1
  V  V13  1  0.13696334  0.88029150  0.25741148  1
  V  V14  1  -0.00165756  0.12706990  0.11077079  1
  V  V15  1  0.12500870  0.00993387  0.11986189  1
  V  V16  1  0.63543941  0.88063528  0.75326412  1
  V  V17  1  0.36401101  0.74970968  0.61572024  1
  V  V18  1  0.13337599  0.38321746  0.24397031  1
  V  V19  1  0.36861477  0.87587272  0.50072233  1
  V  V20  1  0.24973958  0.59937544  0.86194128  1
  V  V21  1  0.36239932  0.49964959  0.37853646  1
  V  V22  1  0.62649953  0.86923348  0.24977415  1
  V  V23  1  0.51100335  0.62956673  0.11987093  1
  V  V24  1  0.14005779  0.13015994  0.50303640  1
  V  V25  1  0.63203900  0.13712671  -0.00260695  1
  V  V26  1  0.38185045  0.00869397  0.37752012  1
  V  V27  1  0.62366410  0.25774246  0.85540349  1
  V  V28  1  0.75523196  0.11168032  0.86996771  1
  V  V29  1  0.25279159  0.23558148  0.01023805  1
  V  V30  1  -0.01007757  0.24007018  0.26078603  1
  V  V31  1  0.37334528  0.35600707  0.49574061  1
  V  V32  1  0.74647593  0.38508702  0.12349791  1
  V  V33  1  0.50032374  -0.00775618  -0.00514032  1
  V  V34  1  0.25263722  -0.00634484  0.73897177  1
  V  V35  1  0.00497381  0.26094809  0.74696904  1
  V  V36  1  -0.00779102  0.62115981  0.62567430  1
  V  V37  1  0.49495326  0.61535420  0.62774504  1
  V  V38  1  0.87126373  -0.00775386  0.35951623  1
  V  V39  1  0.48529839  0.75605396  0.24799572  1
  V  V40  1  0.88540433  0.88172296  -0.00932244  1
  V  V41  1  -0.00670916  0.76628152  0.26192108  1
  V  V42  1  0.62937972  0.00290800  0.12555217  1
  V  V43  1  0.36859900  0.38354748  -0.00509854  1
  V  V44  1  0.36018047  0.61494721  0.24275021  1
  V  V45  1  0.87326224  0.39266649  0.50033999  1
  V  V46  1  0.87409262  0.61506789  0.26180174  1
  V  V47  1  0.87517784  0.11326805  0.75429029  1
  V  V48  1  0.74036606  0.49731767  0.26140470  1
  V  V49  1  0.87404540  0.75018235  0.12791316  1
  V  V50  1  -0.00569255  0.38687079  0.38051736  1
  V  V51  1  0.38181112  0.25341277  0.13579537  1
  V  V52  1  0.13193419  0.75063173  0.38939079  1
  V  V53  1  0.75845416  0.49966283  0.76604956  1
  V  V54  1  0.86488687  0.24857103  0.12361557  1
  V  V55  1  0.62569824  0.10871742  0.50130677  1
  V  V56  1  0.13706855  0.24722335  0.38028501  1
  V  V57  1  0.02905282  0.74844992  0.75471212  1
  V  V58  1  0.38628090  -0.01075072  0.86891972  1
  V  V59  1  0.49864868  0.75068602  0.74679069  1
  V  V60  1  0.62232131  0.73071033  0.87574120  1
  V  V61  1  0.75038663  0.88188888  0.12190713  1
  V  V62  1  0.12559572  0.25098437  0.87444606  1
  V  V63  1  0.61503763  0.25723934  0.37616273  1
  V  V64  1  0.12635615  -0.01456162  0.62382100  1
  V  V65  1  0.60617204  0.62669629  0.49988021  1
  V  V66  1  0.00385322  0.61505973  0.13089389  1
  V  V67  1  0.74555029  0.73392457  -0.00387606  1
  V  V68  1  0.72785279  0.38408143  0.62255134  1
  V  V69  1  0.26238113  0.12396972  0.86643146  1
  Zn  Zn70  1  0.11784431  0.61617170  -0.00294081  1
  Zn  Zn71  1  0.60660384  0.37356564  0.25514666  1
  Zn  Zn72  1  0.47513521  0.33443102  0.81510805  1
  Zn  Zn73  1  0.50931811  0.87425181  0.39064935  1
  Zn  Zn74  1  0.77855807  0.29112245  -0.04021535  1
  Zn  Zn75  1  0.00121177  0.12343340  0.62522925  1
  Zn  Zn76  1  0.18353406  0.19354592  0.19376305  1
  Zn  Zn77  1  0.19111198  0.18476942  0.68710691  1
  Zn  Zn78  1  0.18051259  0.68967113  0.19842121  1
  Zn  Zn79  1  0.18832566  0.67694279  0.68763871  1
  Zn  Zn80  1  0.68397183  0.18795669  0.19596628  1
  Zn  Zn81  1  0.68921976  0.18537148  0.68247701  1
  Zn  Zn82  1  0.68799380  0.68872358  0.18826242  1
  Zn  Zn83  1  0.68227907  0.68112643  0.68337311  1
  Zn  Zn84  1  0.31808783  0.31745676  0.31550095  1
  Zn  Zn85  1  0.30879644  0.31230050  0.82341113  1
  Zn  Zn86  1  0.31225011  0.81252158  0.31994077  1
  Zn  Zn87  1  0.32458840  0.82664357  0.79309364  1
  Zn  Zn88  1  0.80900034  0.31173730  0.31762779  1
  Zn  Zn89  1  0.80658723  0.30960839  0.79343301  1
  Zn  Zn90  1  0.80884405  0.81695519  0.31784753  1
  Zn  Zn91  1  0.80673879  0.81605326  0.81758628  1
  Zn  Zn92  1  0.19320679  0.42985186  0.44052079  1
  Zn  Zn93  1  0.18040821  0.43387855  0.94729070  1
  Zn  Zn94  1  0.18850727  0.93548928  0.44097954  1
  Zn  Zn95  1  0.18009434  0.95366852  0.92725104  1
  Zn  Zn96  1  0.68321045  0.44057196  0.44510098  1
  Zn  Zn97  1  0.68731132  0.44623517  0.93101051  1
  Zn  Zn98  1  0.69464097  0.93696651  0.43629547  1
  Zn  Zn99  1  0.68530258  0.93043756  0.93682646  1
  Zn  Zn100  1  0.31989344  0.04662395  0.07251610  1
  Zn  Zn101  1  0.32438652  0.06707902  0.56120849  1
  Zn  Zn102  1  0.34816634  0.60238588  0.03093839  1
  Zn  Zn103  1  0.31135469  0.56305705  0.55816163  1
  Zn  Zn104  1  0.82004295  0.06635709  0.05650362  1
  Zn  Zn105  1  0.80875305  0.06096161  0.55922652  1
  Zn  Zn106  1  0.82506054  0.55500900  0.06064900  1
  Zn  Zn107  1  0.80508559  0.56718689  0.56627943  1
  Zn  Zn108  1  0.42854412  0.44892192  0.17625040  1
  Zn  Zn109  1  0.48862966  0.40363595  0.63606747  1
  Zn  Zn110  1  0.42991831  0.93949499  0.18296972  1
  Zn  Zn111  1  0.44586359  0.93328509  0.68106771  1
  Zn  Zn112  1  0.93670073  0.42909224  0.19219319  1
  Zn  Zn113  1  0.94182750  0.44427032  0.68728007  1
  Zn  Zn114  1  0.93881201  0.94286767  0.18177738  1
  Zn  Zn115  1  0.94338332  0.93006256  0.68926565  1
  Zn  Zn116  1  0.06143869  0.06391181  0.31903963  1
  Zn  Zn117  1  0.07236412  0.07869469  0.80685493  1
  Zn  Zn118  1  0.06715151  0.56484597  0.31386397  1
  Zn  Zn119  1  0.06669041  0.56606572  0.81330827  1
  Zn  Zn120  1  0.56649722  0.06047891  0.31535720  1
  Zn  Zn121  1  0.56893968  0.06394385  0.80972409  1
  Zn  Zn122  1  0.55864962  0.56794798  0.30695186  1
  Zn  Zn123  1  0.53790268  0.51846384  0.78935783  1
  Zn  Zn124  1  0.44591732  0.18426714  0.43870415  1
  Zn  Zn125  1  0.44173771  0.18658418  0.94131876  1
  Zn  Zn126  1  0.43098495  0.68893477  0.42994195  1
  Zn  Zn127  1  0.44687225  0.64384139  0.89863175  1
  Zn  Zn128  1  0.94178501  0.17685988  0.43955454  1
  Zn  Zn129  1  0.93899295  0.29205131  0.92997560  1
  Zn  Zn130  1  0.93558964  0.67965684  0.44328824  1
  Zn  Zn131  1  0.96687358  0.73084013  0.95642357  1
  Zn  Zn132  1  0.06668370  0.30667821  0.06614443  1
  Zn  Zn133  1  0.06353819  0.31712828  0.56283379  1
  Zn  Zn134  1  0.07250047  0.81540043  0.07588435  1
  Zn  Zn135  1  0.00827011  0.79308352  0.54380109  1
  Zn  Zn136  1  0.56595030  0.32105706  0.06042730  1
  Zn  Zn137  1  0.55423587  0.29208657  0.54286802  1
  Zn  Zn138  1  0.56027279  0.80781530  0.06202853  1
  Zn  Zn139  1  0.56315219  0.80816841  0.55956197  1
  O  O140  1  0.11058832  0.12217110  0.13593278  1
  O  O141  1  0.12572626  0.12516764  0.61259762  1
  O  O142  1  0.10173429  0.61737277  0.15586136  1
  O  O143  1  0.12388438  0.61216331  0.61386922  1
  O  O144  1  0.62360524  0.12162057  0.11666314  1
  O  O145  1  0.62211812  0.12671830  0.61112736  1
  O  O146  1  0.61162682  0.63057122  0.12382797  1
  O  O147  1  0.60628565  0.62625989  0.61228743  1
  O  O148  1  0.37719878  0.38646531  0.38467602  1
  O  O149  1  0.38474213  0.36802809  0.89237926  1
  O  O150  1  0.37803263  0.87838457  0.38706426  1
  O  O151  1  0.37717364  0.88953652  0.87620278  1
  O  O152  1  0.88213756  0.37101281  0.38862796  1
  O  O153  1  0.85260599  0.34869854  0.88774130  1
  O  O154  1  0.86877339  0.89162847  0.37544112  1
  O  O155  1  0.87285010  0.87024398  0.89108147  1
  O  O156  1  0.25834647  -0.00243840  0.36791985  1
  O  O157  1  0.26324561  0.00900031  0.87104619  1
  O  O158  1  0.26246797  0.49868853  0.37299455  1
  O  O159  1  0.25154600  0.50022564  0.88254221  1
  O  O160  1  0.76419240  0.00791839  0.37930644  1
  O  O161  1  0.74308068  0.01209548  0.87534252  1
  O  O162  1  0.74826794  0.51161795  0.36407122  1
  O  O163  1  0.76369224  0.49513439  0.86737564  1
  O  O164  1  0.22314053  0.50262819  0.10143965  1
  O  O165  1  0.23756567  0.50660101  0.62233394  1
  O  O166  1  0.23018130  1.01984548  0.14979857  1
  O  O167  1  0.24992318  1.00395427  0.63392664  1
  O  O168  1  0.75913424  0.48951496  0.13538096  1
  O  O169  1  0.74157880  0.48541764  0.61704662  1
  O  O170  1  0.74296889  0.99276561  0.11440983  1
  O  O171  1  0.78223627  0.96390774  0.62691061  1
  O  O172  1  0.00284795  0.36445303  0.26542739  1
  O  O173  1  -0.00338307  0.35922828  0.74999901  1
  O  O174  1  -0.00017924  0.86807841  0.25251236  1
  O  O175  1  -0.02059883  0.83995478  0.74222647  1
  O  O176  1  0.49569986  0.41670585  0.27104770  1
  O  O177  1  0.49835977  0.41839124  0.74834897  1
  O  O178  1  0.50464259  0.86572684  0.23353055  1
  O  O179  1  0.51433828  0.85739350  0.74297446  1
  O  O180  1  0.51013684  0.12036347  0.22979650  1
  O  O181  1  0.51500073  0.12646156  0.73305463  1
  O  O182  1  0.49476998  0.63827543  0.23632603  1
  O  O183  1  0.50169830  0.63008921  0.73608270  1
  O  O184  1  1.00120462  0.13887957  0.25375368  1
  O  O185  1  0.98951152  0.13370716  0.74832038  1
  O  O186  1  0.98327981  0.63176709  0.25246880  1
  O  O187  1  1.01234143  0.63398678  0.73740522  1
  O  O188  1  0.36782142  0.25503495  0.00733008  1
  O  O189  1  0.36949851  0.25586150  0.48389149  1
  O  O190  1  0.31708295  0.80298787  0.03319152  1
  O  O191  1  0.37226376  0.75719539  0.50654772  1
  O  O192  1  0.87280643  0.24806688  0.02072036  1
  O  O193  1  0.88219304  0.24337871  0.51647152  1
  O  O194  1  0.86161340  0.75408297  0.01070666  1
  O  O195  1  0.90351984  0.76709361  0.50474282  1
  O  O196  1  0.12100067  0.24130328  0.49230427  1
  O  O197  1  0.14404669  0.24936348  0.99340093  1
  O  O198  1  0.11467048  0.75624390  0.48846949  1
  O  O199  1  0.15016840  0.72752563  1.04341460  1
  O  O200  1  0.63122750  0.23631029  0.48214001  1
  O  O201  1  0.62882132  0.24068896  0.99944386  1
  O  O202  1  0.62097238  0.73017490  0.49629938  1
  O  O203  1  0.63454718  0.75369738  0.98953095  1
  O  O204  1  0.49462858  0.24126604  0.11882945  1
  O  O205  1  0.49032222  0.23887185  0.62393875  1
  O  O206  1  0.49578018  0.74086193  0.12890147  1
  O  O207  1  0.49427805  0.74118391  0.63557609  1
  O  O208  1  0.99309856  0.24237496  0.13822543  1
  O  O209  1  0.99650949  0.24816938  0.63542030  1
  O  O210  1  0.99094375  0.74439424  0.14498229  1
  O  O211  1  1.01141105  0.73078098  0.63811080  1
  O  O212  1  -0.00042402  0.25259921  0.36853489  1
  O  O213  1  0.01787143  0.24160951  0.86501735  1
  O  O214  1  0.00378416  0.74762264  0.36255100  1
  O  O215  1  0.00916775  0.72962845  0.85560757  1
  O  O216  1  0.51395654  0.24933951  0.37337828  1
  O  O217  1  0.51717339  0.24696412  0.87708484  1
  O  O218  1  0.49685275  0.75474214  0.35230925  1
  O  O219  1  0.50656542  0.73572113  0.85997489  1
  O  O220  1  0.23906072  0.12177956  0.50170469  1
  O  O221  1  0.26261656  0.13171363  0.99462952  1
  O  O222  1  0.23033442  0.62958449  0.50097598  1
  O  O223  1  0.22815601  0.56891042  1.06555259  1
  O  O224  1  0.73633259  0.11854926  0.49311261  1
  O  O225  1  0.74551590  0.12333713  0.98587173  1
  O  O226  1  0.74754612  0.62608214  0.48477539  1
  O  O227  1  0.75403528  0.63600115  1.01213295  1
  O  O228  1  0.26245002  0.36018663  -0.00165831  1
  O  O229  1  0.27446090  0.38393457  0.50623790  1
  O  O230  1  0.20271987  0.86082351  -0.01013504  1
  O  O231  1  0.26663212  0.87639670  0.50168383  1
  O  O232  1  0.74009435  0.38152889  0.02024314  1
  O  O233  1  0.76545791  0.37625775  0.50873971  1
  O  O234  1  0.76057476  0.86747632  0.00794112  1
  O  O235  1  0.73091639  0.85897991  0.50941729  1
  O  O236  1  0.12218210  0.48286153  0.26016398  1
  O  O237  1  0.13525651  0.50178664  0.74486601  1
  O  O238  1  0.13597835  0.99370551  0.26402779  1
  O  O239  1  0.13898712  1.01092025  0.73366059  1
  O  O240  1  0.63887443  0.50123340  0.24782492  1
  O  O241  1  0.64480370  0.50585079  0.75257084  1
  O  O242  1  0.61495480  0.98775416  0.23072605  1
  O  O243  1  0.62417670  0.97978213  0.75345924  1
  O  O244  1  0.35848201  -0.00145053  0.26163065  1
  O  O245  1  0.36827313  -0.00643535  0.75802121  1
  O  O246  1  0.36035533  0.50964648  0.24761006  1
  O  O247  1  0.32278293  0.45010917  0.73293926  1
  O  O248  1  0.87844003  0.00034717  0.25964430  1
  O  O249  1  0.88831258  0.01501523  0.74803638  1
  O  O250  1  0.86778007  0.51289360  0.25145237  1
  O  O251  1  0.85756477  0.49538015  0.73920635  1
  O  O252  1  0.11193461  0.36242548  0.37889855  1
  O  O253  1  0.14340699  0.34992016  0.87227733  1
  O  O254  1  0.12431211  0.86793357  0.36539884  1
  O  O255  1  0.07395539  0.92682924  0.87371781  1
  O  O256  1  0.63467625  0.36211802  0.37764860  1
  O  O257  1  0.63503285  0.35626991  0.87864734  1
  O  O258  1  0.62361505  0.88580986  0.35169405  1
  O  O259  1  0.63251820  0.86009586  0.86051791  1
  O  O260  1  0.39149877  0.13369998  0.11976183  1
  O  O261  1  0.39111467  0.13605421  0.62224922  1
  O  O262  1  0.38051758  0.62558927  0.13850456  1
  O  O263  1  0.38443121  0.64023147  0.61309873  1
  O  O264  1  0.88488155  0.13494246  0.12710981  1
  O  O265  1  0.87013062  0.13499557  0.63528286  1
  O  O266  1  0.87629868  0.63632217  0.14060431  1
  O  O267  1  0.89159407  0.61741508  0.62018763  1
  O  O268  1  0.26363651  0.23676611  0.11740067  1
  O  O269  1  0.27753941  0.23835862  0.64156324  1
  O  O270  1  0.21618481  0.72525361  0.09254911  1
  O  O271  1  0.26692601  0.74547512  0.63364601  1
  O  O272  1  0.76094749  0.25305649  0.13550067  1
  O  O273  1  0.76572383  0.26415929  0.63166301  1
  O  O274  1  0.75429161  0.75828671  0.11778420  1
  O  O275  1  0.75726967  0.75002427  0.62827466  1
  O  O276  1  0.23501874  0.25401109  0.37467379  1
  O  O277  1  0.24924708  0.23641145  0.88238450  1
  O  O278  1  0.23169386  0.75126207  0.37532434  1
  O  O279  1  0.27373161  0.81634431  0.97363448  1
  O  O280  1  0.74916957  0.23327622  0.37540771  1
  O  O281  1  0.73676779  0.23381451  0.86868494  1
  O  O282  1  0.74553193  0.73735291  0.36560632  1
  O  O283  1  0.74299208  0.74510498  0.88953945  1
  O  O284  1  0.00311754  0.13325907  0.01522923  1
  O  O285  1  0.01331562  0.11230118  0.50547518  1
  O  O286  1  0.00578986  0.64368570  0.02639829  1
  O  O287  1  0.01336782  0.62820367  0.51459429  1
  O  O288  1  0.51493264  0.11949592  0.00584528  1
  O  O289  1  0.51718476  0.12665854  0.50728987  1
  O  O290  1  0.48142307  0.62266754  0.01394796  1
  O  O291  1  0.50012977  0.62980600  0.50427869  1
  O  O292  1  0.48082021  0.37979627  0.51774211  1
  O  O293  1  0.49466425  0.39409850  1.00299157  1
  O  O294  1  0.48594154  0.86869318  0.50159005  1
  O  O295  1  0.50712523  0.89318443  1.00252063  1
  O  O296  1  0.98907114  0.36999441  0.48810003  1
  O  O297  1  1.00228886  0.36693063  0.99155398  1
  O  O298  1  1.01443495  0.89762287  0.50088359  1
  O  O299  1  0.98623776  0.84524779  1.00425731  1
  O  O300  1  0.49118785  0.47549745  0.33229128  1
  O  O301  1  0.48622303  0.53102827  0.89445053  1
  O  O302  1  0.48503930  0.99049894  0.35987244  1
  O  O303  1  0.49555804  1.00472439  0.88000473  1
  O  O304  1  0.99862471  0.48515493  0.37188220  1
  O  O305  1  0.99750499  0.48874813  0.86517513  1
  O  O306  1  0.98682728  1.00688995  0.38405792  1
  O  O307  1  1.02455401  0.98627249  0.87186463  1
  O  O308  1  0.00951106  0.01759992  0.13252907  1
  O  O309  1  0.01433220  0.00003453  0.62135272  1
  O  O310  1  -0.01541484  0.51571681  0.13384798  1
  O  O311  1  0.01702695  0.51290897  0.63441133  1
  O  O312  1  0.50794471  0.01310858  0.11050540  1
  O  O313  1  0.49362302  0.01611590  0.62299531  1
  O  O314  1  0.49882963  0.51596352  0.11183275  1
  O  O315  1  0.48243965  0.51863929  0.62193302  1
  O  O316  1  0.23275699  0.36635608  0.25515519  1
  O  O317  1  0.26929891  0.40188312  0.74913442  1
  O  O318  1  0.23678097  0.87236062  0.24793501  1
  O  O319  1  0.24217691  0.89439291  0.76062074  1
  O  O320  1  0.75415217  0.39052841  0.25045936  1
  O  O321  1  0.74507630  0.38451864  0.73012744  1
  O  O322  1  0.73585048  0.86856298  0.23562623  1
  O  O323  1  0.74058779  0.86369537  0.74089950  1
  O  O324  1  0.24869360  0.12512445  0.26506780  1
  O  O325  1  0.25530767  0.11381835  0.76139109  1
  O  O326  1  0.26295965  0.63714397  0.25196383  1
  O  O327  1  0.26184887  0.62320578  0.76489413  1
  O  O328  1  0.74351534  0.11719297  0.26595218  1
  O  O329  1  0.76115151  0.12417543  0.75563493  1
  O  O330  1  0.75632338  0.61869350  0.25423051  1
  O  O331  1  0.73613295  0.60133754  0.74167138  1
  O  O332  1  0.38026974  0.10803635  0.38274818  1
  O  O333  1  0.36782669  0.12133373  0.87421204  1
  O  O334  1  0.39097096  0.60985815  0.35411823  1
  O  O335  1  0.33024078  0.64372300  0.92221118  1
  O  O336  1  0.86333657  0.11658607  0.37979635  1
  O  O337  1  0.86237049  0.12712118  0.86298844  1
  O  O338  1  0.86372640  0.62965168  0.36527813  1
  O  O339  1  0.86575599  0.64880423  0.82495107  1
  O  O340  1  0.11714026  0.36900597  0.14436222  1
  O  O341  1  0.12242973  0.39196570  0.62133021  1
  O  O342  1  0.11261458  0.89806901  0.14662961  1
  O  O343  1  0.13133850  0.89015379  0.62216298  1
  O  O344  1  0.64162182  0.36492482  0.13971504  1
  O  O345  1  0.63003800  0.36604305  0.60879526  1
  O  O346  1  0.63277352  0.88287821  0.12387888  1
  O  O347  1  0.63492022  0.86130221  0.63766743  1
  O  O348  1  0.11305951  0.25595897  0.26577845  1
  O  O349  1  0.11611963  0.24080665  0.75792326  1
  O  O350  1  0.11167381  0.76448253  0.25535959  1
  O  O351  1  0.12983333  0.75558616  0.75009587  1
  O  O352  1  0.62808719  0.25509385  0.26693235  1
  O  O353  1  0.62677679  0.25114203  0.75539222  1
  O  O354  1  0.61394413  0.76494717  0.24006025  1
  O  O355  1  0.61814702  0.74743541  0.76061150  1
  O  O356  1  0.37490060  0.25673736  0.23475371  1
  O  O357  1  0.39026978  0.26469590  0.75577773  1
  O  O358  1  0.38095858  0.74954994  0.24697413  1
  O  O359  1  0.38939723  0.75332980  0.74108260  1
  O  O360  1  0.88574049  0.25294581  0.24571280  1
  O  O361  1  0.88863802  0.24248437  0.73966001  1
  O  O362  1  0.87955616  0.74914467  0.24765970  1
  O  O363  1  0.86380171  0.70559114  0.77780822  1
  O  O364  1  0.37928766  0.51149397  0.47861212  1
  O  O365  1  0.37039835  0.48464733  1.00979525  1
  O  O366  1  0.37307026  0.98972089  0.48874911  1
  O  O367  1  0.39268960  1.01117127  0.98106883  1
  O  O368  1  0.87708943  0.49062450  0.50410480  1
  O  O369  1  0.90468587  0.50867081  0.99652965  1
  O  O370  1  0.89102381  1.00407106  0.50006709  1
  O  O371  1  0.88348619  0.98082405  1.00935278  1
  O  O372  1  0.13349393  0.00437409  0.02169925  1
  O  O373  1  0.12539689  0.01060616  0.50800107  1
  O  O374  1  0.09370647  0.49959702  -0.00626475  1
  O  O375  1  0.12529200  0.50820733  0.49248248  1
  O  O376  1  0.61853140  0.00768192  0.00353719  1
  O  O377  1  0.62138028  0.00819700  0.49100322  1
  O  O378  1  0.61089708  0.50396983  -0.00590900  1
  O  O379  1  0.62404370  0.52349599  0.49085245  1
  O  O380  1  0.38539523  0.35933956  0.11370895  1
  O  O381  1  0.37945799  0.34908009  0.61638748  1
  O  O382  1  0.35371973  0.93906512  0.10222914  1
  O  O383  1  0.37956948  0.86217045  0.61583334  1
  O  O384  1  0.86173974  0.36156411  0.13344049  1
  O  O385  1  0.88322376  0.36485308  0.61123371  1
  O  O386  1  0.86888032  0.86672658  0.12362397  1
  O  O387  1  0.84367372  0.90412708  0.62123785  1
  O  O388  1  0.12182897  0.13757951  0.38776564  1
  O  O389  1  0.14743961  0.13291426  0.87613559  1
  O  O390  1  0.11427162  0.63944542  0.38663471  1
  O  O391  1  0.15037624  0.62717753  0.88593248  1
  O  O392  1  0.63307898  0.12760270  0.38107114  1
  O  O393  1  0.63387187  0.13188546  0.87917976  1
  O  O394  1  0.63047946  0.62747293  0.37609968  1
  O  O395  1  0.62884248  0.63498364  0.87781173  1
