# generated using pymatgen
data_V35Zn35O128
_symmetry_space_group_name_H-M   'P 1'
_cell_length_a   16.85061581
_cell_length_b   16.86654200
_cell_length_c   16.95568457
_cell_angle_alpha   89.95726830
_cell_angle_beta   89.85950932
_cell_angle_gamma   90.00011675
_symmetry_Int_Tables_number   1
_chemical_formula_structural   V35Zn35O128
_chemical_formula_sum   'V70 Zn70 O256'
_cell_volume   4818.98673854
_cell_formula_units_Z   2
loop_
 _symmetry_equiv_pos_site_id
 _symmetry_equiv_pos_as_xyz
  1  'x, y, z'
loop_
 _atom_site_type_symbol
 _atom_site_label
 _atom_site_symmetry_multiplicity
 _atom_site_fract_x
 _atom_site_fract_y
 _atom_site_fract_z
 _atom_site_occupancy
  V  V0  1  -0.00695996  0.73876897  0.75578122  1
  V  V1  1  0.13602288  0.75853247  0.38025634  1
  V  V2  1  0.25813396  0.50277737  0.76573541  1
  V  V3  1  0.01300954  -0.01918225  0.02827228  1
  V  V4  1  0.86214861  0.00933624  0.38781280  1
  V  V5  1  0.62039529  0.60638143  0.49910959  1
  V  V6  1  0.61466753  0.85345632  0.25783533  1
  V  V7  1  0.37415927  0.62769145  0.75992270  1
  V  V8  1  0.74386135  0.61837717  0.36794668  1
  V  V9  1  0.38189112  0.49429004  0.37454552  1
  V  V10  1  0.48044015  0.37223164  0.86737501  1
  V  V11  1  0.73808222  0.51484346  0.73679189  1
  V  V12  1  0.25119020  0.87553969  0.61325832  1
  V  V13  1  0.73924854  0.74976835  0.49556799  1
  V  V14  1  0.49255625  -0.01153654  -0.00578630  1
  V  V15  1  0.23908715  0.23814267  0.50228570  1
  V  V16  1  0.62579661  0.62612896  -0.01527857  1
  V  V17  1  0.75127217  0.86297594  0.12986127  1
  V  V18  1  0.63291614  0.12169420  0.50263148  1
  V  V19  1  0.62423372  0.25773112  0.87848954  1
  V  V20  1  0.12317968  0.37885739  0.76573815  1
  V  V21  1  0.12284517  0.63438517  -0.01786237  1
  V  V22  1  0.85104055  0.86389761  -0.03434952  1
  V  V23  1  0.38534300  0.12962812  0.75738043  1
  V  V24  1  0.86410727  0.23051411  0.65394057  1
  V  V25  1  0.72110686  0.30056691  0.02696475  1
  V  V26  1  0.12434195  0.22328211  0.37171181  1
  V  V27  1  0.50553596  0.36943530  0.36345041  1
  V  V28  1  0.27330937  0.87540109  0.12939792  1
  V  V29  1  0.11507788  0.51301106  0.12030260  1
  V  V30  1  0.75642977  0.26379933  0.49255817  1
  V  V31  1  0.13955341  0.49259636  0.61566128  1
  V  V32  1  0.25862000  0.75385986  -0.02676959  1
  V  V33  1  0.24708228  0.61596799  0.38826137  1
  V  V34  1  0.63659740  0.11685762  -0.00225596  1
  V  V35  1  0.12771500  0.85609234  0.74632879  1
  V  V36  1  0.87539596  0.63535258  0.23334553  1
  V  V37  1  0.22976370  0.00778328  0.74589044  1
  V  V38  1  0.11627366  0.12646755  0.03096277  1
  V  V39  1  0.37834369  0.75837724  0.61152041  1
  V  V40  1  0.50165374  0.63423531  0.12897874  1
  V  V41  1  0.36994621  0.63351382  0.24713669  1
  V  V42  1  0.49503712  0.86336471  0.38392877  1
  V  V43  1  -0.01279124  0.87155580  0.37330308  1
  V  V44  1  0.01519713  0.62074667  0.60333412  1
  V  V45  1  0.61934190  -0.00116395  0.13264330  1
  V  V46  1  0.12068582  0.39202762  0.25730527  1
  V  V47  1  0.37555753  0.13192026  0.25979006  1
  V  V48  1  0.88432609  0.49080298  0.37455492  1
  V  V49  1  0.87193023  0.11415070  0.22782308  1
  V  V50  1  0.90102625  0.38370312  -0.01348065  1
  V  V51  1  0.88665604  0.27208199  0.12496178  1
  V  V52  1  0.63112750  0.89077560  0.75256299  1
  V  V53  1  0.87555056  0.73412733  0.61077234  1
  V  V54  1  0.73689813  0.48129934  0.23258194  1
  V  V55  1  -0.00690229  0.94027044  0.83414487  1
  V  V56  1  0.88546777  0.52596023  0.87468383  1
  V  V57  1  0.48872309  0.13700233  0.12686739  1
  V  V58  1  0.47922790  0.49586300  0.00267909  1
  V  V59  1  0.25707137  0.25496852  0.00965790  1
  V  V60  1  0.24303890  -0.00177988  0.25526130  1
  V  V61  1  0.75123195  0.88551978  0.62275144  1
  V  V62  1  0.50391288  0.12163438  0.62282088  1
  V  V63  1  0.62329370  0.24298655  0.36165128  1
  V  V64  1  0.51324529  0.75396175  0.75471903  1
  V  V65  1  0.01799313  0.01294346  0.49741883  1
  V  V66  1  0.37296320  0.25318310  0.62310423  1
  V  V67  1  0.26023826  0.38444051  0.12929892  1
  V  V68  1  0.22417729  0.12790497  0.88095818  1
  V  V69  1  0.50067381  0.61203695  0.62032585  1
  Zn  Zn70  1  0.00332695  0.24782104  0.25294861  1
  Zn  Zn71  1  0.49272510  -0.00891050  0.50819470  1
  Zn  Zn72  1  0.36751110  -0.00992078  0.88144920  1
  Zn  Zn73  1  0.37262959  0.38022048  0.50664086  1
  Zn  Zn74  1  0.74023306  0.00398935  0.26122092  1
  Zn  Zn75  1  0.37380190  -0.00109729  0.38380074  1
  Zn  Zn76  1  0.19831923  0.19296135  0.19653268  1
  Zn  Zn77  1  0.17674066  0.19648746  0.68906129  1
  Zn  Zn78  1  0.18370511  0.69256520  0.20659649  1
  Zn  Zn79  1  0.19543648  0.68313659  0.67727760  1
  Zn  Zn80  1  0.69414587  0.18423804  0.18063420  1
  Zn  Zn81  1  0.66045476  0.24808460  0.66794405  1
  Zn  Zn82  1  0.68219725  0.67929321  0.18116511  1
  Zn  Zn83  1  0.68766388  0.67859999  0.68276110  1
  Zn  Zn84  1  0.30148585  0.31271278  0.31426459  1
  Zn  Zn85  1  0.29110912  0.30515805  0.80968587  1
  Zn  Zn86  1  0.31493298  0.81127980  0.31527446  1
  Zn  Zn87  1  0.32541267  0.81629711  0.80338312  1
  Zn  Zn88  1  0.80967890  0.30875236  0.30828745  1
  Zn  Zn89  1  0.80244639  0.31877321  0.83570727  1
  Zn  Zn90  1  0.80579434  0.81583542  0.31337744  1
  Zn  Zn91  1  0.82381214  0.81723139  0.79314937  1
  Zn  Zn92  1  0.19909189  0.42900832  0.44023373  1
  Zn  Zn93  1  0.19475807  0.44756032  0.94462191  1
  Zn  Zn94  1  0.18475146  0.94114383  0.43214481  1
  Zn  Zn95  1  0.17674051  0.93807471  0.93704602  1
  Zn  Zn96  1  0.68760295  0.43304573  0.42991697  1
  Zn  Zn97  1  0.67272277  0.44381845  0.95393472  1
  Zn  Zn98  1  0.67733095  0.93515688  0.44149353  1
  Zn  Zn99  1  0.67937505  0.80352668  0.93294838  1
  Zn  Zn100  1  0.30971346  0.05893370  0.06524847  1
  Zn  Zn101  1  0.31336362  0.06362513  0.56462575  1
  Zn  Zn102  1  0.30695583  0.57307810  0.06187259  1
  Zn  Zn103  1  0.31860747  0.56145792  0.56118233  1
  Zn  Zn104  1  0.81474947  0.03442694  0.05534948  1
  Zn  Zn105  1  0.81984120  0.07372234  0.57072451  1
  Zn  Zn106  1  0.80999136  0.55770856  0.05638836  1
  Zn  Zn107  1  0.81366051  0.55319841  0.55866542  1
  Zn  Zn108  1  0.43945744  0.44481625  0.19204943  1
  Zn  Zn109  1  0.43864127  0.43358704  0.69351468  1
  Zn  Zn110  1  0.43646334  0.93970438  0.19578578  1
  Zn  Zn111  1  0.43169185  0.93745488  0.70863005  1
  Zn  Zn112  1  0.94114499  0.45235609  0.20074343  1
  Zn  Zn113  1  0.95576369  0.46347269  0.71832956  1
  Zn  Zn114  1  0.93659100  0.92877001  0.19911328  1
  Zn  Zn115  1  0.94306434  0.91768774  0.66188099  1
  Zn  Zn116  1  0.04866312  0.05052483  0.29752666  1
  Zn  Zn117  1  -0.00283377  0.08286920  0.68171532  1
  Zn  Zn118  1  0.06343251  0.58462517  0.30730108  1
  Zn  Zn119  1  0.07079552  0.56932664  0.80410216  1
  Zn  Zn120  1  0.55061060  0.06128654  0.31856650  1
  Zn  Zn121  1  0.56804299  0.06531630  0.81676681  1
  Zn  Zn122  1  0.55977588  0.55876975  0.30868402  1
  Zn  Zn123  1  0.55942274  0.55187639  0.81587799  1
  Zn  Zn124  1  0.44042725  0.19055778  0.44052361  1
  Zn  Zn125  1  0.43899586  0.18357365  0.94133550  1
  Zn  Zn126  1  0.43686322  0.68401767  0.43513930  1
  Zn  Zn127  1  0.44392164  0.69591126  0.94154086  1
  Zn  Zn128  1  0.93665779  0.18392265  0.42175928  1
  Zn  Zn129  1  0.93232297  0.17646022  0.96316398  1
  Zn  Zn130  1  0.93254257  0.67998093  0.42896881  1
  Zn  Zn131  1  0.93933615  0.69336261  0.95178920  1
  Zn  Zn132  1  0.07334550  0.31510015  0.06829091  1
  Zn  Zn133  1  0.04263134  0.20865759  0.56374887  1
  Zn  Zn134  1  0.12086305  0.81653619  0.06876077  1
  Zn  Zn135  1  0.06285505  0.81441474  0.54977720  1
  Zn  Zn136  1  0.54254591  0.31174881  0.05248977  1
  Zn  Zn137  1  0.55733587  0.31997984  0.54637999  1
  Zn  Zn138  1  0.55551855  0.80884310  0.06741068  1
  Zn  Zn139  1  0.56624472  0.81059094  0.56766574  1
  O  O140  1  0.12855742  0.12588826  0.12872511  1
  O  O141  1  0.07921419  0.15378441  0.65530791  1
  O  O142  1  0.13579845  0.61323627  0.13506804  1
  O  O143  1  0.11993562  0.62517274  0.61456402  1
  O  O144  1  0.61655412  0.11528825  0.12075026  1
  O  O145  1  0.61120467  0.14268966  0.61831396  1
  O  O146  1  0.60617664  0.62500360  0.11734635  1
  O  O147  1  0.61115093  0.62367228  0.61160851  1
  O  O148  1  0.37812483  0.38445499  0.36600111  1
  O  O149  1  0.38117260  0.35529796  0.86959435  1
  O  O150  1  0.39046401  0.87391741  0.37497192  1
  O  O151  1  0.39299847  0.90264127  0.81583790  1
  O  O152  1  0.87512301  0.39000227  0.35793690  1
  O  O153  1  0.89441774  0.37148307  0.88681615  1
  O  O154  1  0.88020107  0.88915755  0.36905174  1
  O  O155  1  0.90745369  0.88596617  0.86515874  1
  O  O156  1  0.25541206  -0.00806367  0.35920237  1
  O  O157  1  0.24498264  0.00891009  0.86566250  1
  O  O158  1  0.26685332  0.50689885  0.37889998  1
  O  O159  1  0.25656042  0.51022104  0.86461260  1
  O  O160  1  0.75835879  -0.01018132  0.37780418  1
  O  O161  1  0.81452816  0.13203756  0.84769135  1
  O  O162  1  0.75121071  0.50916802  0.36657688  1
  O  O163  1  0.75705142  0.48166440  0.87280128  1
  O  O164  1  0.24510056  0.48811866  0.11739628  1
  O  O165  1  0.24301596  0.51639374  0.63393385  1
  O  O166  1  0.25193609  0.97984223  0.12953590  1
  O  O167  1  0.25384125  0.98743007  0.63886335  1
  O  O168  1  0.74870346  0.49760026  0.13418856  1
  O  O169  1  0.76145612  0.49516992  0.63963261  1
  O  O170  1  0.72849412  0.98858653  0.12606970  1
  O  O171  1  0.76142086  0.98336874  0.61527169  1
  O  O172  1  0.01761814  0.37146709  0.24402086  1
  O  O173  1  0.02187470  0.37787306  0.75047681  1
  O  O174  1  0.01112679  0.89272818  0.27531104  1
  O  O175  1  0.01269705  0.85350591  0.73478182  1
  O  O176  1  0.49641858  0.37388106  0.26277243  1
  O  O177  1  0.49995524  0.37561531  0.76856122  1
  O  O178  1  0.50983190  0.87634357  0.26090961  1
  O  O179  1  0.52328564  0.86240021  0.73082362  1
  O  O180  1  0.48817880  0.12062417  0.23673317  1
  O  O181  1  0.49069357  0.12684683  0.74650149  1
  O  O182  1  0.49232299  0.61738493  0.23621506  1
  O  O183  1  0.49546912  0.63148996  0.73487329  1
  O  O184  1  0.97663190  0.12883668  0.25159377  1
  O  O185  1  1.00506840  0.20633907  0.80028495  1
  O  O186  1  0.97461891  0.62247475  0.24296436  1
  O  O187  1  1.01198920  0.63953254  0.72908887  1
  O  O188  1  0.35549831  0.23788778  0.00216452  1
  O  O189  1  0.36622006  0.24269327  0.51362710  1
  O  O190  1  0.35863946  0.75526938  -0.00823821  1
  O  O191  1  0.38164560  0.75325252  0.51337218  1
  O  O192  1  0.88213903  0.26579273  0.01334999  1
  O  O193  1  0.85404050  0.24378315  0.47517765  1
  O  O194  1  0.90318825  0.78990737  0.00648349  1
  O  O195  1  0.86247785  0.74086420  0.50664294  1
  O  O196  1  0.12874980  0.24219323  0.48963445  1
  O  O197  1  0.13255477  0.23253050  1.00954492  1
  O  O198  1  0.11434561  0.74087903  0.47795094  1
  O  O199  1  0.13888489  0.74233960  0.98537635  1
  O  O200  1  0.63474293  0.24106953  0.49060693  1
  O  O201  1  0.62621122  0.22854744  1.00587616  1
  O  O202  1  0.63716439  0.73558390  0.50601671  1
  O  O203  1  0.61723539  0.73914312  0.99934159  1
  O  O204  1  0.50001051  0.23649728  0.12428299  1
  O  O205  1  0.48037588  0.23699958  0.62344286  1
  O  O206  1  0.48984715  0.73418803  0.12417066  1
  O  O207  1  0.49123596  0.74592577  0.62986430  1
  O  O208  1  0.98832914  0.25319250  0.12983908  1
  O  O209  1  0.94677914  0.26820336  0.60935650  1
  O  O210  1  0.96868797  0.77873722  0.15120283  1
  O  O211  1  0.99067296  0.74160792  0.61513054  1
  O  O212  1  0.01848436  0.24850675  0.37387378  1
  O  O213  1  0.00019324  0.24038830  0.86502318  1
  O  O214  1  -0.01118322  0.76924324  0.38162210  1
  O  O215  1  -0.01018302  0.73837123  0.85367279  1
  O  O216  1  0.51098582  0.25504009  0.37126380  1
  O  O217  1  0.51080071  0.25908278  0.89058413  1
  O  O218  1  0.50109813  0.76251323  0.38228085  1
  O  O219  1  0.49656542  0.75321480  0.85290428  1
  O  O220  1  0.25272697  0.13691275  0.49902274  1
  O  O221  1  0.23715757  0.12421293  0.99677349  1
  O  O222  1  0.26719942  0.63161244  0.48500785  1
  O  O223  1  0.24330134  0.64826144  1.00367797  1
  O  O224  1  0.73594016  0.13010967  0.50897241  1
  O  O225  1  0.73610367  0.10531740  1.00372943  1
  O  O226  1  0.73813241  0.62542765  0.49241280  1
  O  O227  1  0.72550091  0.61293300  0.99871482  1
  O  O228  1  0.24539648  0.36232835  0.00911321  1
  O  O229  1  0.26048175  0.34994887  0.49455863  1
  O  O230  1  0.23438839  0.86412570  0.01297681  1
  O  O231  1  0.24382097  0.88323287  0.51608919  1
  O  O232  1  0.78087444  0.38217545  0.00406619  1
  O  O233  1  0.74813621  0.36349732  0.49797287  1
  O  O234  1  0.75567014  0.87818604  0.01936005  1
  O  O235  1  0.73953324  0.85722866  0.50861815  1
  O  O236  1  0.12185362  0.49647821  0.24066235  1
  O  O237  1  0.14385548  0.50352805  0.74550241  1
  O  O238  1  0.14276127  1.00376867  0.25009118  1
  O  O239  1  0.13189488  0.99735291  0.73828555  1
  O  O240  1  0.63782367  0.49996674  0.25184492  1
  O  O241  1  0.63525981  0.50944016  0.74332444  1
  O  O242  1  0.61986452  1.00681867  0.23867145  1
  O  O243  1  0.62285476  0.99094611  0.75074065  1
  O  O244  1  0.36864807  0.00975158  0.25542709  1
  O  O245  1  0.35668550  0.02846866  0.74276399  1
  O  O246  1  0.37877457  0.51141611  0.26687641  1
  O  O247  1  0.36963300  0.51766196  0.74177589  1
  O  O248  1  0.86914801  0.00818664  0.25507103  1
  O  O249  1  0.96034784  -0.00085333  0.75470581  1
  O  O250  1  0.85598207  0.51291669  0.25465019  1
  O  O251  1  0.86405780  0.50400967  0.77004315  1
  O  O252  1  0.13211201  0.38668764  0.35741425  1
  O  O253  1  0.13161123  0.39729595  0.86502387  1
  O  O254  1  0.12494862  0.86134706  0.37158836  1
  O  O255  1  0.09887743  0.89452054  0.84779911  1
  O  O256  1  0.61327417  0.36212023  0.37524024  1
  O  O257  1  0.61169145  0.36153422  0.89103356  1
  O  O258  1  0.61805905  0.87594584  0.36180261  1
  O  O259  1  0.63538523  0.86845126  0.84991404  1
  O  O260  1  0.38515853  0.12142938  0.12990146  1
  O  O261  1  0.38313232  0.13220747  0.63475882  1
  O  O262  1  0.37611786  0.62142944  0.14180017  1
  O  O263  1  0.38707162  0.63803950  0.62396532  1
  O  O264  1  0.87076771  0.11380993  0.12553703  1
  O  O265  1  0.88146709  0.12594006  0.65356978  1
  O  O266  1  0.85750135  0.62778399  0.13381029  1
  O  O267  1  0.88837464  0.62998704  0.61802009  1
  O  O268  1  0.24666736  0.26148135  0.11577746  1
  O  O269  1  0.25525478  0.24058408  0.61328813  1
  O  O270  1  0.20993927  0.78484437  0.13968094  1
  O  O271  1  0.26549423  0.76265430  0.62888376  1
  O  O272  1  0.76184859  0.25064263  0.11009529  1
  O  O273  1  0.76714309  0.24665704  0.60843622  1
  O  O274  1  0.73738375  0.76394208  0.12796671  1
  O  O275  1  0.76090877  0.73859671  0.61240203  1
  O  O276  1  0.23286520  0.24750579  0.38400379  1
  O  O277  1  0.24560082  0.23288507  0.89168733  1
  O  O278  1  0.24136279  0.74044741  0.37243500  1
  O  O279  1  0.25322862  0.76475277  0.87377750  1
  O  O280  1  0.73284717  0.25532855  0.38059625  1
  O  O281  1  0.73190711  0.26705518  0.91602431  1
  O  O282  1  0.75249462  0.73752567  0.39018377  1
  O  O283  1  0.78859613  0.80406189  0.89812784  1
  O  O284  1  0.01181919  0.11618815  0.01638874  1
  O  O285  1  -0.00436586  0.11831249  0.49815516  1
  O  O286  1  0.02343598  0.64106664  0.00618701  1
  O  O287  1  -0.00141820  0.62121009  0.50535052  1
  O  O288  1  0.50247404  0.11647310  0.01617613  1
  O  O289  1  0.50652079  0.12544256  0.51430093  1
  O  O290  1  0.49853832  0.62225821  0.01043164  1
  O  O291  1  0.51095018  0.62673295  0.50722970  1
  O  O292  1  0.48423768  0.36317270  0.47563718  1
  O  O293  1  0.48305649  0.38934721  0.99688877  1
  O  O294  1  0.51819370  0.87725898  0.48932425  1
  O  O295  1  0.50471692  0.88926338  1.00397428  1
  O  O296  1  1.01239266  0.37467086  0.47578518  1
  O  O297  1  0.99952178  0.37696787  1.00417946  1
  O  O298  1  1.00977352  0.89433707  0.48289492  1
  O  O299  1  1.04073785  0.88363552  1.02280754  1
  O  O300  1  0.49421914  0.48593737  0.37433534  1
  O  O301  1  0.49458192  0.48238102  0.88288190  1
  O  O302  1  0.49708889  0.98655489  0.38315171  1
  O  O303  1  0.50197664  1.00814442  0.89376447  1
  O  O304  1  0.98237199  0.51321883  0.36098316  1
  O  O305  1  0.98561257  0.51952949  0.86317465  1
  O  O306  1  0.98618806  0.99964224  0.38533072  1
  O  O307  1  1.00289326  1.00465457  0.90780608  1
  O  O308  1  -0.00205918  -0.00613939  0.12564109  1
  O  O309  1  -0.00341204  -0.00469133  0.59963224  1
  O  O310  1  0.01520257  0.50298073  0.12439426  1
  O  O311  1  0.01664985  0.51568344  0.63204905  1
  O  O312  1  0.50667582  0.00264803  0.12053922  1
  O  O313  1  0.49341443  0.01786246  0.63218035  1
  O  O314  1  0.48812972  0.50803357  0.10949738  1
  O  O315  1  0.48916918  0.51391417  0.62466815  1
  O  O316  1  0.23541318  0.36950150  0.23522825  1
  O  O317  1  0.25870794  0.40086338  0.75207635  1
  O  O318  1  0.26336840  0.88622989  0.24027597  1
  O  O319  1  0.23431172  0.88486981  0.74967898  1
  O  O320  1  0.74667171  0.38164752  0.24523463  1
  O  O321  1  0.74565739  0.42180775  0.81141005  1
  O  O322  1  0.72813209  0.87874863  0.24736819  1
  O  O323  1  0.74428163  0.87298043  0.73316322  1
  O  O324  1  0.26515662  0.10814161  0.23778027  1
  O  O325  1  0.23607326  0.11846708  0.76382985  1
  O  O326  1  0.26401448  0.62679834  0.26453741  1
  O  O327  1  0.26788888  0.62707975  0.74794333  1
  O  O328  1  0.76433289  0.12074176  0.24453958  1
  O  O329  1  0.77703849  0.08111353  0.80764807  1
  O  O330  1  0.74359402  0.62396647  0.26269332  1
  O  O331  1  0.75258177  0.61582726  0.74941660  1
  O  O332  1  0.38677597  0.12316525  0.36249890  1
  O  O333  1  0.37182951  0.12524831  0.86263468  1
  O  O334  1  0.37655966  0.61435290  0.36841252  1
  O  O335  1  0.38777126  0.63159139  0.85673022  1
  O  O336  1  0.86706129  0.11075919  0.36521742  1
  O  O337  1  0.87639959  0.10078928  0.89399916  1
  O  O338  1  0.85637956  0.61790947  0.36684669  1
  O  O339  1  0.86691511  0.62270992  0.89443182  1
  O  O340  1  0.13330027  0.39146023  0.13136795  1
  O  O341  1  0.13349141  0.39586408  0.64375144  1
  O  O342  1  0.03973789  0.76015062  0.15344394  1
  O  O343  1  0.13875370  0.86212976  0.63444338  1
  O  O344  1  0.64722718  0.36334609  0.06029028  1
  O  O345  1  0.61663749  0.34468415  0.63382241  1
  O  O346  1  0.62093837  0.88238717  0.13945311  1
  O  O347  1  0.64408511  0.86878616  0.63176712  1
  O  O348  1  0.12759086  0.25531522  0.26350941  1
  O  O349  1  0.16115418  0.28282038  0.76111058  1
  O  O350  1  0.10426358  0.70987294  0.29070627  1
  O  O351  1  0.12442301  0.75397777  0.75115386  1
  O  O352  1  0.63088316  0.23500523  0.26320969  1
  O  O353  1  0.64652249  0.24173391  0.78227154  1
  O  O354  1  0.61990822  0.75521287  0.25086281  1
  O  O355  1  0.61491108  0.74271353  0.74386613  1
  O  O356  1  0.35977749  0.23151104  0.25398336  1
  O  O357  1  0.35387197  0.23348341  0.73697583  1
  O  O358  1  0.38011673  0.73290895  0.25986049  1
  O  O359  1  0.38807888  0.74028193  0.73714939  1
  O  O360  1  0.86898007  0.24059755  0.23086474  1
  O  O361  1  0.85060804  0.26598523  0.74761127  1
  O  O362  1  0.86017997  0.73485490  0.25567197  1
  O  O363  1  0.88852688  0.74669702  0.73100403  1
  O  O364  1  0.37673911  0.49734953  0.48444924  1
  O  O365  1  0.38082259  0.51738286  0.99191764  1
  O  O366  1  0.37828110  1.00312186  0.49824066  1
  O  O367  1  0.38502747  1.00196352  0.99730612  1
  O  O368  1  0.86837196  0.50147585  0.47567047  1
  O  O369  1  0.87977059  0.49277635  0.98544567  1
  O  O370  1  0.87344228  1.00930042  0.48886541  1
  O  O371  1  0.89227765  0.96073162  1.00661225  1
  O  O372  1  0.12004206  0.01345947  0.00976061  1
  O  O373  1  0.11781905  0.01356578  0.49030641  1
  O  O374  1  0.13540638  0.52143670  0.01178593  1
  O  O375  1  0.13632986  0.48802279  0.51592758  1
  O  O376  1  0.61027016  0.00938844  0.01471869  1
  O  O377  1  0.62179753  0.01839096  0.50082873  1
  O  O378  1  0.59849203  0.51793243  -0.00444730  1
  O  O379  1  0.62743180  0.50751551  0.49858503  1
  O  O380  1  0.35958370  0.38022041  0.13561586  1
  O  O381  1  0.38029219  0.35745831  0.62887488  1
  O  O382  1  0.37199471  0.86546636  0.12644804  1
  O  O383  1  0.36574763  0.86730766  0.63183571  1
  O  O384  1  0.88416970  0.37294591  0.12534645  1
  O  O385  1  0.96996991  0.40011407  0.52796154  1
  O  O386  1  0.84858157  0.87731618  0.14885703  1
  O  O387  1  0.85918180  0.85323158  0.62344404  1
  O  O388  1  0.12250572  0.12567464  0.36102920  1
  O  O389  1  0.12754925  0.12353839  0.88614861  1
  O  O390  1  0.14666354  0.60490950  0.38689674  1
  O  O391  1  0.12920965  0.62320466  0.88389491  1
  O  O392  1  0.61368538  0.13457971  0.39028387  1
  O  O393  1  0.61853975  0.13349238  0.89394848  1
  O  O394  1  0.63247742  0.61955351  0.38641925  1
  O  O395  1  0.61149071  0.62869785  0.88471752  1
