# generated using pymatgen
data_V35Zn35O128
_symmetry_space_group_name_H-M   'P 1'
_cell_length_a   16.87709877
_cell_length_b   16.92375580
_cell_length_c   16.96863954
_cell_angle_alpha   90.28391625
_cell_angle_beta   89.92584151
_cell_angle_gamma   90.23803216
_symmetry_Int_Tables_number   1
_chemical_formula_structural   V35Zn35O128
_chemical_formula_sum   'V70 Zn70 O256'
_cell_volume   4846.54371126
_cell_formula_units_Z   2
loop_
 _symmetry_equiv_pos_site_id
 _symmetry_equiv_pos_as_xyz
  1  'x, y, z'
loop_
 _atom_site_type_symbol
 _atom_site_label
 _atom_site_symmetry_multiplicity
 _atom_site_fract_x
 _atom_site_fract_y
 _atom_site_fract_z
 _atom_site_occupancy
  V  V0  1  0.12448908  0.02871473  0.09736285  1
  V  V1  1  0.64722713  0.85838975  0.25379412  1
  V  V2  1  0.74928500  0.38252560  0.14470790  1
  V  V3  1  0.39761807  0.24698865  0.12846458  1
  V  V4  1  0.50602858  0.50418558  -0.02809745  1
  V  V5  1  -0.00975412  0.25196814  0.74630160  1
  V  V6  1  0.13244841  0.87798691  0.25226979  1
  V  V7  1  0.37583396  0.74130971  0.12724556  1
  V  V8  1  0.12092563  0.24046133  0.88091421  1
  V  V9  1  0.37381495  0.60996762  0.25775048  1
  V  V10  1  0.50163300  0.37004142  0.37514667  1
  V  V11  1  0.59977898  -0.00002127  0.60996007  1
  V  V12  1  0.36566554  -0.00239971  0.35296810  1
  V  V13  1  0.12525956  0.25168591  0.37566865  1
  V  V14  1  0.62800621  0.89482669  0.74700660  1
  V  V15  1  0.75319449  0.26331756  -0.00103235  1
  V  V16  1  0.37381264  0.87351281  0.00580731  1
  V  V17  1  0.86569970  0.12113876  0.75324112  1
  V  V18  1  0.10891226  0.74216976  0.85007198  1
  V  V19  1  0.37202868  0.08075108  0.80583072  1
  V  V20  1  0.25016924  0.73000078  0.49243132  1
  V  V21  1  -0.00345167  0.88403029  0.39576080  1
  V  V22  1  0.00157767  0.23647711  0.24561417  1
  V  V23  1  -0.06810707  0.08781795  0.57151973  1
  V  V24  1  0.77517522  0.86889256  0.11594072  1
  V  V25  1  0.57603393  0.04511779  0.17600872  1
  V  V26  1  0.62621402  0.40522294  0.72296304  1
  V  V27  1  0.50657554  0.87186534  0.37827019  1
  V  V28  1  0.38157082  0.49198704  0.40241752  1
  V  V29  1  0.78616567  0.01143422  0.24019875  1
  V  V30  1  0.39946954  0.24833227  0.63531236  1
  V  V31  1  -0.00132459  0.38032776  0.36751226  1
  V  V32  1  0.12934924  0.11632686  0.51592821  1
  V  V33  1  0.62465580  0.11798147  0.00532130  1
  V  V34  1  0.24699517  0.24377029  -0.00209165  1
  V  V35  1  0.49339788  0.62252184  0.62021935  1
  V  V36  1  -0.01227904  0.49428209  0.50713380  1
  V  V37  1  0.77562238  0.88036581  0.58351338  1
  V  V38  1  0.13176733  0.49540693  0.61673883  1
  V  V39  1  0.64059559  0.75421235  0.87961252  1
  V  V40  1  0.60360281  0.25272267  0.88033083  1
  V  V41  1  0.26588231  0.25527654  0.49441244  1
  V  V42  1  0.86034047  0.50345569  0.37561629  1
  V  V43  1  0.37945979  0.38303743  -0.01571815  1
  V  V44  1  0.26102699  0.36772588  0.62512761  1
  V  V45  1  0.49375028  0.74981643  0.75551838  1
  V  V46  1  0.26199770  0.50057617  0.76043703  1
  V  V47  1  0.36452341  0.87995434  0.49409237  1
  V  V48  1  0.50198272  -0.00177714  0.00405482  1
  V  V49  1  0.87137582  0.62610569  0.24658692  1
  V  V50  1  0.50825253  0.74041805  0.25247401  1
  V  V51  1  0.63144211  0.64482916  0.47784494  1
  V  V52  1  0.86443179  0.47911031  0.87451629  1
  V  V53  1  0.11592016  0.73412508  0.39385481  1
  V  V54  1  0.62654904  0.25206616  0.35638371  1
  V  V55  1  0.36382068  0.75711941  0.63509974  1
  V  V56  1  0.62487738  0.50226218  0.14508550  1
  V  V57  1  0.24908225  0.38420776  0.12884570  1
  V  V58  1  0.87971271  0.25040443  0.12900947  1
  V  V59  1  0.83487170  0.68270692  0.62559552  1
  V  V60  1  0.26392930  0.62884171  0.87322221  1
  V  V61  1  0.00298215  0.49524574  0.00619504  1
  V  V62  1  0.75804902  0.11869657  0.88052171  1
  V  V63  1  0.48935214  0.88394390  0.86997746  1
  V  V64  1  0.00123912  0.74271372  0.23966848  1
  V  V65  1  0.23918922  0.74003520  0.00919200  1
  V  V66  1  0.12204580  0.37301151  0.76294022  1
  V  V67  1  0.01153697  0.62914105  0.63668381  1
  V  V68  1  0.76478238  0.12084883  0.37711225  1
  V  V69  1  0.61193913  0.12403382  0.49478914  1
  Zn  Zn70  1  0.25685600  0.89578505  0.15025320  1
  Zn  Zn71  1  0.24260971  0.11028284  0.35847091  1
  Zn  Zn72  1  0.51137328  0.62215193  0.11504865  1
  Zn  Zn73  1  0.11407033  0.50470196  0.14038948  1
  Zn  Zn74  1  0.24495238  0.48512727  0.26680352  1
  Zn  Zn75  1  0.71349478  0.68571892  0.34857701  1
  Zn  Zn76  1  0.18570501  0.19057074  0.18195677  1
  Zn  Zn77  1  0.22226474  0.06842942  0.69091030  1
  Zn  Zn78  1  0.16936279  0.65156339  0.21980894  1
  Zn  Zn79  1  0.18980249  0.68246700  0.68586561  1
  Zn  Zn80  1  0.69787574  0.18900801  0.18961675  1
  Zn  Zn81  1  0.68655123  0.21959437  0.70505008  1
  Zn  Zn82  1  0.70160639  0.68366969  0.16705900  1
  Zn  Zn83  1  0.66454598  0.71473265  0.64934147  1
  Zn  Zn84  1  0.30010364  0.27446728  0.28890381  1
  Zn  Zn85  1  0.31061337  0.29793651  0.80868231  1
  Zn  Zn86  1  0.31351106  0.79727241  0.31721604  1
  Zn  Zn87  1  0.29558533  0.82672633  0.82105566  1
  Zn  Zn88  1  0.81318678  0.31156687  0.31995291  1
  Zn  Zn89  1  0.79604595  0.31144374  0.80535093  1
  Zn  Zn90  1  0.82429628  0.82593233  0.30685279  1
  Zn  Zn91  1  0.81751746  0.80948014  0.78336678  1
  Zn  Zn92  1  0.19334402  0.42958767  0.43374273  1
  Zn  Zn93  1  0.19069845  0.44224605  0.94526771  1
  Zn  Zn94  1  0.18396860  0.92864897  0.43367388  1
  Zn  Zn95  1  0.15494217  0.90267150  0.97032375  1
  Zn  Zn96  1  0.55058448  0.47123693  0.54289105  1
  Zn  Zn97  1  0.68159972  0.44118741  0.93106111  1
  Zn  Zn98  1  0.69865367  0.94814222  0.43374457  1
  Zn  Zn99  1  0.68892601  0.93319893  0.93717868  1
  Zn  Zn100  1  0.31101923  0.06453292  0.06814695  1
  Zn  Zn101  1  0.32439094  0.07757039  0.54438848  1
  Zn  Zn102  1  0.32034094  0.56263204  0.06137998  1
  Zn  Zn103  1  0.31616336  0.56417479  0.57723105  1
  Zn  Zn104  1  0.82053612  0.06738321  0.05909053  1
  Zn  Zn105  1  0.78769226  0.20041475  0.55718694  1
  Zn  Zn106  1  0.82730060  0.54805628  0.06334683  1
  Zn  Zn107  1  0.75377402  0.54236884  0.52021457  1
  Zn  Zn108  1  0.44243708  0.42239610  0.18798740  1
  Zn  Zn109  1  0.44416835  0.42811097  0.69781692  1
  Zn  Zn110  1  0.44202644  0.92022385  0.19077481  1
  Zn  Zn111  1  0.39274852  0.96841530  0.66534484  1
  Zn  Zn112  1  0.92923970  0.43896666  0.18902459  1
  Zn  Zn113  1  0.94341310  0.45222237  0.70396507  1
  Zn  Zn114  1  0.95822957  0.93075352  0.18353965  1
  Zn  Zn115  1  0.92558658  0.94366653  0.70135586  1
  Zn  Zn116  1  0.06034101  0.05966722  0.31564393  1
  Zn  Zn117  1  0.04835469  0.07081221  0.82131152  1
  Zn  Zn118  1  0.05750526  0.56201403  0.31967327  1
  Zn  Zn119  1  0.07410844  0.55590486  0.82013149  1
  Zn  Zn120  1  0.56261476  0.04890299  0.33517008  1
  Zn  Zn121  1  0.56979302  0.09629210  0.79182256  1
  Zn  Zn122  1  0.55662569  0.55269239  0.31771605  1
  Zn  Zn123  1  0.57593361  0.57705647  0.79868816  1
  Zn  Zn124  1  0.44131891  0.18260699  0.41999463  1
  Zn  Zn125  1  0.42883343  0.17791205  0.95621608  1
  Zn  Zn126  1  0.43572354  0.68647674  0.43779778  1
  Zn  Zn127  1  0.44589926  0.69011019  0.93641693  1
  Zn  Zn128  1  0.94762392  0.18784854  0.43606772  1
  Zn  Zn129  1  0.93731069  0.31197536  0.93691346  1
  Zn  Zn130  1  0.93664503  0.67453843  0.45245937  1
  Zn  Zn131  1  0.96003765  0.63918933  0.90976091  1
  Zn  Zn132  1  0.06705306  0.32231777  0.06588657  1
  Zn  Zn133  1  0.06520319  0.31170071  0.56290189  1
  Zn  Zn134  1  0.06087110  0.67005635  0.06902610  1
  Zn  Zn135  1  -0.04380211  0.81205020  0.56802026  1
  Zn  Zn136  1  0.56849082  0.32658091  0.05649679  1
  Zn  Zn137  1  0.59892813  0.30595005  0.56067710  1
  Zn  Zn138  1  0.57073603  0.81414928  0.06648222  1
  Zn  Zn139  1  0.54716318  0.81503321  0.56718530  1
  O  O140  1  0.12081355  0.12925450  0.11245045  1
  O  O141  1  0.14732361  0.11901515  0.61371873  1
  O  O142  1  0.14227596  0.61329690  0.11879041  1
  O  O143  1  0.12797863  0.60206724  0.62748975  1
  O  O144  1  0.63388796  0.11576772  0.12049509  1
  O  O145  1  0.62296486  0.10627156  0.60443647  1
  O  O146  1  0.63243033  0.60723376  0.11907479  1
  O  O147  1  0.58839430  0.62901779  0.65707671  1
  O  O148  1  0.39503775  0.38383234  0.38566512  1
  O  O149  1  0.36866578  0.36799758  0.88679796  1
  O  O150  1  0.37952209  0.87391891  0.37859536  1
  O  O151  1  0.38331030  0.86544610  0.89235884  1
  O  O152  1  0.88679604  0.38696804  0.37392021  1
  O  O153  1  0.86676747  0.37442711  0.87056954  1
  O  O154  1  0.89778784  0.86318970  0.38128294  1
  O  O155  1  0.91573588  0.86307832  0.77628401  1
  O  O156  1  0.26187662  -0.00515947  0.37173544  1
  O  O157  1  0.15774916  -0.05885305  0.79704906  1
  O  O158  1  0.27531866  0.48453058  0.37756194  1
  O  O159  1  0.24731743  0.51379621  0.86800192  1
  O  O160  1  0.75430219  0.01072144  0.35382085  1
  O  O161  1  0.74694266  0.01918416  0.88381164  1
  O  O162  1  0.76482960  0.49710950  0.39481579  1
  O  O163  1  0.76647390  0.50212672  0.88899579  1
  O  O164  1  0.26338469  0.48783466  0.12780068  1
  O  O165  1  0.24619996  0.49185280  0.63734393  1
  O  O166  1  0.22875177  1.00314689  0.12162606  1
  O  O167  1  0.29181505  1.00734746  0.62533022  1
  O  O168  1  0.74442139  0.48852886  0.12069619  1
  O  O169  1  0.80271802  0.43334936  0.62719055  1
  O  O170  1  0.76492928  1.00305501  0.13586981  1
  O  O171  1  0.72570634  0.96351323  0.61120993  1
  O  O172  1  0.00139155  0.38402967  0.26628554  1
  O  O173  1  0.01525084  0.37146212  0.75078734  1
  O  O174  1  0.01165944  0.85518972  0.26194860  1
  O  O175  1  0.09135156  0.87804541  0.65597724  1
  O  O176  1  0.51054551  0.39178284  0.27538860  1
  O  O177  1  0.53058667  0.38104654  0.75063010  1
  O  O178  1  0.51552177  0.85630828  0.25620322  1
  O  O179  1  0.49339501  0.87458987  0.76772290  1
  O  O180  1  0.51577395  0.09659792  0.23434536  1
  O  O181  1  0.46133277  0.11757987  0.77136346  1
  O  O182  1  0.49303343  0.63204487  0.24842855  1
  O  O183  1  0.48451564  0.64882370  0.76201758  1
  O  O184  1  0.99934831  0.13830567  0.25292486  1
  O  O185  1  0.98019909  0.14253789  0.76288431  1
  O  O186  1  0.99075355  0.63440243  0.25744903  1
  O  O187  1  1.01707832  0.61133535  0.73475120  1
  O  O188  1  0.36073763  0.26278447  0.00330283  1
  O  O189  1  0.36421836  0.25119339  0.47846246  1
  O  O190  1  0.38065646  0.75574613  0.01250945  1
  O  O191  1  0.36372436  0.75359907  0.50187757  1
  O  O192  1  0.86233693  0.25882689  0.01217112  1
  O  O193  1  0.89668368  0.19634076  0.53490161  1
  O  O194  1  0.91455911  0.84574227  -0.07462540  1
  O  O195  1  0.87751129  0.72843805  0.53673608  1
  O  O196  1  0.12964462  0.24112501  0.49387494  1
  O  O197  1  0.13250229  0.26256321  0.98863548  1
  O  O198  1  0.14335939  0.75041294  0.49695803  1
  O  O199  1  0.14045571  0.74222720  1.01472518  1
  O  O200  1  0.62264907  0.22741615  0.47785588  1
  O  O201  1  0.63558951  0.23937806  1.00270213  1
  O  O202  1  0.62142817  0.73458344  0.53122122  1
  O  O203  1  0.62746329  0.76589106  0.98038473  1
  O  O204  1  0.49519886  0.25355279  0.10485751  1
  O  O205  1  0.49431313  0.27391327  0.61154208  1
  O  O206  1  0.49373487  0.74813713  0.13417990  1
  O  O207  1  0.48275832  0.74627476  0.63816953  1
  O  O208  1  0.99168498  0.26348517  0.13591051  1
  O  O209  1  1.01046327  0.25392032  0.64852280  1
  O  O210  1  1.00777394  0.74647221  0.14201796  1
  O  O211  1  1.01593468  0.72804638  0.62446764  1
  O  O212  1  -0.00042722  0.26140771  0.36392279  1
  O  O213  1  0.01478466  0.25900495  0.86935441  1
  O  O214  1  0.00988526  0.74924322  0.39421630  1
  O  O215  1  0.00805374  0.72328990  0.85521976  1
  O  O216  1  0.50924811  0.26021532  0.37156167  1
  O  O217  1  0.50748217  0.24422020  0.90596845  1
  O  O218  1  0.49185629  0.75796128  0.35974225  1
  O  O219  1  0.50668896  0.76656098  0.87247298  1
  O  O220  1  0.24640962  0.14405351  0.48316813  1
  O  O221  1  0.24878877  0.14621202  1.00439722  1
  O  O222  1  0.25547476  0.63176439  0.50536669  1
  O  O223  1  0.26165851  0.63292970  0.98727778  1
  O  O224  1  0.73920129  0.11769275  0.47940296  1
  O  O225  1  0.74524478  0.13356249  0.99743886  1
  O  O226  1  0.73404697  0.65039116  0.45713124  1
  O  O227  1  0.79078123  0.64867850  0.98688791  1
  O  O228  1  0.26303052  0.37899744  0.00769742  1
  O  O229  1  0.24455679  0.36396241  0.51471414  1
  O  O230  1  0.25822764  0.85340516  0.00257664  1
  O  O231  1  0.26234825  0.86277834  0.49283001  1
  O  O232  1  0.73999533  0.36248248  0.00535613  1
  O  O233  1  0.76691510  0.42835457  0.55789246  1
  O  O234  1  0.75172694  0.89075287  0.01985247  1
  O  O235  1  0.76073850  0.86956400  0.48389814  1
  O  O236  1  0.14063770  0.52754670  0.25240601  1
  O  O237  1  0.13622719  0.48651872  0.74447227  1
  O  O238  1  0.12778044  0.97887224  0.26538645  1
  O  O239  1  0.13294659  1.01177858  0.75927829  1
  O  O240  1  0.63297422  0.50944288  0.24392117  1
  O  O241  1  0.64527506  0.49828036  0.75782380  1
  O  O242  1  0.62701671  0.98549412  0.24413362  1
  O  O243  1  0.61088298  1.00126054  0.73509089  1
  O  O244  1  0.36960537  -0.01750295  0.25309945  1
  O  O245  1  0.37348848  -0.01910449  0.77738207  1
  O  O246  1  0.37748945  0.50745124  0.24762036  1
  O  O247  1  0.35971592  0.48798932  0.75340487  1
  O  O248  1  0.88509390  0.00531718  0.24436170  1
  O  O249  1  0.87016805  0.02456233  0.76822345  1
  O  O250  1  0.87687880  0.51161764  0.26608657  1
  O  O251  1  0.87631616  0.50478090  0.77641281  1
  O  O252  1  0.10877128  0.36522291  0.38265245  1
  O  O253  1  0.13250283  0.38114976  0.86331388  1
  O  O254  1  0.11589569  0.85738420  0.37258639  1
  O  O255  1  0.11462372  0.83575592  0.89285669  1
  O  O256  1  0.63174703  0.35036875  0.36600408  1
  O  O257  1  0.62382032  0.35195734  0.88261855  1
  O  O258  1  0.60908182  0.88674709  0.37043669  1
  O  O259  1  0.61133420  0.87962148  0.86309442  1
  O  O260  1  0.37374543  0.14826070  0.11328077  1
  O  O261  1  0.39146555  0.15198726  0.60395492  1
  O  O262  1  0.38482597  0.62776869  0.13660666  1
  O  O263  1  0.38040330  0.64585428  0.62977046  1
  O  O264  1  0.87356855  0.15164549  0.12123736  1
  O  O265  1  0.85258205  0.12522059  0.65097353  1
  O  O266  1  0.87076523  0.61347791  0.14787591  1
  O  O267  1  0.90598322  0.60319852  0.62754548  1
  O  O268  1  0.24494684  0.26708228  0.10897196  1
  O  O269  1  0.27219840  0.25606776  0.60623092  1
  O  O270  1  0.26570895  0.73636297  0.11304388  1
  O  O271  1  0.26034537  0.74760672  0.61659773  1
  O  O272  1  0.75717815  0.26201856  0.12122531  1
  O  O273  1  0.70457832  0.25541305  0.60325201  1
  O  O274  1  0.76398876  0.76762759  0.12624170  1
  O  O275  1  0.74987094  0.78693218  0.62611697  1
  O  O276  1  0.23623103  0.27521030  0.38767929  1
  O  O277  1  0.23661311  0.25775312  0.88764351  1
  O  O278  1  0.24182307  0.73966026  0.38743889  1
  O  O279  1  0.24594841  0.74144316  0.88637149  1
  O  O280  1  0.74110737  0.23268627  0.36344390  1
  O  O281  1  0.74154718  0.24563346  0.89363318  1
  O  O282  1  0.71427794  0.79532373  0.31855082  1
  O  O283  1  0.73829589  0.77746549  0.86121804  1
  O  O284  1  -0.04552959  0.04507877  -0.04454900  1
  O  O285  1  0.02121706  0.11881004  0.50618617  1
  O  O286  1  -0.01654131  0.60983062  0.01585682  1
  O  O287  1  0.01047630  0.59883010  0.51337311  1
  O  O288  1  0.51016874  0.10762375  0.00848404  1
  O  O289  1  0.51228952  0.11603074  0.48214914  1
  O  O290  1  0.49019455  0.60725697  0.00077120  1
  O  O291  1  0.50314965  0.63468760  0.51749706  1
  O  O292  1  0.53457791  0.37915642  0.47903478  1
  O  O293  1  0.48836956  0.38969619  0.99654574  1
  O  O294  1  0.48834341  0.85975501  0.48109929  1
  O  O295  1  0.49497970  0.87902156  0.99771064  1
  O  O296  1  1.00212059  0.38606038  0.49586225  1
  O  O297  1  1.00106432  0.38552670  0.99585910  1
  O  O298  1  1.01203139  0.87737079  0.49583258  1
  O  O299  1  0.96182743  0.84883269  0.97954835  1
  O  O300  1  0.49163495  0.49426575  0.38872241  1
  O  O301  1  0.50832070  0.51079609  0.87379918  1
  O  O302  1  0.48207415  0.97575251  0.36537873  1
  O  O303  1  0.49934437  0.98601451  0.89223081  1
  O  O304  1  1.00140170  0.49044870  0.39089096  1
  O  O305  1  0.98207462  0.52262511  0.88546073  1
  O  O306  1  1.00501948  0.98282439  0.37654713  1
  O  O307  1  0.98532702  1.00237062  0.89576830  1
  O  O308  1  0.03519545  -0.00581065  0.13136483  1
  O  O309  1  -0.02206824  0.02651422  0.64069745  1
  O  O310  1  -0.00105808  0.48925998  0.11372821  1
  O  O311  1  0.01669559  0.49016270  0.61906753  1
  O  O312  1  0.51187471  -0.01777502  0.12004928  1
  O  O313  1  0.49998775  -0.00183117  0.61620486  1
  O  O314  1  0.51884689  0.49671279  0.13197413  1
  O  O315  1  0.47833992  0.51830251  0.62632344  1
  O  O316  1  0.25997169  0.37067013  0.23205001  1
  O  O317  1  0.24348204  0.37940925  0.74508292  1
  O  O318  1  0.23780016  0.85873707  0.26055327  1
  O  O319  1  0.23344496  0.92409960  0.77944387  1
  O  O320  1  0.75100387  0.37475922  0.24297149  1
  O  O321  1  0.70804890  0.34094932  0.74362472  1
  O  O322  1  0.76183831  0.89926800  0.23494981  1
  O  O323  1  0.72545135  0.88933177  0.75322653  1
  O  O324  1  0.25520769  0.16973810  0.26498932  1
  O  O325  1  0.28814752  0.12484175  0.76462498  1
  O  O326  1  0.27544332  0.62911979  0.25609772  1
  O  O327  1  0.25187054  0.60908203  0.75673138  1
  O  O328  1  0.75732947  0.11475354  0.25360203  1
  O  O329  1  0.75506196  0.14471751  0.77141044  1
  O  O330  1  0.76587784  0.64023564  0.25797262  1
  O  O331  1  0.75198604  0.62279625  0.61312235  1
  O  O332  1  0.37899592  0.09931050  0.36978760  1
  O  O333  1  0.36754980  0.09578801  0.90799669  1
  O  O334  1  0.38843495  0.60658390  0.36658442  1
  O  O335  1  0.36298226  0.63777184  0.86930294  1
  O  O336  1  0.86352476  0.13415056  0.37598612  1
  O  O337  1  0.85815217  0.13703335  0.87643779  1
  O  O338  1  0.88033093  0.60985813  0.37386018  1
  O  O339  1  0.82996859  0.66072108  0.92444131  1
  O  O340  1  0.14323368  0.38933847  0.12046593  1
  O  O341  1  0.13843751  0.37939965  0.63598994  1
  O  O342  1  0.13333447  0.86755368  0.15130243  1
  O  O343  1  0.14861082  0.90700084  0.62237943  1
  O  O344  1  0.63835381  0.38722004  0.12636658  1
  O  O345  1  0.61839257  0.40797846  0.61907533  1
  O  O346  1  0.64238202  0.86205127  0.14779766  1
  O  O347  1  0.60156461  0.88502258  0.64061639  1
  O  O348  1  0.10582273  0.25517483  0.25669775  1
  O  O349  1  0.12117544  0.26360660  0.76665236  1
  O  O350  1  0.11262536  0.74182716  0.27124073  1
  O  O351  1  0.13970197  0.75658388  0.75418219  1
  O  O352  1  0.62000547  0.23512742  0.25695085  1
  O  O353  1  0.60219870  0.21554752  0.78122953  1
  O  O354  1  0.61013212  0.73813683  0.23725272  1
  O  O355  1  0.60758774  0.77348599  0.75098383  1
  O  O356  1  0.39555060  0.26375831  0.22858321  1
  O  O357  1  0.38656054  0.25831988  0.73549571  1
  O  O358  1  0.38635429  0.73996255  0.24396173  1
  O  O359  1  0.36777051  0.77448872  0.73829432  1
  O  O360  1  0.88803965  0.26010412  0.23991273  1
  O  O361  1  0.88691568  0.25750676  0.75460639  1
  O  O362  1  0.89210183  0.73891480  0.26011742  1
  O  O363  1  0.84462068  0.71476457  0.72032969  1
  O  O364  1  0.37503239  0.50214147  0.50038848  1
  O  O365  1  0.38452869  0.49015641  0.99510821  1
  O  O366  1  0.37368019  0.98132731  0.48549789  1
  O  O367  1  0.38360660  0.98020389  1.02237209  1
  O  O368  1  0.88612228  0.50360796  0.49213823  1
  O  O369  1  0.88619247  0.49208525  0.98677815  1
  O  O370  1  0.88089524  1.02936871  0.51545488  1
  O  O371  1  0.90001704  1.00429313  0.99585379  1
  O  O372  1  0.12433860  0.00482139  -0.00337821  1
  O  O373  1  0.14622528  0.02073936  0.48999809  1
  O  O374  1  0.10515635  0.50276785  -0.00981335  1
  O  O375  1  0.13092975  0.48799356  0.51617269  1
  O  O376  1  0.61620004  0.00586447  0.00060122  1
  O  O377  1  0.61824778  -0.00004380  0.50242917  1
  O  O378  1  0.60610514  0.49356848  -0.00129761  1
  O  O379  1  0.63307888  0.54736313  0.51458934  1
  O  O380  1  0.37137684  0.36546374  0.11185532  1
  O  O381  1  0.36624704  0.37169170  0.62874123  1
  O  O382  1  0.36739956  0.85912922  0.12496884  1
  O  O383  1  0.38317618  0.86228215  0.60309118  1
  O  O384  1  0.85782760  0.37070992  0.12745779  1
  O  O385  1  0.86710820  0.38676397  0.63450336  1
  O  O386  1  0.87622658  0.87997382  0.12241192  1
  O  O387  1  0.87804660  0.88714402  0.61043595  1
  O  O388  1  0.12243892  0.14164553  0.37633861  1
  O  O389  1  0.12162593  0.14176569  0.87630795  1
  O  O390  1  0.11802072  0.63499672  0.38754939  1
  O  O391  1  0.14150076  0.63820028  0.87101414  1
  O  O392  1  0.63323306  0.12165053  0.37912075  1
  O  O393  1  0.63250785  0.13012244  0.89433715  1
  O  O394  1  0.60050554  0.64319192  0.37903452  1
  O  O395  1  0.63068016  0.65566410  0.86103100  1
