# generated using pymatgen
data_V35Zn35O128
_symmetry_space_group_name_H-M   'P 1'
_cell_length_a   16.80620371
_cell_length_b   16.82804558
_cell_length_c   16.81563204
_cell_angle_alpha   89.88889041
_cell_angle_beta   90.02123566
_cell_angle_gamma   89.96373855
_symmetry_Int_Tables_number   1
_chemical_formula_structural   V35Zn35O128
_chemical_formula_sum   'V70 Zn70 O256'
_cell_volume   4755.71220321
_cell_formula_units_Z   2
loop_
 _symmetry_equiv_pos_site_id
 _symmetry_equiv_pos_as_xyz
  1  'x, y, z'
loop_
 _atom_site_type_symbol
 _atom_site_label
 _atom_site_symmetry_multiplicity
 _atom_site_fract_x
 _atom_site_fract_y
 _atom_site_fract_z
 _atom_site_occupancy
  V  V0  1  0.49850214  0.65218305  0.62020131  1
  V  V1  1  0.01072424  0.02058204  0.49898653  1
  V  V2  1  0.75094714  0.50696047  0.25687763  1
  V  V3  1  0.61768341  0.51032690  0.12819085  1
  V  V4  1  0.87103837  0.51587626  0.36890843  1
  V  V5  1  0.13082167  0.01089582  0.63964118  1
  V  V6  1  0.74782019  0.38950012  0.61113359  1
  V  V7  1  0.37711889  0.37246994  0.00569580  1
  V  V8  1  0.14013674  0.49122809  0.62392956  1
  V  V9  1  0.38421411  0.24489775  0.13985274  1
  V  V10  1  -0.00291559  0.37285482  0.37167427  1
  V  V11  1  0.26265976  0.61659344  0.35947656  1
  V  V12  1  0.62504930  0.12809377  0.50342134  1
  V  V13  1  -0.00063624  0.62427889  0.62638615  1
  V  V14  1  -0.00370084  0.11189723  0.12042974  1
  V  V15  1  0.75172554  0.75984310  0.48898794  1
  V  V16  1  0.62371571  0.61916176  0.49864148  1
  V  V17  1  0.36888663  0.11073451  0.75854790  1
  V  V18  1  0.37239298  0.26304151  0.62785738  1
  V  V19  1  0.75262853  0.25279218  -0.01210991  1
  V  V20  1  0.74371443  0.00381684  0.23564089  1
  V  V21  1  0.75963943  0.10692231  0.86583219  1
  V  V22  1  0.61546363  0.24832971  0.37417217  1
  V  V23  1  0.88811624  0.88472562  0.49015339  1
  V  V24  1  0.48126657  0.74570288  0.23239393  1
  V  V25  1  0.37533363  0.63556283  0.74131910  1
  V  V26  1  0.75924846  0.36370793  0.13075272  1
  V  V27  1  0.25073539  0.63046155  0.88433412  1
  V  V28  1  0.37222039  0.49801931  0.86597323  1
  V  V29  1  -0.02728895  0.61429216  0.13702134  1
  V  V30  1  0.25159821  0.24791871  0.50820227  1
  V  V31  1  0.87050905  0.24563661  0.62252769  1
  V  V32  1  0.48765610  -0.01143076  0.49290630  1
  V  V33  1  0.48718252  0.38733070  0.38936970  1
  V  V34  1  0.60542468  0.36937918  0.24538552  1
  V  V35  1  0.13406076  0.63108814  0.49325344  1
  V  V36  1  -0.00210515  0.24841326  0.24368148  1
  V  V37  1  0.12642186  0.38567742  0.25195008  1
  V  V38  1  0.11701267  0.61462353  0.01496217  1
  V  V39  1  0.75380616  0.84860500  0.12101258  1
  V  V40  1  0.87770903  0.87694008  0.00142727  1
  V  V41  1  0.12799957  0.76609910  0.36719567  1
  V  V42  1  0.86939947  0.75530416  0.62759015  1
  V  V43  1  0.24159770  0.24833829  -0.00291856  1
  V  V44  1  0.64181688  0.86687184  0.75175621  1
  V  V45  1  0.50492182  0.87994186  0.88205046  1
  V  V46  1  0.12909303  0.23077106  0.38253845  1
  V  V47  1  0.62883642  0.37603726  0.73939510  1
  V  V48  1  0.63859828  -0.00060499  0.63366705  1
  V  V49  1  0.50458598  0.10250505  0.13479949  1
  V  V50  1  0.75395981  0.12308515  0.38414148  1
  V  V51  1  0.25040755  0.10720080  0.88159455  1
  V  V52  1  0.24262208  0.86095705  0.60868481  1
  V  V53  1  0.24439514  0.37959504  0.13313811  1
  V  V54  1  0.50433292  0.51025913  0.00043263  1
  V  V55  1  -0.00159762  0.49866160  0.49721929  1
  V  V56  1  0.34266202  0.01239810  0.34669022  1
  V  V57  1  0.62106214  0.11487069  -0.00344790  1
  V  V58  1  -0.00426848  0.89545966  0.87602578  1
  V  V59  1  0.13576959  0.37685743  0.75869651  1
  V  V60  1  0.11645350  0.11377770  0.00275708  1
  V  V61  1  0.60798582  0.76520936  0.37625796  1
  V  V62  1  0.50441172  0.36265116  0.87609355  1
  V  V63  1  0.11736416  0.75210205  0.87454175  1
  V  V64  1  -0.01122153  0.76076421  0.24908747  1
  V  V65  1  0.49353940  0.11956321  0.62826536  1
  V  V66  1  -0.00719047  0.25428853  0.75637344  1
  V  V67  1  0.87278266  0.12547812  0.24659576  1
  V  V68  1  0.21804307  -0.01535190  0.22360066  1
  V  V69  1  0.86143596  0.61018696  0.75709929  1
  Zn  Zn70  1  0.62102768  0.88277417  0.24916529  1
  Zn  Zn71  1  0.99999879  0.39145262  -0.11535723  1
  Zn  Zn72  1  0.63945920  0.71681711  0.86051088  1
  Zn  Zn73  1  0.86198998  0.37184515  0.49092165  1
  Zn  Zn74  1  0.00538659  0.75121489  0.74764138  1
  Zn  Zn75  1  0.50089359  0.23898884  0.76192205  1
  Zn  Zn76  1  0.18247724  0.18942662  0.19104362  1
  Zn  Zn77  1  0.18576815  0.19346391  0.69569373  1
  Zn  Zn78  1  0.18642803  0.69640693  0.19267220  1
  Zn  Zn79  1  0.19318294  0.68355687  0.69238377  1
  Zn  Zn80  1  0.67829035  0.18628381  0.18731449  1
  Zn  Zn81  1  0.68894668  0.19584593  0.68950707  1
  Zn  Zn82  1  0.67964756  0.68907865  0.19811970  1
  Zn  Zn83  1  0.68906736  0.68312599  0.67897892  1
  Zn  Zn84  1  0.31020090  0.30626497  0.31971351  1
  Zn  Zn85  1  0.31468661  0.30715733  0.81247465  1
  Zn  Zn86  1  0.30900428  0.82267577  0.32064751  1
  Zn  Zn87  1  0.32202027  0.81162304  0.82096080  1
  Zn  Zn88  1  0.80643866  0.31009272  0.30952029  1
  Zn  Zn89  1  0.80740727  0.32082932  0.80695572  1
  Zn  Zn90  1  0.81534483  0.82050291  0.31260686  1
  Zn  Zn91  1  0.81463302  0.81310086  0.81450991  1
  Zn  Zn92  1  0.19655258  0.43562991  0.43770546  1
  Zn  Zn93  1  0.18843740  0.44077729  0.94231566  1
  Zn  Zn94  1  0.19099360  0.94774749  0.44021628  1
  Zn  Zn95  1  0.18097829  0.93049765  0.95052505  1
  Zn  Zn96  1  0.67633820  0.43596230  0.43332028  1
  Zn  Zn97  1  0.67588595  0.42550058  0.94675760  1
  Zn  Zn98  1  0.69129223  0.94462275  0.44321692  1
  Zn  Zn99  1  0.68793042  0.93104150  0.94382359  1
  Zn  Zn100  1  0.29589527  0.07821923  0.11451953  1
  Zn  Zn101  1  0.30271210  0.06233940  0.56459058  1
  Zn  Zn102  1  0.31756779  0.56432313  0.07462058  1
  Zn  Zn103  1  0.31623296  0.57121794  0.55886547  1
  Zn  Zn104  1  0.81708114  0.06747942  0.05057021  1
  Zn  Zn105  1  0.84728749  0.03417621  0.62481555  1
  Zn  Zn106  1  0.79640496  0.56341873  0.06873731  1
  Zn  Zn107  1  0.80939314  0.56647720  0.55737241  1
  Zn  Zn108  1  0.42585216  0.45344824  0.19116410  1
  Zn  Zn109  1  0.45697766  0.44431115  0.68892830  1
  Zn  Zn110  1  0.43460835  0.93416628  0.21093288  1
  Zn  Zn111  1  0.44776814  0.93285243  0.70066576  1
  Zn  Zn112  1  0.93777419  0.43762135  0.05937683  1
  Zn  Zn113  1  0.93929615  0.43082053  0.68739977  1
  Zn  Zn114  1  0.93005016  0.93851156  0.18905290  1
  Zn  Zn115  1  0.95947202  0.93512494  0.69150751  1
  Zn  Zn116  1  0.05727096  0.04817829  0.31226264  1
  Zn  Zn117  1  0.06535074  0.07111689  0.80965765  1
  Zn  Zn118  1  0.06216674  0.56701464  0.30868764  1
  Zn  Zn119  1  0.06375233  0.55485568  0.81091747  1
  Zn  Zn120  1  0.55942112  0.06174979  0.31539638  1
  Zn  Zn121  1  0.56640018  0.05654859  0.81972460  1
  Zn  Zn122  1  0.55413880  0.57058484  0.32048419  1
  Zn  Zn123  1  0.56665162  0.55588121  0.79397326  1
  Zn  Zn124  1  0.43282326  0.18266093  0.43777596  1
  Zn  Zn125  1  0.43391490  0.17772737  0.94950087  1
  Zn  Zn126  1  0.42863666  0.70338681  0.44243490  1
  Zn  Zn127  1  0.45600422  0.68938691  0.91740899  1
  Zn  Zn128  1  0.93443732  0.18836173  0.44126249  1
  Zn  Zn129  1  0.93133275  0.19885801  0.93653117  1
  Zn  Zn130  1  0.94314415  0.69509646  0.43496578  1
  Zn  Zn131  1  0.92851483  0.67602768  0.93983973  1
  Zn  Zn132  1  0.06197887  0.30989489  0.06252841  1
  Zn  Zn133  1  0.06006162  0.30629447  0.56496428  1
  Zn  Zn134  1  0.01832004  0.77616513  0.03935943  1
  Zn  Zn135  1  0.06788791  0.81643360  0.56194273  1
  Zn  Zn136  1  0.56735158  0.30432301  0.06081185  1
  Zn  Zn137  1  0.55932725  0.30761930  0.56296698  1
  Zn  Zn138  1  0.54948465  0.83222149  0.08202041  1
  Zn  Zn139  1  0.56769278  0.81929443  0.56694269  1
  O  O140  1  0.11030884  0.13083715  0.11195482  1
  O  O141  1  0.13525642  0.11283472  0.63333128  1
  O  O142  1  0.14087410  0.62650256  0.11235015  1
  O  O143  1  0.11708000  0.61653760  0.61516121  1
  O  O144  1  0.61089183  0.12551729  0.11891626  1
  O  O145  1  0.61584660  0.12274166  0.62284034  1
  O  O146  1  0.62478539  0.60924003  0.13253503  1
  O  O147  1  0.60760245  0.63134286  0.61481320  1
  O  O148  1  0.38875819  0.36771574  0.37156712  1
  O  O149  1  0.37844220  0.38185728  0.88565086  1
  O  O150  1  0.36581621  0.91421571  0.37206302  1
  O  O151  1  0.40386015  0.85260482  0.88561752  1
  O  O152  1  0.88519347  0.37681650  0.37155973  1
  O  O153  1  0.85899803  0.40420756  0.88805685  1
  O  O154  1  0.87002103  0.88559578  0.39101799  1
  O  O155  1  0.88747293  0.87365401  0.88441097  1
  O  O156  1  0.23837959  0.01354473  0.35574226  1
  O  O157  1  0.25105980  0.00766743  0.89187761  1
  O  O158  1  0.25226328  0.51543912  0.37947823  1
  O  O159  1  0.26810567  0.50554478  0.88093131  1
  O  O160  1  0.74500563  0.01816294  0.36584911  1
  O  O161  1  0.75076803  0.00742071  0.87713169  1
  O  O162  1  0.75887629  0.49182342  0.36805510  1
  O  O163  1  0.81732439  0.46517560  0.91886204  1
  O  O164  1  0.24320532  0.47641538  0.11626283  1
  O  O165  1  0.23904677  0.50228006  0.61366310  1
  O  O166  1  0.23721428  0.98098207  0.11995943  1
  O  O167  1  0.23683070  0.98760250  0.62146252  1
  O  O168  1  0.73440862  0.48999172  0.13531343  1
  O  O169  1  0.74610337  0.49022183  0.61732067  1
  O  O170  1  0.75196259  1.01260073  0.13587789  1
  O  O171  1  0.73525944  1.00976474  0.61433976  1
  O  O172  1  0.01289234  0.36413112  0.25722641  1
  O  O173  1  0.01199431  0.37770649  0.75754085  1
  O  O174  1  -0.00517611  0.86182517  0.24132629  1
  O  O175  1  -0.00092841  0.86534471  0.77254844  1
  O  O176  1  0.50336815  0.38531216  0.25054193  1
  O  O177  1  0.48483144  0.36209325  0.77281427  1
  O  O178  1  0.50964382  0.85817428  0.23429460  1
  O  O179  1  0.51965541  0.87373947  0.76308689  1
  O  O180  1  0.50514595  0.12213418  0.23462471  1
  O  O181  1  0.48757715  0.12271452  0.74995425  1
  O  O182  1  0.49991381  0.64857856  0.26092809  1
  O  O183  1  0.48802214  0.61179120  0.72652583  1
  O  O184  1  0.99387192  0.12735142  0.24015417  1
  O  O185  1  1.00570723  0.15397608  0.76037237  1
  O  O186  1  0.99635065  0.62749946  0.24094905  1
  O  O187  1  0.99745283  0.62185434  0.73268582  1
  O  O188  1  0.36857078  0.26080173  0.00896115  1
  O  O189  1  0.36730099  0.24525932  0.51638695  1
  O  O190  1  0.37846079  0.73951331  0.01001272  1
  O  O191  1  0.37605502  0.76637947  0.51881367  1
  O  O192  1  0.85231998  0.24754439  0.00811450  1
  O  O193  1  0.88198732  0.25981554  0.51459909  1
  O  O194  1  0.89689486  0.76641687  0.00393367  1
  O  O195  1  0.86810694  0.75461844  0.50327993  1
  O  O196  1  0.12869666  0.24999514  0.49039226  1
  O  O197  1  0.13856349  0.24438068  1.00271796  1
  O  O198  1  0.11346895  0.73414544  0.48781026  1
  O  O199  1  0.12021651  0.72782670  0.98273954  1
  O  O200  1  0.62140741  0.23542850  0.49385770  1
  O  O201  1  0.64120065  0.23515031  1.01102652  1
  O  O202  1  0.63653154  0.75787890  0.49384007  1
  O  O203  1  0.67772618  0.67853666  1.00543769  1
  O  O204  1  0.48499403  0.25873926  0.12772141  1
  O  O205  1  0.48703150  0.23561661  0.62521762  1
  O  O206  1  0.50248911  0.74194743  0.13061365  1
  O  O207  1  0.49840456  0.75060518  0.63075802  1
  O  O208  1  1.00516143  0.24400134  0.14065971  1
  O  O209  1  0.98276088  0.26717989  0.63863183  1
  O  O210  1  1.00597049  0.73218421  0.14294795  1
  O  O211  1  0.99743731  0.73517438  0.62092435  1
  O  O212  1  0.00797811  0.25666281  0.37171556  1
  O  O213  1  -0.01767075  0.27156076  0.86244812  1
  O  O214  1  0.01461616  0.74285224  0.36170537  1
  O  O215  1  0.01275117  0.73633845  0.87215763  1
  O  O216  1  0.50970169  0.25495518  0.37971301  1
  O  O217  1  0.49547943  0.26030111  0.88730524  1
  O  O218  1  0.50673085  0.76602725  0.37824811  1
  O  O219  1  0.53441264  0.75730955  0.88295588  1
  O  O220  1  0.24965090  0.14402672  0.50283656  1
  O  O221  1  0.24283884  0.13142207  1.00042212  1
  O  O222  1  0.23658994  0.62728482  0.49701594  1
  O  O223  1  0.25169192  0.61788088  0.98943900  1
  O  O224  1  0.73982906  0.12206378  0.48646233  1
  O  O225  1  0.74381766  0.13519916  0.98962780  1
  O  O226  1  0.73281194  0.64126705  0.50846441  1
  O  O227  1  0.74464054  0.64735886  0.99441542  1
  O  O228  1  0.25340766  0.36453289  0.00935095  1
  O  O229  1  0.24893020  0.35210981  0.49184824  1
  O  O230  1  0.24366685  0.85252467  0.01448799  1
  O  O231  1  0.25437915  0.87734376  0.50894568  1
  O  O232  1  0.73611726  0.36282161  0.01990385  1
  O  O233  1  0.74204426  0.37543160  0.50637437  1
  O  O234  1  0.76032749  0.86439011  0.01133788  1
  O  O235  1  0.76181752  0.86557394  0.50250709  1
  O  O236  1  0.12040355  0.48413226  0.25072175  1
  O  O237  1  0.12669179  0.49328375  0.73243955  1
  O  O238  1  0.11678083  0.99048400  0.23747442  1
  O  O239  1  0.12086906  0.99833737  0.74108152  1
  O  O240  1  0.62567832  0.49099172  0.24474978  1
  O  O241  1  0.57535383  0.46735945  0.72260559  1
  O  O242  1  0.63980850  1.00032747  0.25268398  1
  O  O243  1  0.62764016  1.00237566  0.73672767  1
  O  O244  1  0.35598814  0.00608213  0.24086159  1
  O  O245  1  0.37379827  0.01257995  0.75166027  1
  O  O246  1  0.37022555  0.54810953  0.17323027  1
  O  O247  1  0.38190839  0.50154071  0.76377441  1
  O  O248  1  0.86520129  0.01706357  0.25032248  1
  O  O249  1  0.87678189  0.00064175  0.72759689  1
  O  O250  1  0.85866093  0.50104244  0.26114279  1
  O  O251  1  0.87845556  0.51173261  0.74145561  1
  O  O252  1  0.11840295  0.37218764  0.36500693  1
  O  O253  1  0.12720723  0.38658432  0.86233796  1
  O  O254  1  0.12863962  0.86342805  0.38498118  1
  O  O255  1  0.11376130  0.85963572  0.88535164  1
  O  O256  1  0.61316949  0.36975911  0.36235555  1
  O  O257  1  0.61071723  0.38505439  0.86247629  1
  O  O258  1  0.63477144  0.86737269  0.37522124  1
  O  O259  1  0.62935284  0.88201457  0.85785066  1
  O  O260  1  0.39303269  0.13736574  0.11164550  1
  O  O261  1  0.37665973  0.12629690  0.64164423  1
  O  O262  1  0.35942624  0.70052847  0.07060553  1
  O  O263  1  0.37796737  0.63576944  0.63302136  1
  O  O264  1  0.88750736  0.12739151  0.12928465  1
  O  O265  1  0.86610285  0.14702309  0.62535134  1
  O  O266  1  0.87264825  0.62480900  0.12484119  1
  O  O267  1  0.88662128  0.63168686  0.62012071  1
  O  O268  1  0.26000027  0.25184203  0.11532288  1
  O  O269  1  0.26003540  0.25102564  0.62119974  1
  O  O270  1  0.24648512  0.78016792  0.12545031  1
  O  O271  1  0.23782620  0.75868177  0.62058007  1
  O  O272  1  0.75117777  0.26148939  0.13647243  1
  O  O273  1  0.76270727  0.26819698  0.63538855  1
  O  O274  1  0.75673931  0.75008031  0.13796721  1
  O  O275  1  0.76582406  0.74856715  0.61395501  1
  O  O276  1  0.23507989  0.24357924  0.38082085  1
  O  O277  1  0.25869935  0.24317843  0.89464905  1
  O  O278  1  0.23337920  0.73933219  0.36984093  1
  O  O279  1  0.24588003  0.73734876  0.87563492  1
  O  O280  1  0.73124601  0.23757705  0.36519485  1
  O  O281  1  0.74719899  0.26228661  0.88628864  1
  O  O282  1  0.74918876  0.75132134  0.38686001  1
  O  O283  1  0.74524167  0.75216021  0.87879004  1
  O  O284  1  0.00691858  0.13551670  0.00718153  1
  O  O285  1  -0.00355579  0.12002000  0.50872995  1
  O  O286  1  0.00776617  0.63004834  0.02258768  1
  O  O287  1  0.00624388  0.61508948  0.50346593  1
  O  O288  1  0.51322411  0.12347624  0.00925152  1
  O  O289  1  0.50651911  0.11774662  0.51077210  1
  O  O290  1  0.49306143  0.60803586  -0.00328826  1
  O  O291  1  0.50707223  0.64067210  0.51116475  1
  O  O292  1  0.50571028  0.37467011  0.48866826  1
  O  O293  1  0.49607385  0.37760591  0.99348119  1
  O  O294  1  0.49818051  0.88995314  0.51237285  1
  O  O295  1  0.53803993  0.87754434  0.98277689  1
  O  O296  1  1.00559071  0.38675047  0.48719631  1
  O  O297  1  0.99641634  0.36793555  0.99706957  1
  O  O298  1  0.98891718  0.86654751  0.49494707  1
  O  O299  1  0.99653742  0.87997126  0.98882702  1
  O  O300  1  0.49917599  0.48750722  0.37357973  1
  O  O301  1  0.48918838  0.48822516  0.88804301  1
  O  O302  1  0.50621267  0.99744809  0.39183419  1
  O  O303  1  0.49836061  0.98357441  0.87351473  1
  O  O304  1  0.98771754  0.49557976  0.37554344  1
  O  O305  1  0.99702806  0.50593242  0.88395122  1
  O  O306  1  0.99785848  1.00507670  0.39796826  1
  O  O307  1  1.00407532  0.99423754  0.87248071  1
  O  O308  1  -0.00359393  0.01331828  0.12428049  1
  O  O309  1  0.02103225  -0.00944738  0.61352866  1
  O  O310  1  -0.01171986  0.51429771  0.12721010  1
  O  O311  1  0.00280763  0.50814154  0.61245987  1
  O  O312  1  0.49622967  0.00294997  0.13137003  1
  O  O313  1  0.50463349  0.00948820  0.62370377  1
  O  O314  1  0.51060033  0.49269705  0.11309425  1
  O  O315  1  0.46620087  0.50794249  0.58764163  1
  O  O316  1  0.23995596  0.37008446  0.24392877  1
  O  O317  1  0.23689956  0.36766590  0.75287558  1
  O  O318  1  0.24309445  0.88784991  0.25008106  1
  O  O319  1  0.28694338  0.87556037  0.72653134  1
  O  O320  1  0.73635297  0.38242275  0.24467418  1
  O  O321  1  0.73072193  0.39063428  0.74728273  1
  O  O322  1  0.75985529  0.89112013  0.23704146  1
  O  O323  1  0.74333462  0.87780940  0.74828816  1
  O  O324  1  0.24309584  0.09998549  0.21922988  1
  O  O325  1  0.25595514  0.12829400  0.77145445  1
  O  O326  1  0.24858686  0.62576398  0.25866780  1
  O  O327  1  0.26782777  0.62213711  0.76163202  1
  O  O328  1  0.75300033  0.12070315  0.25367676  1
  O  O329  1  0.74034025  0.13255803  0.76818862  1
  O  O330  1  0.73700064  0.60517400  0.25411651  1
  O  O331  1  0.76208883  0.62039866  0.73788741  1
  O  O332  1  0.38058356  0.10496973  0.37475246  1
  O  O333  1  0.36484220  0.12563760  0.87116926  1
  O  O334  1  0.36055063  0.63472645  0.38222848  1
  O  O335  1  0.37457583  0.61375566  0.87166307  1
  O  O336  1  0.85912762  0.13448621  0.36874260  1
  O  O337  1  0.85898882  0.12775333  0.88155291  1
  O  O338  1  0.87484021  0.61372424  0.37943955  1
  O  O339  1  0.87375253  0.62475400  0.85716890  1
  O  O340  1  0.13517126  0.36104476  0.14031782  1
  O  O341  1  0.12241018  0.38861293  0.62498882  1
  O  O342  1  0.20149233  0.82137254  0.07571597  1
  O  O343  1  0.13674864  0.87868880  0.62617868  1
  O  O344  1  0.62550210  0.37918542  0.13792757  1
  O  O345  1  0.63685515  0.36574500  0.62801093  1
  O  O346  1  0.65021882  0.86785264  0.12902453  1
  O  O347  1  0.62532524  0.89166970  0.63563993  1
  O  O348  1  0.11728291  0.25244871  0.26453191  1
  O  O349  1  0.11145727  0.27005527  0.74097008  1
  O  O350  1  0.11595915  0.75468658  0.26137964  1
  O  O351  1  0.12587943  0.73846271  0.76848085  1
  O  O352  1  0.61769376  0.26401476  0.25424904  1
  O  O353  1  0.61313463  0.26996871  0.74527105  1
  O  O354  1  0.62128366  0.75471801  0.26935928  1
  O  O355  1  0.63547840  0.76229110  0.74279467  1
  O  O356  1  0.36618533  0.24582729  0.23771278  1
  O  O357  1  0.37445715  0.23784377  0.74108880  1
  O  O358  1  0.38214151  0.76370073  0.24919344  1
  O  O359  1  0.38706345  0.73093409  0.76338793  1
  O  O360  1  0.88630110  0.23925141  0.25714653  1
  O  O361  1  0.88255367  0.26780994  0.74042911  1
  O  O362  1  0.88838909  0.74767978  0.26405604  1
  O  O363  1  0.87833243  0.73873286  0.73504356  1
  O  O364  1  0.40815942  0.49968808  0.53508027  1
  O  O365  1  0.38562717  0.48754193  1.00047169  1
  O  O366  1  0.38797949  1.00730008  0.50828817  1
  O  O367  1  0.37652280  0.94981745  1.01999428  1
  O  O368  1  0.88017788  0.49742132  0.48607249  1
  O  O369  1  0.85673587  0.50018747  0.98793047  1
  O  O370  1  0.89112978  0.98681797  0.52171221  1
  O  O371  1  0.87347672  0.97991918  1.00313147  1
  O  O372  1  0.12032814  0.01463822  0.00227514  1
  O  O373  1  0.11637875  0.00568908  0.50595352  1
  O  O374  1  0.12340163  0.51467573  -0.00176984  1
  O  O375  1  0.11789326  0.50755220  0.50518814  1
  O  O376  1  0.64011884  0.01649374  0.00863496  1
  O  O377  1  0.61536040  0.00927010  0.51175677  1
  O  O378  1  0.61642439  0.49779016  0.01280855  1
  O  O379  1  0.62480976  0.52031139  0.49168888  1
  O  O380  1  0.36311813  0.36672056  0.12519435  1
  O  O381  1  0.38742200  0.36056382  0.63687806  1
  O  O382  1  0.38844373  0.89626461  0.06846818  1
  O  O383  1  0.34709410  0.87256322  0.66622992  1
  O  O384  1  0.85666621  0.38365271  0.12942452  1
  O  O385  1  0.85884501  0.37957714  0.61838133  1
  O  O386  1  0.86429989  0.87516318  0.11679297  1
  O  O387  1  0.88899318  0.85528061  0.61916997  1
  O  O388  1  0.11436794  0.13408835  0.37248710  1
  O  O389  1  0.13947588  0.12480317  0.88940896  1
  O  O390  1  0.13080277  0.62189365  0.38539513  1
  O  O391  1  0.14286468  0.62188762  0.87731579  1
  O  O392  1  0.62761288  0.13083400  0.38252173  1
  O  O393  1  0.63101609  0.12381379  0.88939969  1
  O  O394  1  0.61515065  0.64594089  0.39297174  1
  O  O395  1  0.63105804  0.60371828  0.86629624  1
