# generated using pymatgen
data_V35Zn35O128
_symmetry_space_group_name_H-M   'P 1'
_cell_length_a   16.94355173
_cell_length_b   16.95773421
_cell_length_c   16.91078122
_cell_angle_alpha   89.64880823
_cell_angle_beta   90.09724961
_cell_angle_gamma   89.77968277
_symmetry_Int_Tables_number   1
_chemical_formula_structural   V35Zn35O128
_chemical_formula_sum   'V70 Zn70 O256'
_cell_volume   4858.74308699
_cell_formula_units_Z   2
loop_
 _symmetry_equiv_pos_site_id
 _symmetry_equiv_pos_as_xyz
  1  'x, y, z'
loop_
 _atom_site_type_symbol
 _atom_site_label
 _atom_site_symmetry_multiplicity
 _atom_site_fract_x
 _atom_site_fract_y
 _atom_site_fract_z
 _atom_site_occupancy
  V  V0  1  0.24477302  0.15676566  0.37869284  1
  V  V1  1  0.59295784  0.10388484  0.01828851  1
  V  V2  1  0.12100922  0.87669990  0.76013036  1
  V  V3  1  -0.01060806  0.12291047  0.61194413  1
  V  V4  1  0.88892120  0.37657209  0.50275894  1
  V  V5  1  0.37278933  0.48851288  0.88224106  1
  V  V6  1  0.87480174  0.64143948  0.23578316  1
  V  V7  1  0.48207483  0.25507276  0.24527677  1
  V  V8  1  0.01299899  0.51742064  0.01673596  1
  V  V9  1  0.12349492  0.74139256  0.89545373  1
  V  V10  1  0.00769099  0.37749137  0.86248095  1
  V  V11  1  0.62292986  0.62562836  -0.00486271  1
  V  V12  1  0.11378013  0.15194021  0.48881214  1
  V  V13  1  0.50164866  0.48810749  0.00390358  1
  V  V14  1  0.10890360  0.87509187  0.25403189  1
  V  V15  1  0.73802995  0.51482098  0.24003565  1
  V  V16  1  0.68053666  0.39448967  0.68560692  1
  V  V17  1  0.25949907  0.75231079  0.51841409  1
  V  V18  1  0.37800744  0.49943252  0.39182546  1
  V  V19  1  0.87142086  0.76301490  0.11722779  1
  V  V20  1  0.00330281  0.61890141  0.61612676  1
  V  V21  1  0.37004857  0.87772329  -0.00507513  1
  V  V22  1  0.51050981  0.76593095  0.25546465  1
  V  V23  1  0.01279638  0.37826817  0.36675030  1
  V  V24  1  0.12612951  0.76965817  0.38114771  1
  V  V25  1  0.73994067  0.76640583  -0.01466350  1
  V  V26  1  0.73341589  0.89033444  0.13823396  1
  V  V27  1  0.25118105  -0.00665650  0.27124452  1
  V  V28  1  0.24287856  0.62451755  0.89252818  1
  V  V29  1  0.62418521  0.76400720  0.39433837  1
  V  V30  1  0.50888533  0.62249820  0.12511486  1
  V  V31  1  0.87327687  0.11839587  0.24610842  1
  V  V32  1  0.36564663  0.63012419  0.74959254  1
  V  V33  1  0.24826098  0.23838573  -0.01226329  1
  V  V34  1  0.88685199  0.38401687  0.02026918  1
  V  V35  1  0.51165415  0.36612847  0.86761508  1
  V  V36  1  0.75104999  0.36827072  0.13204970  1
  V  V37  1  0.75652444  0.25195993  -0.00400464  1
  V  V38  1  0.13151010  0.37875290  0.23665857  1
  V  V39  1  0.25166441  0.50884086  0.25133819  1
  V  V40  1  0.11543844  -0.01628369  0.59308552  1
  V  V41  1  0.50321653  0.61077330  0.61716777  1
  V  V42  1  0.50655316  0.37699673  0.38725935  1
  V  V43  1  0.61863494  0.88587870  0.73311997  1
  V  V44  1  0.42427225  0.14480626  0.78851704  1
  V  V45  1  0.62824170  0.36328091  0.25586597  1
  V  V46  1  0.37009606  0.12778556  0.24714340  1
  V  V47  1  0.24403730  0.48270785  0.75287092  1
  V  V48  1  0.87304861  0.14684956  0.75733693  1
  V  V49  1  -0.00195906  0.74438132  0.75858166  1
  V  V50  1  0.76109087  -0.00137286  0.73656351  1
  V  V51  1  0.00618557  0.24694294  0.22871008  1
  V  V52  1  0.11907937  0.00688197  0.12066906  1
  V  V53  1  0.13226383  0.62015847  0.49014370  1
  V  V54  1  0.27054381  0.37392556  0.11820704  1
  V  V55  1  0.25437384  0.87738755  0.13122024  1
  V  V56  1  0.12409073  0.49115033  0.62892894  1
  V  V57  1  0.37599662  0.75053405  0.12062766  1
  V  V58  1  0.87426826  0.50161025  0.87734363  1
  V  V59  1  0.48170227  -0.02791740  0.50495860  1
  V  V60  1  0.93456318  0.91047774  0.42619399  1
  V  V61  1  0.74547199  0.20038015  0.46706256  1
  V  V62  1  0.50710283  0.86582821  0.87386950  1
  V  V63  1  0.51862948  0.72945388  0.75593830  1
  V  V64  1  0.89314323  0.51330371  0.36255078  1
  V  V65  1  0.74049440  0.62479729  0.39103913  1
  V  V66  1  0.20464642  0.10940591  0.87844758  1
  V  V67  1  0.38504392  0.62145440  0.25850979  1
  V  V68  1  0.74446215  0.61741208  0.86825306  1
  V  V69  1  0.86902851  0.75469390  0.61261123  1
  Zn  Zn70  1  0.26832538  0.89089972  0.63313312  1
  Zn  Zn71  1  0.76626664  -0.00243406  0.29192999  1
  Zn  Zn72  1  0.36410596  0.01372904  0.87669508  1
  Zn  Zn73  1  0.56237162  0.44430136  0.56435973  1
  Zn  Zn74  1  0.87184889  0.61918644  0.74095255  1
  Zn  Zn75  1  0.57566579  0.08774297  0.58045518  1
  Zn  Zn76  1  0.18754090  0.19221265  0.18228231  1
  Zn  Zn77  1  0.20373287  0.12164665  0.67046864  1
  Zn  Zn78  1  0.19652185  0.69287677  0.19777547  1
  Zn  Zn79  1  0.18330649  0.68528553  0.69359720  1
  Zn  Zn80  1  0.66566293  0.15544539  0.21637611  1
  Zn  Zn81  1  0.70871300  0.20452223  0.66400385  1
  Zn  Zn82  1  0.68635309  0.70264749  0.17808381  1
  Zn  Zn83  1  0.68719857  0.67002634  0.67343987  1
  Zn  Zn84  1  0.31505880  0.32655815  0.31834091  1
  Zn  Zn85  1  0.26500847  0.26552961  0.76762673  1
  Zn  Zn86  1  0.31154037  0.79540634  0.31896129  1
  Zn  Zn87  1  0.33102185  0.83621920  0.78358592  1
  Zn  Zn88  1  0.82963698  0.31084348  0.31077063  1
  Zn  Zn89  1  0.77729112  0.31234107  0.79353364  1
  Zn  Zn90  1  0.79534465  0.81659789  0.31474637  1
  Zn  Zn91  1  0.79024117  0.79520197  0.78188343  1
  Zn  Zn92  1  0.19118713  0.43580251  0.43907672  1
  Zn  Zn93  1  0.18298134  0.42771532  0.94475560  1
  Zn  Zn94  1  0.31042213  0.91434179  0.44294456  1
  Zn  Zn95  1  0.18381298  0.92562976  0.94356323  1
  Zn  Zn96  1  0.70490435  0.43358376  0.43057019  1
  Zn  Zn97  1  0.68547713  0.43479915  0.94803701  1
  Zn  Zn98  1  0.66489602  0.97344462  0.43195194  1
  Zn  Zn99  1  0.67990441  0.95928077  0.92226710  1
  Zn  Zn100  1  0.30719904  0.05883093  0.06414909  1
  Zn  Zn101  1  0.29413509  0.05656336  0.54264430  1
  Zn  Zn102  1  0.31892135  0.55815954  0.06758430  1
  Zn  Zn103  1  0.30735850  0.56348260  0.57160449  1
  Zn  Zn104  1  0.82033403  0.07235363  0.07460500  1
  Zn  Zn105  1  0.80198949  0.04889656  0.54996368  1
  Zn  Zn106  1  0.80932923  0.56536588  0.05967660  1
  Zn  Zn107  1  0.82322769  0.53823171  0.56326520  1
  Zn  Zn108  1  0.44304416  0.44071083  0.19082341  1
  Zn  Zn109  1  0.42839776  0.43165782  0.69598011  1
  Zn  Zn110  1  0.44152606  0.94159581  0.31915618  1
  Zn  Zn111  1  0.43000478  0.97651773  0.69051678  1
  Zn  Zn112  1  0.94055974  0.45247721  0.19420749  1
  Zn  Zn113  1  0.89842771  0.41065466  0.70192292  1
  Zn  Zn114  1  0.93176855  0.93994790  0.17997297  1
  Zn  Zn115  1  0.94230748  0.93191205  0.68135048  1
  Zn  Zn116  1  0.03674970  0.07242807  0.33212966  1
  Zn  Zn117  1  0.03290460  0.06143381  0.81834298  1
  Zn  Zn118  1  0.07184705  0.59040775  0.27638654  1
  Zn  Zn119  1  0.05967008  0.55840729  0.81513978  1
  Zn  Zn120  1  0.53810055  0.11069091  0.38626803  1
  Zn  Zn121  1  0.61534871  0.09905992  0.82372470  1
  Zn  Zn122  1  0.56323031  0.55815940  0.31877525  1
  Zn  Zn123  1  0.56933765  0.53715793  0.80499215  1
  Zn  Zn124  1  0.41974968  0.21261716  0.44535901  1
  Zn  Zn125  1  0.43700813  0.20246141  0.96789983  1
  Zn  Zn126  1  0.44043526  0.69411946  0.43853675  1
  Zn  Zn127  1  0.43168350  0.68161791  0.93418065  1
  Zn  Zn128  1  0.93120003  0.20082479  0.42493876  1
  Zn  Zn129  1  0.90115308  0.23072257  0.90661443  1
  Zn  Zn130  1  0.92298913  0.71983934  0.41172268  1
  Zn  Zn131  1  0.92816457  0.68897534  0.94190238  1
  Zn  Zn132  1  0.07806182  0.32221576  0.05425511  1
  Zn  Zn133  1  0.11648806  0.28007144  0.62271040  1
  Zn  Zn134  1  0.05566602  0.68217552  0.08759564  1
  Zn  Zn135  1  0.06014198  0.80520452  0.56529840  1
  Zn  Zn136  1  0.59119337  0.26892193  0.08823935  1
  Zn  Zn137  1  0.58559406  0.25569948  0.53522677  1
  Zn  Zn138  1  0.56069293  0.81429533  0.05950328  1
  Zn  Zn139  1  0.54959079  0.79797840  0.57300277  1
  O  O140  1  0.14180809  0.10498096  0.12816563  1
  O  O141  1  0.11138753  0.10392503  0.59339200  1
  O  O142  1  0.10975326  0.63341671  0.17111064  1
  O  O143  1  0.11706154  0.62137059  0.62237107  1
  O  O144  1  0.63069428  0.15278268  0.10805630  1
  O  O145  1  0.60725242  0.18212303  0.62206038  1
  O  O146  1  0.61490700  0.63354733  0.11400199  1
  O  O147  1  0.60380494  0.60947629  0.63337801  1
  O  O148  1  0.39062076  0.39009698  0.37801791  1
  O  O149  1  0.38456870  0.39066563  0.88153427  1
  O  O150  1  0.38024108  0.86390898  0.37310324  1
  O  O151  1  0.35226637  0.85714412  0.89603106  1
  O  O152  1  0.89833681  0.40324729  0.34365055  1
  O  O153  1  0.88297755  0.39534336  0.89481939  1
  O  O154  1  0.89516482  0.83195560  0.36980419  1
  O  O155  1  0.86787497  0.87926557  0.86875852  1
  O  O156  1  0.24727252  -0.00644711  0.37004961  1
  O  O157  1  0.24999934  0.01211187  0.90103280  1
  O  O158  1  0.27041550  0.49090153  0.36459682  1
  O  O159  1  0.25120922  0.50537858  0.86916528  1
  O  O160  1  0.65304793  0.01573755  0.31747484  1
  O  O161  1  0.70534566  0.02735984  0.82983421  1
  O  O162  1  0.76146053  0.51408876  0.35703585  1
  O  O163  1  0.76196911  0.50770425  0.88895123  1
  O  O164  1  0.26737410  0.49522738  0.14765268  1
  O  O165  1  0.24134741  0.49998686  0.64409773  1
  O  O166  1  0.24999584  0.98946089  0.14001820  1
  O  O167  1  0.22239261  1.00841235  0.62273751  1
  O  O168  1  0.75212032  0.49520415  0.13847820  1
  O  O169  1  0.72176768  0.47628022  0.59103451  1
  O  O170  1  0.75248606  0.98591980  0.11138718  1
  O  O171  1  0.74389030  0.99795150  0.63647680  1
  O  O172  1  0.01953210  0.38243997  0.24487360  1
  O  O173  1  -0.01319930  0.38038942  0.76332266  1
  O  O174  1  0.01257231  0.87017118  0.24118531  1
  O  O175  1  0.00378900  0.85148738  0.74734282  1
  O  O176  1  0.50980791  0.37145847  0.25639214  1
  O  O177  1  0.49372049  0.37170564  0.76767166  1
  O  O178  1  0.49910541  0.86359438  0.25194639  1
  O  O179  1  0.51486173  0.84322488  0.75585122  1
  O  O180  1  0.47757621  0.14570556  0.26937744  1
  O  O181  1  0.52567571  0.14162163  0.77346713  1
  O  O182  1  0.49982000  0.62095217  0.24086241  1
  O  O183  1  0.48849565  0.62066945  0.76114604  1
  O  O184  1  1.03593282  0.15216105  0.24052342  1
  O  O185  1  0.97217697  0.10839248  0.73117711  1
  O  O186  1  0.97179025  0.64615589  0.24536362  1
  O  O187  1  1.00258007  0.63243117  0.74148285  1
  O  O188  1  0.34380063  0.26746865  -0.01176825  1
  O  O189  1  0.35350609  0.28324519  0.51998880  1
  O  O190  1  0.37615322  0.74485035  0.01825451  1
  O  O191  1  0.35741660  0.73837825  0.50100887  1
  O  O192  1  0.87702496  0.28087461  0.01056714  1
  O  O193  1  0.91429538  0.28139761  0.51469151  1
  O  O194  1  0.85044575  0.74729365  0.00753960  1
  O  O195  1  0.87443461  0.73913184  0.51428289  1
  O  O196  1  0.11730956  0.24837562  0.50447726  1
  O  O197  1  0.16158927  0.29990559  0.98289663  1
  O  O198  1  0.13272866  0.74190676  0.49720766  1
  O  O199  1  0.11282376  0.74038954  0.99326795  1
  O  O200  1  0.65720192  0.24261343  0.44367255  1
  O  O201  1  0.65876359  0.27741857  0.99887069  1
  O  O202  1  0.61395090  0.74572316  0.49183592  1
  O  O203  1  0.63291076  0.74157957  0.99511317  1
  O  O204  1  0.49433954  0.25846712  0.14566815  1
  O  O205  1  0.39863701  0.32533467  0.56999604  1
  O  O206  1  0.49388308  0.74523187  0.13730327  1
  O  O207  1  0.49763026  0.72494114  0.64894513  1
  O  O208  1  1.01615030  0.26541546  0.12957628  1
  O  O209  1  1.01351324  0.21790552  0.63180104  1
  O  O210  1  0.97009537  0.75955467  0.11144194  1
  O  O211  1  0.98989560  0.73549472  0.63451525  1
  O  O212  1  0.00388812  0.27662739  0.35636154  1
  O  O213  1  0.00064327  0.27905563  0.88893470  1
  O  O214  1  0.03082257  0.73623365  0.37867206  1
  O  O215  1  0.00958992  0.73210386  0.86680842  1
  O  O216  1  0.48709688  0.27457284  0.36345508  1
  O  O217  1  0.49729655  0.27201488  0.89867192  1
  O  O218  1  0.51554587  0.74183272  0.36417188  1
  O  O219  1  0.48975897  0.75250405  0.86352811  1
  O  O220  1  0.22976984  0.13232088  0.48556867  1
  O  O221  1  0.24366687  0.13448884  1.00173267  1
  O  O222  1  0.23680113  0.63459574  0.51178813  1
  O  O223  1  0.25098297  0.61257715  0.99128917  1
  O  O224  1  0.73734645  0.09478755  0.46770907  1
  O  O225  1  0.77156031  0.15353159  1.01043655  1
  O  O226  1  0.75981302  0.61571330  0.48691403  1
  O  O227  1  0.73536339  0.62907700  0.99372618  1
  O  O228  1  0.26482576  0.40971971  0.02373247  1
  O  O229  1  0.23678741  0.36578800  0.51300332  1
  O  O230  1  0.25992404  0.87057700  0.02064662  1
  O  O231  1  0.24972913  0.86002479  0.52112876  1
  O  O232  1  0.76533936  0.38690323  0.01947856  1
  O  O233  1  0.79426482  0.37322779  0.46400230  1
  O  O234  1  0.73738278  0.86537783  -0.02700060  1
  O  O235  1  0.77702287  0.94170684  0.40685637  1
  O  O236  1  0.14895276  0.50093031  0.25594112  1
  O  O237  1  0.13674735  0.50526860  0.74330528  1
  O  O238  1  0.13967514  0.98650338  0.25187057  1
  O  O239  1  0.09645276  0.97325761  0.77233037  1
  O  O240  1  0.63751609  0.49028348  0.25161607  1
  O  O241  1  0.62877782  0.46631634  0.73467651  1
  O  O242  1  0.54751760  1.00926474  0.19680329  1
  O  O243  1  0.59484295  0.98014044  0.72233896  1
  O  O244  1  0.36403869  0.02050792  0.26481896  1
  O  O245  1  0.37929630  0.05803308  0.75259784  1
  O  O246  1  0.37661801  0.50792779  0.26051617  1
  O  O247  1  0.35991739  0.50339056  0.76237601  1
  O  O248  1  0.87155945  0.00807610  0.25046327  1
  O  O249  1  0.86034854  -0.01377380  0.74895198  1
  O  O250  1  0.86222998  0.52517063  0.24622012  1
  O  O251  1  0.88298322  0.50721204  0.77525661  1
  O  O252  1  0.11721556  0.39542241  0.35896685  1
  O  O253  1  0.10607136  0.39790311  0.86581275  1
  O  O254  1  0.11860085  0.87157185  0.36836458  1
  O  O255  1  0.12698525  0.85096000  0.87339254  1
  O  O256  1  0.61699779  0.38798474  0.36624077  1
  O  O257  1  0.61145987  0.38568426  0.87875656  1
  O  O258  1  0.63148956  0.86216497  0.38796338  1
  O  O259  1  0.60759936  0.88178996  0.86585755  1
  O  O260  1  0.36035831  0.12546561  0.14844518  1
  O  O261  1  0.41618554  0.16409993  0.62959822  1
  O  O262  1  0.38685662  0.63446269  0.13452120  1
  O  O263  1  0.38209258  0.61385200  0.64664661  1
  O  O264  1  0.89621027  0.11995611  0.14672077  1
  O  O265  1  0.88985992  0.10851782  0.59571568  1
  O  O266  1  0.85841975  0.64262273  0.12928286  1
  O  O267  1  0.88976781  0.61636269  0.62298788  1
  O  O268  1  0.24458124  0.26812146  0.11124275  1
  O  O269  1  0.34736414  0.15814822  0.60234558  1
  O  O270  1  0.27171044  0.75915950  0.14534801  1
  O  O271  1  0.24660777  0.74767678  0.62149195  1
  O  O272  1  0.76496697  0.27057810  0.12051897  1
  O  O273  1  0.76769853  0.22235943  0.56353721  1
  O  O274  1  0.74597212  0.77196467  0.10555551  1
  O  O275  1  0.77209223  0.73633127  0.64692574  1
  O  O276  1  0.23997547  0.25509633  0.37231184  1
  O  O277  1  0.23876423  0.21571717  0.87725032  1
  O  O278  1  0.23609914  0.75285672  0.39534597  1
  O  O279  1  0.23435980  0.73005392  0.88203878  1
  O  O280  1  0.81654744  0.23014249  0.39348235  1
  O  O281  1  0.78084633  0.26567423  0.89491016  1
  O  O282  1  0.73126673  0.73570659  0.37197596  1
  O  O283  1  0.75316610  0.73253246  0.88036346  1
  O  O284  1  -0.05345602  0.04058194  -0.03479700  1
  O  O285  1  0.00727471  0.13181719  0.49446165  1
  O  O286  1  -0.00236651  0.62244093  0.00576453  1
  O  O287  1  0.01762566  0.62770551  0.51358106  1
  O  O288  1  0.49244933  0.12187408  0.02681700  1
  O  O289  1  0.51358544  0.16321520  0.48429898  1
  O  O290  1  0.50856242  0.62907464  0.00591784  1
  O  O291  1  0.49258357  0.62876589  0.51998458  1
  O  O292  1  0.51933195  0.36359333  0.48753927  1
  O  O293  1  0.50404513  0.39098124  1.00473105  1
  O  O294  1  0.48543358  0.87304730  0.51618389  1
  O  O295  1  0.48453632  0.85862613  0.98274164  1
  O  O296  1  0.99536545  0.39955066  0.46420207  1
  O  O297  1  0.99325566  0.39375879  1.00509616  1
  O  O298  1  0.98764930  0.87022486  0.50108140  1
  O  O299  1  0.91706779  0.85332178  0.91658829  1
  O  O300  1  0.49309969  0.48905625  0.38052590  1
  O  O301  1  0.49309436  0.49348979  0.88580391  1
  O  O302  1  0.49069028  1.00393651  0.39974893  1
  O  O303  1  0.46356874  0.95392799  0.85117705  1
  O  O304  1  0.99288829  0.52056799  0.34275758  1
  O  O305  1  0.98924794  0.50256551  0.89087427  1
  O  O306  1  0.99084654  0.97512575  0.37475191  1
  O  O307  1  0.97829910  0.99779494  0.90781223  1
  O  O308  1  0.02024261  -0.00241131  0.13887464  1
  O  O309  1  0.01130444  0.00465020  0.62272355  1
  O  O310  1  0.00145256  0.50898876  0.11708403  1
  O  O311  1  0.01702503  0.51489601  0.63499703  1
  O  O312  1  0.50456538  -0.00372730  0.13987404  1
  O  O313  1  0.48065957  0.02219027  0.60131595  1
  O  O314  1  0.49370250  0.51187073  0.11374057  1
  O  O315  1  0.48676171  0.50206130  0.62403926  1
  O  O316  1  0.24678512  0.38578548  0.24472932  1
  O  O317  1  0.24991900  0.38483098  0.76167462  1
  O  O318  1  0.26553459  0.88867970  0.24991213  1
  O  O319  1  0.22232626  0.86849462  0.74828544  1
  O  O320  1  0.75038900  0.37783573  0.24756837  1
  O  O321  1  0.78298404  0.40148658  0.71657942  1
  O  O322  1  0.73939964  0.88869713  0.24299473  1
  O  O323  1  0.72877282  0.88926342  0.75987643  1
  O  O324  1  0.25057209  0.12224662  0.26745981  1
  O  O325  1  0.21354838  0.09811628  0.77980852  1
  O  O326  1  0.26991428  0.61580022  0.25248238  1
  O  O327  1  0.25756718  0.61797981  0.75905363  1
  O  O328  1  0.77098441  0.12891519  0.25428436  1
  O  O329  1  0.77436246  0.11889787  0.72534707  1
  O  O330  1  0.74035350  0.61935169  0.24463670  1
  O  O331  1  0.75122456  0.62018534  0.76576690  1
  O  O332  1  0.34957726  0.14355744  0.38012162  1
  O  O333  1  0.40030324  0.12534651  0.88868284  1
  O  O334  1  0.39244285  0.61170883  0.36783814  1
  O  O335  1  0.35984985  0.61525492  0.87034773  1
  O  O336  1  0.92634988  0.12013936  0.34066490  1
  O  O337  1  0.87880022  0.13141985  0.85703807  1
  O  O338  1  0.85949621  0.63212347  0.35506819  1
  O  O339  1  0.86017722  0.61527155  0.88432825  1
  O  O340  1  0.14172226  0.39087451  0.13558941  1
  O  O341  1  0.11375088  0.39374268  0.62400734  1
  O  O342  1  0.14392533  0.87691397  0.14804069  1
  O  O343  1  0.11513674  0.88237325  0.63712340  1
  O  O344  1  0.64350150  0.36935353  0.13971720  1
  O  O345  1  0.62467311  0.35507991  0.60452837  1
  O  O346  1  0.63523683  0.87641756  0.11743507  1
  O  O347  1  0.62624150  0.84831383  0.64101331  1
  O  O348  1  0.12854182  0.27514027  0.24520910  1
  O  O349  1  0.20167752  0.23324430  0.67878340  1
  O  O350  1  0.14432650  0.77105874  0.26884042  1
  O  O351  1  0.11157809  0.75220198  0.75775975  1
  O  O352  1  0.61151274  0.25791639  0.25434005  1
  O  O353  1  0.67969043  0.29638137  0.73293429  1
  O  O354  1  0.61292385  0.75061345  0.25275688  1
  O  O355  1  0.61820315  0.72704902  0.75807904  1
  O  O356  1  0.37492729  0.24853413  0.25276173  1
  O  O357  1  0.37425434  0.22964777  0.76087144  1
  O  O358  1  0.39210684  0.73758114  0.24950802  1
  O  O359  1  0.37364964  0.72941353  0.75860265  1
  O  O360  1  0.90062373  0.24351147  0.24319657  1
  O  O361  1  0.86870564  0.24632050  0.74556374  1
  O  O362  1  0.84639945  0.74594307  0.23036064  1
  O  O363  1  0.88796260  0.73967060  0.75339158  1
  O  O364  1  0.36652518  0.50752526  0.48998882  1
  O  O365  1  0.39399231  0.51379186  0.99237687  1
  O  O366  1  0.37154305  0.98941577  0.50412966  1
  O  O367  1  0.37351785  0.97937667  1.00300346  1
  O  O368  1  0.88327691  0.50982565  0.46299141  1
  O  O369  1  0.88454988  0.49998915  1.00116741  1
  O  O370  1  0.84104528  0.96319710  0.46109267  1
  O  O371  1  0.89092393  1.00076293  1.00543641  1
  O  O372  1  0.12654304  -0.01774519  0.02322842  1
  O  O373  1  0.11810419  -0.02446390  0.49809181  1
  O  O374  1  0.11029993  0.50289689  0.00034498  1
  O  O375  1  0.13856790  0.51327408  0.51737185  1
  O  O376  1  0.61753563  0.00539314  0.00599829  1
  O  O377  1  0.59224168  -0.00182914  0.51159071  1
  O  O378  1  0.60976272  0.51216771  -0.00011129  1
  O  O379  1  0.66558008  0.49030827  0.52666472  1
  O  O380  1  0.36851959  0.37273130  0.13861565  1
  O  O381  1  0.35731548  0.36049359  0.62812152  1
  O  O382  1  0.37620008  0.85941140  0.11501200  1
  O  O383  1  0.36733180  0.88667524  0.68808478  1
  O  O384  1  0.87003468  0.39042971  0.12501603  1
  O  O385  1  0.88361331  0.42703948  0.59238906  1
  O  O386  1  0.85534119  0.86834761  0.12776073  1
  O  O387  1  0.87788479  0.85365384  0.62751575  1
  O  O388  1  0.12698272  0.13050871  0.38327070  1
  O  O389  1  0.10533044  0.10822114  0.89340792  1
  O  O390  1  0.12844470  0.61678082  0.38989455  1
  O  O391  1  0.13470161  0.62735531  0.87406548  1
  O  O392  1  0.62793153  0.09642786  0.31522186  1
  O  O393  1  0.61763234  0.14409792  0.92879055  1
  O  O394  1  0.63779909  0.61706388  0.38135177  1
  O  O395  1  0.63718231  0.60845304  0.87833400  1
