# generated using pymatgen
data_V35Zn35O128
_symmetry_space_group_name_H-M   'P 1'
_cell_length_a   16.84469509
_cell_length_b   16.88033586
_cell_length_c   16.87757006
_cell_angle_alpha   90.00725526
_cell_angle_beta   89.94173556
_cell_angle_gamma   89.99145121
_symmetry_Int_Tables_number   1
_chemical_formula_structural   V35Zn35O128
_chemical_formula_sum   'V70 Zn70 O256'
_cell_volume   4799.03507156
_cell_formula_units_Z   2
loop_
 _symmetry_equiv_pos_site_id
 _symmetry_equiv_pos_as_xyz
  1  'x, y, z'
loop_
 _atom_site_type_symbol
 _atom_site_label
 _atom_site_symmetry_multiplicity
 _atom_site_fract_x
 _atom_site_fract_y
 _atom_site_fract_z
 _atom_site_occupancy
  V  V0  1  0.62967069  -0.00524027  0.13075190  1
  V  V1  1  0.25293385  0.15567806  0.37949135  1
  V  V2  1  0.13508642  0.74119054  0.37920909  1
  V  V3  1  0.38827243  0.22578095  0.62577488  1
  V  V4  1  0.49903204  0.24790713  0.25454283  1
  V  V5  1  -0.01961549  0.75003364  0.25315601  1
  V  V6  1  0.26471810  0.00252902  0.76098330  1
  V  V7  1  0.62957419  0.37142862  0.25520955  1
  V  V8  1  0.49872709  0.38063687  0.38368537  1
  V  V9  1  0.74689119  0.02705711  0.77777349  1
  V  V10  1  0.25477748  0.77407465  0.50874080  1
  V  V11  1  0.87289157  0.24460031  0.15912299  1
  V  V12  1  0.75735595  0.74594178  -0.00138522  1
  V  V13  1  0.48926166  0.49041583  -0.01006080  1
  V  V14  1  0.49566732  0.12527183  0.12375948  1
  V  V15  1  0.89042374  0.01401411  0.88503612  1
  V  V16  1  0.23936528  0.22863886  -0.00315552  1
  V  V17  1  0.75346910  0.12407196  0.36069720  1
  V  V18  1  0.01375617  0.50627779  0.50059996  1
  V  V19  1  0.60189520  0.26194480  0.87378636  1
  V  V20  1  0.73325469  0.63725930  0.39551967  1
  V  V21  1  0.00511385  0.63247083  0.61766934  1
  V  V22  1  0.37158307  -0.00567033  0.38160596  1
  V  V23  1  0.62300681  0.13423186  0.49656451  1
  V  V24  1  0.13829752  0.87030681  0.73747057  1
  V  V25  1  0.25363772  0.74465190  -0.00180207  1
  V  V26  1  0.87066516  0.50275613  0.39379048  1
  V  V27  1  0.37382822  0.86915371  0.00360045  1
  V  V28  1  0.62754518  0.61987309  -0.00379564  1
  V  V29  1  0.62703194  0.74227446  0.87855888  1
  V  V30  1  0.62732147  0.12383240  -0.01421571  1
  V  V31  1  0.63939557  0.51683924  0.62868063  1
  V  V32  1  0.73192740  0.78431891  0.50867843  1
  V  V33  1  0.49278928  0.74303326  0.74129032  1
  V  V34  1  0.87424773  0.25053458  0.62725423  1
  V  V35  1  0.50666201  0.77659172  0.24702623  1
  V  V36  1  0.22019471  0.38719040  0.12120558  1
  V  V37  1  -0.00914026  -0.00041046  0.51020938  1
  V  V38  1  0.87410328  0.49510010  0.88509568  1
  V  V39  1  0.62256594  0.01632853  0.63561040  1
  V  V40  1  0.48599289  0.62865149  0.13067434  1
  V  V41  1  -0.01678306  0.11146635  0.13360086  1
  V  V42  1  0.23896190  0.49663292  0.71636139  1
  V  V43  1  0.25301979  0.61266311  0.87765665  1
  V  V44  1  -0.00308557  0.75652342  0.74995119  1
  V  V45  1  -0.00119121  0.60973037  0.11228200  1
  V  V46  1  0.50222604  0.51341134  0.51654034  1
  V  V47  1  0.12487808  0.00869864  0.11317149  1
  V  V48  1  0.62318472  0.49844162  0.12514281  1
  V  V49  1  0.49632053  -0.00349657  -0.00540688  1
  V  V50  1  0.49443528  0.86913870  0.87745295  1
  V  V51  1  0.75818356  0.51495158  0.24984976  1
  V  V52  1  0.37251975  0.26044658  0.12506510  1
  V  V53  1  0.76535005  0.24520440  -0.01072629  1
  V  V54  1  0.25255860  0.01689257  0.24956062  1
  V  V55  1  0.75813322  0.37140290  0.12296316  1
  V  V56  1  0.12215846  0.23896952  0.85289646  1
  V  V57  1  0.63403939  0.87273344  0.75389220  1
  V  V58  1  -0.00105585  0.87418083  0.38392161  1
  V  V59  1  0.37684634  0.61559071  0.73391877  1
  V  V60  1  0.12441293  0.75235349  0.87759662  1
  V  V61  1  0.88573728  0.87312414  -0.00975095  1
  V  V62  1  0.75193711  0.87151680  0.13328933  1
  V  V63  1  0.24725613  0.86167089  0.13045444  1
  V  V64  1  0.13872597  0.01253134  0.61913876  1
  V  V65  1  0.86254676  0.62172395  0.75165871  1
  V  V66  1  0.87572349  -0.00201073  0.34165229  1
  V  V67  1  0.36108206  0.36468426  0.51218531  1
  V  V68  1  0.61755236  0.37646385  0.73844617  1
  V  V69  1  0.51881943  0.89832354  0.37974695  1
  Zn  Zn70  1  0.37394624  0.37122458  -0.01445597  1
  Zn  Zn71  1  0.12554800  0.13291506  0.49226069  1
  Zn  Zn72  1  0.87510464  0.79687581  0.60201478  1
  Zn  Zn73  1  0.00968072  0.37672962  0.86012129  1
  Zn  Zn74  1  0.12397440  0.87475131  0.25300212  1
  Zn  Zn75  1  0.32668325  0.57171292  0.32802185  1
  Zn  Zn76  1  0.18264875  0.20021803  0.19547926  1
  Zn  Zn77  1  0.21326019  0.18683249  0.68701725  1
  Zn  Zn78  1  0.17383327  0.67286341  0.19901897  1
  Zn  Zn79  1  0.19151729  0.68097199  0.68508469  1
  Zn  Zn80  1  0.68332748  0.18403550  0.18065529  1
  Zn  Zn81  1  0.68030497  0.19551842  0.69499246  1
  Zn  Zn82  1  0.67981416  0.69069053  0.18372192  1
  Zn  Zn83  1  0.69148638  0.70167587  0.68201576  1
  Zn  Zn84  1  0.31561496  0.36481862  0.30306781  1
  Zn  Zn85  1  0.33518553  0.32659175  0.78661440  1
  Zn  Zn86  1  0.32156082  0.80541540  0.30932450  1
  Zn  Zn87  1  0.31489542  0.81137735  0.81136786  1
  Zn  Zn88  1  0.79314630  0.32756276  0.35701751  1
  Zn  Zn89  1  0.80428066  0.33104458  0.81989793  1
  Zn  Zn90  1  0.80193084  0.81884035  0.33078393  1
  Zn  Zn91  1  0.84657462  0.85433746  0.77627055  1
  Zn  Zn92  1  0.22558897  0.49767925  0.50280149  1
  Zn  Zn93  1  0.22447064  0.39541194  0.89798833  1
  Zn  Zn94  1  0.19002198  0.93451381  0.43814928  1
  Zn  Zn95  1  0.18457341  0.93381734  0.93396536  1
  Zn  Zn96  1  0.68035094  0.44604812  0.44463294  1
  Zn  Zn97  1  0.69200235  0.43425977  0.93717142  1
  Zn  Zn98  1  0.69336171  0.97142381  0.44287819  1
  Zn  Zn99  1  0.68793223  0.93238740  0.94048092  1
  Zn  Zn100  1  0.31325358  0.05647073  0.06432447  1
  Zn  Zn101  1  0.30695803  0.06693762  0.55645945  1
  Zn  Zn102  1  0.30547382  0.55750670  0.06630042  1
  Zn  Zn103  1  0.35750197  0.61694188  0.51818951  1
  Zn  Zn104  1  0.81200285  0.06041628  0.05949691  1
  Zn  Zn105  1  0.79646174  0.04619992  0.57240295  1
  Zn  Zn106  1  0.82219740  0.56533312  0.06545486  1
  Zn  Zn107  1  0.81304140  0.58035360  0.56943974  1
  Zn  Zn108  1  0.43346499  0.44882626  0.19305985  1
  Zn  Zn109  1  0.44114084  0.43172979  0.68561179  1
  Zn  Zn110  1  0.43126708  0.94293325  0.18240412  1
  Zn  Zn111  1  0.44515436  0.94622429  0.67630584  1
  Zn  Zn112  1  0.94516110  0.43393984  0.19517511  1
  Zn  Zn113  1  0.92717352  0.45453484  0.67750683  1
  Zn  Zn114  1  0.94745804  0.91162270  0.17402084  1
  Zn  Zn115  1  0.94453323  0.97148350  0.69780733  1
  Zn  Zn116  1  0.07075020  0.06432207  0.31176867  1
  Zn  Zn117  1  0.06487278  0.06074224  0.80710648  1
  Zn  Zn118  1  0.04744492  0.57914421  0.31874044  1
  Zn  Zn119  1  0.06326573  0.56597889  0.80986958  1
  Zn  Zn120  1  0.56613344  0.06654538  0.31464747  1
  Zn  Zn121  1  0.54807164  0.05795443  0.80424361  1
  Zn  Zn122  1  0.53017461  0.58914122  0.33884774  1
  Zn  Zn123  1  0.56297896  0.55561755  0.80717361  1
  Zn  Zn124  1  0.43266020  0.18152809  0.43543606  1
  Zn  Zn125  1  0.43368505  0.18691846  0.94421720  1
  Zn  Zn126  1  0.43362238  0.72569675  0.41088582  1
  Zn  Zn127  1  0.43549562  0.67684307  0.93551855  1
  Zn  Zn128  1  0.93512011  0.17221689  0.43721156  1
  Zn  Zn129  1  0.96079915  0.18558617  0.94356728  1
  Zn  Zn130  1  0.91624692  0.69189020  0.43724676  1
  Zn  Zn131  1  0.94183450  0.67497859  0.93620900  1
  Zn  Zn132  1  0.05809402  0.28846846  0.07194145  1
  Zn  Zn133  1  0.04857736  0.32288589  0.56701815  1
  Zn  Zn134  1  0.06852776  0.78341288  0.07625470  1
  Zn  Zn135  1  0.06615334  0.80987499  0.56190608  1
  Zn  Zn136  1  0.56582940  0.31198400  0.06011958  1
  Zn  Zn137  1  0.56623583  0.29763367  0.56659934  1
  Zn  Zn138  1  0.56431055  0.80827863  0.06575957  1
  Zn  Zn139  1  0.54337902  0.82674151  0.56688653  1
  O  O140  1  0.12896452  0.10947033  0.13211691  1
  O  O141  1  0.13299053  0.11454701  0.62019835  1
  O  O142  1  0.09077678  0.67154920  0.12319021  1
  O  O143  1  0.10497995  0.63799289  0.62128787  1
  O  O144  1  0.61710801  0.11636365  0.10921417  1
  O  O145  1  0.63758901  0.12373458  0.61578667  1
  O  O146  1  0.61922984  0.61372296  0.11297114  1
  O  O147  1  0.62928442  0.61571009  0.63839724  1
  O  O148  1  0.39393120  0.36682324  0.39186300  1
  O  O149  1  0.33695075  0.38177518  0.87985971  1
  O  O150  1  0.38374994  0.89065284  0.36507214  1
  O  O151  1  0.38565886  0.86646989  0.88772277  1
  O  O152  1  0.87790251  0.40484599  0.36523231  1
  O  O153  1  0.89103225  0.38677330  0.86093178  1
  O  O154  1  0.88599235  0.89093120  0.37560526  1
  O  O155  1  0.87272317  0.88025475  0.88710479  1
  O  O156  1  0.25639932  -0.00844923  0.35727998  1
  O  O157  1  0.25204811  -0.01318363  0.86105365  1
  O  O158  1  0.16437156  0.45361363  0.33288086  1
  O  O159  1  0.23750634  0.51530193  0.88334072  1
  O  O160  1  0.77203310  -0.00216359  0.35404052  1
  O  O161  1  0.75343495  0.00691557  0.88234603  1
  O  O162  1  0.75133966  0.50919923  0.36217678  1
  O  O163  1  0.77064639  0.48709301  0.87540288  1
  O  O164  1  0.23296383  0.48747486  0.11442578  1
  O  O165  1  0.24412057  0.51205852  0.61707135  1
  O  O166  1  0.24355403  0.99262011  0.13412066  1
  O  O167  1  0.24178591  0.99902408  0.62951604  1
  O  O168  1  0.74792050  0.49144104  0.13070485  1
  O  O169  1  0.73843608  0.50292031  0.61615351  1
  O  O170  1  0.73721983  0.98981321  0.11646747  1
  O  O171  1  0.73283977  1.00705957  0.66155074  1
  O  O172  1  0.00698866  0.35486606  0.27101890  1
  O  O173  1  0.01752474  0.38277123  0.71981799  1
  O  O174  1  0.00260384  0.87191683  0.27206509  1
  O  O175  1  0.01743807  0.85858815  0.75267713  1
  O  O176  1  0.51020852  0.37083733  0.25812514  1
  O  O177  1  0.51380657  0.38058388  0.75713266  1
  O  O178  1  0.50768419  0.87893372  0.23774882  1
  O  O179  1  0.50573710  0.85921726  0.76468415  1
  O  O180  1  0.51352390  0.14218659  0.23830522  1
  O  O181  1  0.44054516  0.12192028  0.79375783  1
  O  O182  1  0.50641036  0.60691259  0.22639144  1
  O  O183  1  0.48643900  0.63210730  0.76051533  1
  O  O184  1  1.00862203  0.11973714  0.23389957  1
  O  O185  1  0.98687319  0.07254459  0.72655582  1
  O  O186  1  0.99645947  0.64666474  0.24461379  1
  O  O187  1  0.99797020  0.63865395  0.73733588  1
  O  O188  1  0.36931073  0.25096734  0.01153956  1
  O  O189  1  0.38269650  0.25849511  0.50624021  1
  O  O190  1  0.36576380  0.75618284  -0.00266548  1
  O  O191  1  0.35236442  0.73371684  0.48923069  1
  O  O192  1  0.86489940  0.24273008  -0.00156862  1
  O  O193  1  0.87907495  0.24641766  0.52162328  1
  O  O194  1  0.86168070  0.75190889  -0.01101714  1
  O  O195  1  0.85033148  0.76039580  0.49841666  1
  O  O196  1  0.07652160  0.25074776  0.48101318  1
  O  O197  1  0.13985999  0.23036866  1.01940444  1
  O  O198  1  0.13970326  0.75918667  0.48870593  1
  O  O199  1  0.13603612  0.75743026  0.98378021  1
  O  O200  1  0.64102201  0.23180707  0.50493287  1
  O  O201  1  0.62865051  0.24193437  0.98964695  1
  O  O202  1  0.62996428  0.77194095  0.51416413  1
  O  O203  1  0.62665039  0.73790154  0.99624772  1
  O  O204  1  0.49287372  0.24401979  0.12374370  1
  O  O205  1  0.48975734  0.24426698  0.62807160  1
  O  O206  1  0.50115200  0.73727325  0.13129912  1
  O  O207  1  0.51195856  0.74020155  0.64519515  1
  O  O208  1  0.97671177  0.23957605  0.13394437  1
  O  O209  1  0.97921856  0.24004004  0.62992518  1
  O  O210  1  0.98430360  0.78829935  0.15607328  1
  O  O211  1  0.99323136  0.75076904  0.63392853  1
  O  O212  1  0.01964985  0.25623204  0.42470069  1
  O  O213  1  0.01380196  0.25919402  0.87686754  1
  O  O214  1  0.00258661  0.76095771  0.37832829  1
  O  O215  1  0.01864899  0.73789058  0.86531190  1
  O  O216  1  0.49828743  0.25233622  0.35655206  1
  O  O217  1  0.50255405  0.25839166  0.88507271  1
  O  O218  1  0.51416954  0.78924399  0.36191709  1
  O  O219  1  0.50815929  0.75163842  0.87650226  1
  O  O220  1  0.24528828  0.14048367  0.48569736  1
  O  O221  1  0.26601902  0.13030437  0.99507117  1
  O  O222  1  0.28772143  0.56924190  0.44203440  1
  O  O223  1  0.25689853  0.63373382  0.98915052  1
  O  O224  1  0.73166204  0.08181618  0.48476290  1
  O  O225  1  0.73926195  0.13754866  1.00572108  1
  O  O226  1  0.73504620  0.62897195  0.49606264  1
  O  O227  1  0.74152526  0.63650807  1.01127226  1
  O  O228  1  0.24925914  0.35190726  0.01959831  1
  O  O229  1  0.26440687  0.38497313  0.49505218  1
  O  O230  1  0.25705860  0.86650257  0.00621167  1
  O  O231  1  0.26000586  0.87352760  0.50751942  1
  O  O232  1  0.74660968  0.35794776  0.01544873  1
  O  O233  1  0.75439566  0.36605262  0.45881035  1
  O  O234  1  0.75352198  0.85922804  0.00394500  1
  O  O235  1  0.74456242  0.88337700  0.49591468  1
  O  O236  1  0.13039080  0.49202143  0.27908684  1
  O  O237  1  0.14237726  0.51457703  0.74272468  1
  O  O238  1  0.14125758  0.99192304  0.24258632  1
  O  O239  1  0.13524606  0.98532735  0.73984548  1
  O  O240  1  0.63592328  0.48682272  0.23644309  1
  O  O241  1  0.62556613  0.49040868  0.73780885  1
  O  O242  1  0.62036849  1.00876304  0.22748725  1
  O  O243  1  0.64129930  0.98381480  0.77740051  1
  O  O244  1  0.35597080  0.00173721  0.24532392  1
  O  O245  1  0.36301157  -0.01956777  0.74328229  1
  O  O246  1  0.35827056  0.47183495  0.27242076  1
  O  O247  1  0.36783195  0.51120207  0.73833597  1
  O  O248  1  0.88919381  -0.00613861  0.24398506  1
  O  O249  1  0.85290825  -0.00056914  0.77649056  1
  O  O250  1  0.85927079  0.50068495  0.24716747  1
  O  O251  1  0.86657374  0.51682525  0.74699650  1
  O  O252  1  0.08263948  0.33326838  0.26142516  1
  O  O253  1  0.12356544  0.35386202  0.87398508  1
  O  O254  1  0.11140817  0.87400617  0.37707272  1
  O  O255  1  0.13108908  0.85870277  0.86099869  1
  O  O256  1  0.62259823  0.37627063  0.35740809  1
  O  O257  1  0.62300569  0.36335928  0.87714795  1
  O  O258  1  0.61590436  0.92592184  0.36825279  1
  O  O259  1  0.61437124  0.86153804  0.87587593  1
  O  O260  1  0.39173512  0.12752346  0.12167776  1
  O  O261  1  0.38658898  0.12468426  0.61104711  1
  O  O262  1  0.38666792  0.61884706  0.12028850  1
  O  O263  1  0.37218358  0.62933154  0.63608636  1
  O  O264  1  0.87494066  0.12745159  0.13387424  1
  O  O265  1  0.86029504  0.14614730  0.62578250  1
  O  O266  1  0.89726525  0.63035322  0.12159286  1
  O  O267  1  0.88222699  0.63648186  0.64176545  1
  O  O268  1  0.26794106  0.23478714  0.12219276  1
  O  O269  1  0.27195373  0.24080085  0.60977417  1
  O  O270  1  0.24024608  0.75812343  0.11455206  1
  O  O271  1  0.24375570  0.74286656  0.60437771  1
  O  O272  1  0.76178686  0.25160665  0.12277478  1
  O  O273  1  0.76876552  0.25917868  0.62630247  1
  O  O274  1  0.73902478  0.76156356  0.11130219  1
  O  O275  1  0.75270446  0.76603123  0.61255556  1
  O  O276  1  0.26314562  0.25198095  0.36078192  1
  O  O277  1  0.23085890  0.24597024  0.89295557  1
  O  O278  1  0.23953951  0.76142783  0.38080804  1
  O  O279  1  0.24545795  0.74516604  0.88198722  1
  O  O280  1  0.76994387  0.21989689  0.38399915  1
  O  O281  1  0.74765208  0.25482666  0.88915654  1
  O  O282  1  0.73809116  0.74531682  0.39205205  1
  O  O283  1  0.73322754  0.74898533  0.89248786  1
  O  O284  1  0.00261580  0.12876745  0.03380329  1
  O  O285  1  0.01001152  0.10286622  0.49302424  1
  O  O286  1  0.00533042  0.61597656  0.00899507  1
  O  O287  1  -0.01445473  0.63171678  0.51285909  1
  O  O288  1  0.50538901  0.11450027  0.00384669  1
  O  O289  1  0.52224930  0.12716615  0.48347386  1
  O  O290  1  0.50677981  0.61386105  0.00967473  1
  O  O291  1  0.48205575  0.61054941  0.50928925  1
  O  O292  1  0.52237871  0.35707435  0.47921162  1
  O  O293  1  0.49911684  0.38709259  1.00388437  1
  O  O294  1  0.50927094  0.89553057  0.47719422  1
  O  O295  1  0.49414437  0.87587467  0.99838488  1
  O  O296  1  1.00219848  0.40617605  0.50859639  1
  O  O297  1  1.00908060  0.39205842  1.00231104  1
  O  O298  1  1.00329773  0.88275480  0.49182097  1
  O  O299  1  0.98147354  0.85402440  1.00769174  1
  O  O300  1  0.51315174  0.48369287  0.39424488  1
  O  O301  1  0.50490394  0.50377819  0.89194188  1
  O  O302  1  0.47850806  1.00432616  0.35586609  1
  O  O303  1  0.50510970  0.98310942  0.88605006  1
  O  O304  1  0.98043465  0.52317014  0.39175524  1
  O  O305  1  0.99157837  0.49242420  0.85669594  1
  O  O306  1  0.99314153  0.99202520  0.38336227  1
  O  O307  1  0.98828943  0.99529011  0.87215625  1
  O  O308  1  0.01397246  0.00079165  0.12845442  1
  O  O309  1  0.02295753  -0.01329230  0.61080461  1
  O  O310  1  0.01129814  0.51261292  0.14678767  1
  O  O311  1  -0.00663277  0.52146400  0.61188170  1
  O  O312  1  0.50865390  0.00461253  0.11447999  1
  O  O313  1  0.52936118  0.02791378  0.68671569  1
  O  O314  1  0.50800162  0.50232617  0.11558050  1
  O  O315  1  0.51358156  0.49835447  0.62083354  1
  O  O316  1  0.24287768  0.35498952  0.21722708  1
  O  O317  1  0.25328521  0.39849362  0.73679995  1
  O  O318  1  0.25369231  0.86795777  0.23449493  1
  O  O319  1  0.24228650  0.87230112  0.74619543  1
  O  O320  1  0.73970634  0.37581656  0.24677850  1
  O  O321  1  0.72364491  0.36653112  0.75358809  1
  O  O322  1  0.75525765  0.86439223  0.23203033  1
  O  O323  1  0.73165099  0.85689383  0.76212750  1
  O  O324  1  0.24709864  0.11956478  0.25691170  1
  O  O325  1  0.25394157  0.10213915  0.75197298  1
  O  O326  1  0.25285006  0.62169040  0.25420675  1
  O  O327  1  0.26197248  0.61761040  0.75457468  1
  O  O328  1  0.73997517  0.12570268  0.26029017  1
  O  O329  1  0.73786688  0.12553470  0.77004140  1
  O  O330  1  0.74521220  0.61454247  0.24188043  1
  O  O331  1  0.76536015  0.64485556  0.75203056  1
  O  O332  1  0.35695180  0.11527966  0.37385192  1
  O  O333  1  0.39321034  0.11847157  0.85331297  1
  O  O334  1  0.42480460  0.62448587  0.36333385  1
  O  O335  1  0.35910611  0.62706877  0.86392275  1
  O  O336  1  0.87126334  0.10421177  0.37395363  1
  O  O337  1  0.88550512  0.11353209  0.89332876  1
  O  O338  1  0.84641576  0.61669761  0.37856142  1
  O  O339  1  0.88368238  0.61018336  0.86174371  1
  O  O340  1  0.11989822  0.36957164  0.12129498  1
  O  O341  1  0.07700328  0.36457743  0.67383216  1
  O  O342  1  0.13847044  0.88056312  0.12451551  1
  O  O343  1  0.12800011  0.87536633  0.63531094  1
  O  O344  1  0.63537784  0.38083387  0.12905736  1
  O  O345  1  0.62202754  0.37153363  0.63545899  1
  O  O346  1  0.63362552  0.88674391  0.11666932  1
  O  O347  1  0.61489782  0.89102954  0.65402812  1
  O  O348  1  0.09345908  0.25385633  0.25801772  1
  O  O349  1  0.13510764  0.23856085  0.75352770  1
  O  O350  1  0.11453475  0.75681490  0.26999024  1
  O  O351  1  0.12492761  0.75597243  0.75257663  1
  O  O352  1  0.61375221  0.26522071  0.23398242  1
  O  O353  1  0.61556325  0.25490085  0.76715624  1
  O  O354  1  0.60381078  0.74146209  0.24788961  1
  O  O355  1  0.61511526  0.75402015  0.76101595  1
  O  O356  1  0.39344341  0.25699635  0.23468122  1
  O  O357  1  0.35943096  0.23938624  0.72759332  1
  O  O358  1  0.40611139  0.74808480  0.25843568  1
  O  O359  1  0.38725920  0.74312179  0.75147361  1
  O  O360  1  0.86680111  0.24613442  0.25523916  1
  O  O361  1  0.87288956  0.24978471  0.73250103  1
  O  O362  1  0.88267685  0.75578046  0.27440550  1
  O  O363  1  0.89487786  0.74477303  0.76824767  1
  O  O364  1  0.40625509  0.46758341  0.51105239  1
  O  O365  1  0.38672104  0.49617535  1.00352587  1
  O  O366  1  0.36468553  0.99893055  0.48050584  1
  O  O367  1  0.38754324  0.98651787  1.00567568  1
  O  O368  1  0.86824897  0.50417527  0.49565421  1
  O  O369  1  0.87827603  0.50180179  0.98640984  1
  O  O370  1  0.89123817  1.00137652  0.52422814  1
  O  O371  1  0.87400258  0.98562441  0.99372422  1
  O  O372  1  0.13445711  -0.00335117  0.01420050  1
  O  O373  1  0.12901295  -0.00000385  0.51123738  1
  O  O374  1  0.04782360  0.45480154  0.00580781  1
  O  O375  1  0.11197058  0.51635800  0.49098952  1
  O  O376  1  0.61588349  0.00559715  0.00300286  1
  O  O377  1  0.60916504  -0.00149422  0.53861226  1
  O  O378  1  0.62399652  0.50232384  0.00765243  1
  O  O379  1  0.61402297  0.50146201  0.51614758  1
  O  O380  1  0.37809021  0.36289916  0.12086771  1
  O  O381  1  0.37879468  0.36183680  0.61555481  1
  O  O382  1  0.35985969  0.87668702  0.11473389  1
  O  O383  1  0.44051066  0.86686924  0.60071592  1
  O  O384  1  0.86827929  0.35898955  0.14147376  1
  O  O385  1  0.88178423  0.35506964  0.62596716  1
  O  O386  1  0.85591334  0.88189432  0.10720997  1
  O  O387  1  0.87969765  0.88479951  0.67001687  1
  O  O388  1  0.14605210  0.12749729  0.37196675  1
  O  O389  1  0.10886423  0.13801893  0.87495946  1
  O  O390  1  0.12276406  0.64231942  0.37912006  1
  O  O391  1  0.14357077  0.64175678  0.86165635  1
  O  O392  1  0.64095522  0.11755250  0.38313874  1
  O  O393  1  0.60858397  0.13377644  0.88173339  1
  O  O394  1  0.63711226  0.61673604  0.36927770  1
  O  O395  1  0.61893819  0.62754442  0.88716911  1
