# generated using pymatgen
data_V35Zn35O128
_symmetry_space_group_name_H-M   'P 1'
_cell_length_a   16.85336903
_cell_length_b   16.92046861
_cell_length_c   16.90669225
_cell_angle_alpha   89.86480991
_cell_angle_beta   90.14879886
_cell_angle_gamma   90.19801214
_symmetry_Int_Tables_number   1
_chemical_formula_structural   V35Zn35O128
_chemical_formula_sum   'V70 Zn70 O256'
_cell_volume   4821.17067445
_cell_formula_units_Z   2
loop_
 _symmetry_equiv_pos_site_id
 _symmetry_equiv_pos_as_xyz
  1  'x, y, z'
loop_
 _atom_site_type_symbol
 _atom_site_label
 _atom_site_symmetry_multiplicity
 _atom_site_fract_x
 _atom_site_fract_y
 _atom_site_fract_z
 _atom_site_occupancy
  V  V0  1  0.49261098  0.01330515  0.49294617  1
  V  V1  1  0.38683108  0.39244451  -0.01553169  1
  V  V2  1  0.26284602  0.38140722  0.12696456  1
  V  V3  1  0.00832409  0.50737844  -0.00489056  1
  V  V4  1  0.37958000  0.50825041  0.38261392  1
  V  V5  1  0.13662303  0.38021997  0.75943364  1
  V  V6  1  0.74051140  0.62554458  0.36845673  1
  V  V7  1  0.12618804  0.86255159  0.26207986  1
  V  V8  1  0.19771982  -0.00766508  0.72272720  1
  V  V9  1  0.00499305  0.01401356  0.00000137  1
  V  V10  1  0.73798077  0.12334019  0.88238303  1
  V  V11  1  0.25718229  0.24894197  0.00247058  1
  V  V12  1  0.36900447  0.74673477  0.11768494  1
  V  V13  1  0.24310298  0.61807223  0.88412403  1
  V  V14  1  0.62547318  0.00552022  0.61891803  1
  V  V15  1  0.89302831  0.23451434  0.13150770  1
  V  V16  1  0.62553981  0.73916583  0.87431599  1
  V  V17  1  -0.01450773  0.24897164  0.74930142  1
  V  V18  1  0.61943619  0.75695359  0.39134399  1
  V  V19  1  0.87509058  0.49154939  0.38132422  1
  V  V20  1  0.77440405  0.12054918  0.40707382  1
  V  V21  1  0.36516027  0.36858647  0.49787310  1
  V  V22  1  0.61792547  0.60691353  0.50818930  1
  V  V23  1  0.35704024  0.87310203  -0.00095842  1
  V  V24  1  0.49830361  0.88076675  0.88499449  1
  V  V25  1  0.12304470  0.24964870  0.35982654  1
  V  V26  1  -0.00911402  0.60642642  0.61915289  1
  V  V27  1  0.62886173  0.38883222  0.73612350  1
  V  V28  1  0.88332010  0.87083021  -0.00688378  1
  V  V29  1  0.12558572  -0.02115005  0.11486689  1
  V  V30  1  0.25146713  0.00862315  0.24928028  1
  V  V31  1  0.76302195  0.00922204  0.25288535  1
  V  V32  1  0.48670355  0.24140321  0.24109340  1
  V  V33  1  0.75036154  0.87734061  0.12871321  1
  V  V34  1  0.62438456  0.88653712  0.24414390  1
  V  V35  1  0.88184232  0.00260845  0.87122467  1
  V  V36  1  0.00884943  0.62540980  0.12957203  1
  V  V37  1  0.12560693  0.49381996  0.13331558  1
  V  V38  1  0.66356930  0.47202108  0.13813203  1
  V  V39  1  0.49731838  0.73924539  0.24891509  1
  V  V40  1  0.13165712  0.23967967  0.88241811  1
  V  V41  1  0.14478713  0.61519268  0.49065062  1
  V  V42  1  0.48102414  0.75483042  0.74551015  1
  V  V43  1  0.25343584  0.50355703  0.26864854  1
  V  V44  1  0.49376821  0.61360981  0.61992215  1
  V  V45  1  0.48860357  0.88809553  0.36723172  1
  V  V46  1  0.85962514  0.61120097  0.76562799  1
  V  V47  1  0.62538761  0.87453331  0.74820144  1
  V  V48  1  0.90735619  -0.01612833  0.37161863  1
  V  V49  1  0.74420735  0.74413990  -0.00679688  1
  V  V50  1  0.51009279  0.25313461  0.77142520  1
  V  V51  1  0.12399803  0.75379377  0.88539698  1
  V  V52  1  0.86790924  0.74595964  0.62250239  1
  V  V53  1  0.36601031  0.60378217  0.75377402  1
  V  V54  1  0.00246083  0.75419305  0.75040929  1
  V  V55  1  0.91262064  0.86544133  0.49831568  1
  V  V56  1  -0.00632781  0.37723743  0.87965736  1
  V  V57  1  0.73995984  0.24422073  0.00529038  1
  V  V58  1  0.50977949  0.61718237  0.10323127  1
  V  V59  1  0.37137987  0.86778659  0.51885718  1
  V  V60  1  0.86987490  0.37162522  0.00752671  1
  V  V61  1  0.36981395  0.01902658  0.87561518  1
  V  V62  1  0.51064281  0.37168837  0.37642864  1
  V  V63  1  0.87510395  0.73657356  0.13188043  1
  V  V64  1  -0.00016558  0.38013911  0.32969690  1
  V  V65  1  0.50491622  0.13177880  0.63052273  1
  V  V66  1  0.37115530  0.24302844  0.63172913  1
  V  V67  1  0.75500191  0.00092740  0.75053573  1
  V  V68  1  0.74800749  0.87032451  0.60816847  1
  V  V69  1  0.13513017  0.49143751  0.62727821  1
  Zn  Zn70  1  0.26159145  0.13581885  0.39660496  1
  Zn  Zn71  1  0.10836631  0.11060914  0.50150859  1
  Zn  Zn72  1  0.00337772  0.12537455  0.62612754  1
  Zn  Zn73  1  0.41667718  0.07243192  0.30963170  1
  Zn  Zn74  1  0.64319860  0.26063087  0.35403781  1
  Zn  Zn75  1  0.25400402  0.37020393  0.63041239  1
  Zn  Zn76  1  0.18874615  0.19990371  0.18667698  1
  Zn  Zn77  1  0.18286521  0.18201339  0.69737500  1
  Zn  Zn78  1  0.19363341  0.68207404  0.19587154  1
  Zn  Zn79  1  0.17946176  0.67495304  0.69627423  1
  Zn  Zn80  1  0.69942955  0.27924243  0.19375289  1
  Zn  Zn81  1  0.68140359  0.18384587  0.70259384  1
  Zn  Zn82  1  0.68216738  0.69556757  0.18714119  1
  Zn  Zn83  1  0.68434920  0.68412160  0.68543288  1
  Zn  Zn84  1  0.30940451  0.31106610  0.30966205  1
  Zn  Zn85  1  0.32109143  0.30816869  0.81704806  1
  Zn  Zn86  1  0.30836979  0.82066715  0.29785992  1
  Zn  Zn87  1  0.29730465  0.82243841  0.81085187  1
  Zn  Zn88  1  0.83460320  0.29755973  0.32631830  1
  Zn  Zn89  1  0.80343623  0.31482423  0.82095505  1
  Zn  Zn90  1  0.96169732  0.79183385  0.30851004  1
  Zn  Zn91  1  0.81608900  0.80935179  0.80683003  1
  Zn  Zn92  1  0.16315205  0.40944653  0.44867397  1
  Zn  Zn93  1  0.19229776  0.43925806  0.94152277  1
  Zn  Zn94  1  0.19168018  0.94132815  0.43453630  1
  Zn  Zn95  1  0.18894010  0.93423404  0.90558483  1
  Zn  Zn96  1  0.70138930  0.43838452  0.30964661  1
  Zn  Zn97  1  0.68758883  0.44987570  0.95470751  1
  Zn  Zn98  1  0.68264009  0.94603319  0.42911672  1
  Zn  Zn99  1  0.69337280  0.92785754  0.93393447  1
  Zn  Zn100  1  0.28184073  0.04084298  0.01896605  1
  Zn  Zn101  1  0.30407996  0.05827107  0.56685113  1
  Zn  Zn102  1  0.31692824  0.56662583  0.05969581  1
  Zn  Zn103  1  0.31935093  0.55507890  0.56861569  1
  Zn  Zn104  1  0.81745434  0.06292272  0.06414098  1
  Zn  Zn105  1  0.84187600  0.03804496  0.56986993  1
  Zn  Zn106  1  0.81027390  0.55514113  0.04215520  1
  Zn  Zn107  1  0.80246022  0.56168251  0.55158497  1
  Zn  Zn108  1  0.44223427  0.43952720  0.19731557  1
  Zn  Zn109  1  0.44071206  0.43014944  0.69459400  1
  Zn  Zn110  1  0.43230956  0.94278174  0.17386246  1
  Zn  Zn111  1  0.43026565  0.94774757  0.69363171  1
  Zn  Zn112  1  0.86765628  0.43971210  0.19436800  1
  Zn  Zn113  1  0.93582805  0.43778399  0.70161375  1
  Zn  Zn114  1  0.94174091  0.92933453  0.18208175  1
  Zn  Zn115  1  0.97828373  0.95236339  0.68742561  1
  Zn  Zn116  1  0.07962566  0.06305499  0.30158417  1
  Zn  Zn117  1  0.06336400  0.06567660  0.80856237  1
  Zn  Zn118  1  0.03757195  0.60325139  0.33040485  1
  Zn  Zn119  1  0.05786335  0.56749765  0.80851854  1
  Zn  Zn120  1  0.61089747  0.10973768  0.27122040  1
  Zn  Zn121  1  0.55828102  0.06151851  0.81176341  1
  Zn  Zn122  1  0.56497395  0.55924886  0.31437712  1
  Zn  Zn123  1  0.56164582  0.56416062  0.80262456  1
  Zn  Zn124  1  0.44547542  0.19867071  0.44220597  1
  Zn  Zn125  1  0.44356106  0.19754649  0.95794755  1
  Zn  Zn126  1  0.31662437  0.69667257  0.43933743  1
  Zn  Zn127  1  0.43142967  0.68578206  0.93389062  1
  Zn  Zn128  1  0.94206641  0.19098253  0.41882924  1
  Zn  Zn129  1  0.93491959  0.18875339  0.93392118  1
  Zn  Zn130  1  0.92608134  0.67485017  0.44217889  1
  Zn  Zn131  1  0.93719600  0.68757484  0.93431775  1
  Zn  Zn132  1  0.06793485  0.31349064  0.06530160  1
  Zn  Zn133  1  0.06882149  0.26199859  0.55718413  1
  Zn  Zn134  1  0.06391942  0.80434152  0.05786265  1
  Zn  Zn135  1  0.06945625  0.78459925  0.56445229  1
  Zn  Zn136  1  0.56114319  0.31817063  0.07025553  1
  Zn  Zn137  1  0.55183314  0.33716014  0.57204266  1
  Zn  Zn138  1  0.56345116  0.80843430  0.06618017  1
  Zn  Zn139  1  0.54296182  0.82024065  0.56585719  1
  O  O140  1  0.09909178  0.11628457  0.14275724  1
  O  O141  1  0.11336353  0.16339707  0.61132892  1
  O  O142  1  0.11461158  0.62065003  0.12696087  1
  O  O143  1  0.11341937  0.60594552  0.62602206  1
  O  O144  1  0.64415787  0.04193266  0.05630845  1
  O  O145  1  0.62211025  0.11453497  0.63053795  1
  O  O146  1  0.60973139  0.63176321  0.12743986  1
  O  O147  1  0.60801036  0.63220743  0.61846732  1
  O  O148  1  0.37583163  0.37040336  0.38970899  1
  O  O149  1  0.37709942  0.37963999  0.88385815  1
  O  O150  1  0.38864025  0.88368963  0.36110361  1
  O  O151  1  0.38633511  0.87059181  0.88429373  1
  O  O152  1  0.89975901  0.38067825  0.37888172  1
  O  O153  1  0.88960085  0.37161968  0.88485513  1
  O  O154  1  0.91103337  0.86399377  0.39044184  1
  O  O155  1  0.86456288  0.88298418  0.88759867  1
  O  O156  1  0.23601035  0.01629399  0.35046657  1
  O  O157  1  0.26553775  0.02053390  0.90195906  1
  O  O158  1  0.25787543  0.48824735  0.37092597  1
  O  O159  1  0.23916086  0.51774495  0.87360443  1
  O  O160  1  0.76116649  0.00606722  0.36852550  1
  O  O161  1  0.75722577  0.00393168  0.87265658  1
  O  O162  1  0.70627694  0.53063218  0.37944247  1
  O  O163  1  0.77282959  0.51769249  0.93853602  1
  O  O164  1  0.24131326  0.49655112  0.12120862  1
  O  O165  1  0.23810310  0.49540009  0.63253948  1
  O  O166  1  0.22636986  1.00453233  0.11242538  1
  O  O167  1  0.24321345  0.98641623  0.63413849  1
  O  O168  1  0.76713688  0.49012841  0.13410395  1
  O  O169  1  0.77712495  0.46463572  0.63105392  1
  O  O170  1  0.77438618  0.98592617  0.14029941  1
  O  O171  1  0.74605493  0.98930451  0.63371708  1
  O  O172  1  -0.02355504  0.39984089  0.23447033  1
  O  O173  1  0.00557869  0.37032845  0.76718880  1
  O  O174  1  0.01699322  0.86847946  0.24304400  1
  O  O175  1  -0.01437272  0.85272188  0.73770660  1
  O  O176  1  0.49294270  0.36083323  0.26699250  1
  O  O177  1  0.51583339  0.36309534  0.75115935  1
  O  O178  1  0.51306638  0.89887952  0.24956224  1
  O  O179  1  0.50581882  0.86735482  0.75644891  1
  O  O180  1  0.49747762  0.13231555  0.25809659  1
  O  O181  1  0.50829472  0.14027336  0.74307967  1
  O  O182  1  0.49849033  0.64040599  0.25665484  1
  O  O183  1  0.48432325  0.63880124  0.75215869  1
  O  O184  1  1.04443496  0.12044005  0.19811782  1
  O  O185  1  1.00141921  0.14591595  0.75211538  1
  O  O186  1  0.99006414  0.61413004  0.22551605  1
  O  O187  1  0.98394353  0.62781811  0.73954702  1
  O  O188  1  0.36124043  0.26724631  -0.00330936  1
  O  O189  1  0.37672641  0.25919009  0.51912647  1
  O  O190  1  0.38065301  0.76171418  0.00647025  1
  O  O191  1  0.37997135  0.76801552  0.50228446  1
  O  O192  1  0.87546076  0.25825519  0.00336214  1
  O  O193  1  0.89641059  0.32682974  0.52587932  1
  O  O194  1  0.86283624  0.75919484  -0.00451594  1
  O  O195  1  0.88417868  0.75702832  0.51042705  1
  O  O196  1  0.11890257  0.29748757  0.46237998  1
  O  O197  1  0.13755945  0.26181248  0.98810426  1
  O  O198  1  0.12189012  0.71279205  0.49834806  1
  O  O199  1  0.11506398  0.73648312  0.98424209  1
  O  O200  1  0.67564927  0.28503650  0.49068241  1
  O  O201  1  0.64133989  0.25639422  1.00778815  1
  O  O202  1  0.60572268  0.76193092  0.49049042  1
  O  O203  1  0.63355758  0.75968380  0.98496246  1
  O  O204  1  0.49494624  0.25715684  0.14233972  1
  O  O205  1  0.49889995  0.24192084  0.62507721  1
  O  O206  1  0.49878090  0.73967504  0.13197156  1
  O  O207  1  0.49971340  0.74648600  0.64423653  1
  O  O208  1  0.99253084  0.25310271  0.11872470  1
  O  O209  1  0.99435481  0.26679725  0.64998166  1
  O  O210  1  0.98723040  0.73367291  0.11087679  1
  O  O211  1  0.98934614  0.73045376  0.63273197  1
  O  O212  1  0.00236452  0.27295842  0.35326805  1
  O  O213  1  0.01139674  0.26166900  0.87565581  1
  O  O214  1  -0.00025443  0.70518355  0.36500490  1
  O  O215  1  0.00733056  0.73850609  0.85815959  1
  O  O216  1  0.51607570  0.25935923  0.37262945  1
  O  O217  1  0.50169915  0.24530607  0.86970078  1
  O  O218  1  0.50357057  0.77076953  0.35371008  1
  O  O219  1  0.50950240  0.75900489  0.86515775  1
  O  O220  1  0.22492261  0.09946304  0.49771440  1
  O  O221  1  0.25744622  0.15122965  1.01997945  1
  O  O222  1  0.24983445  0.62197190  0.50491160  1
  O  O223  1  0.25478895  0.62939085  0.98310556  1
  O  O224  1  0.76916204  0.09949123  0.50507377  1
  O  O225  1  0.75239004  0.12909319  0.99202874  1
  O  O226  1  0.72336217  0.62932514  0.50232765  1
  O  O227  1  0.74455911  0.64789585  1.00646843  1
  O  O228  1  0.26126145  0.37514798  0.00790946  1
  O  O229  1  0.26165634  0.37236306  0.50725159  1
  O  O230  1  0.25865752  0.87349017  -0.01135181  1
  O  O231  1  0.27792404  0.88987661  0.48720118  1
  O  O232  1  0.76385804  0.35741741  -0.01540675  1
  O  O233  1  0.73426059  0.32947983  0.49920954  1
  O  O234  1  0.75763193  0.87114449  0.01048545  1
  O  O235  1  0.73679537  0.87925079  0.50962075  1
  O  O236  1  0.13816268  0.50090134  0.23403750  1
  O  O237  1  0.11729078  0.48594796  0.74461790  1
  O  O238  1  0.12769361  0.98571560  0.22885226  1
  O  O239  1  0.08905238  0.99051211  0.72360736  1
  O  O240  1  0.62792906  0.49900223  0.23585550  1
  O  O241  1  0.61623656  0.48930496  0.74091401  1
  O  O242  1  0.65086405  1.00189910  0.25255094  1
  O  O243  1  0.63162482  0.99140512  0.74204456  1
  O  O244  1  0.35816432  0.00226224  0.23861501  1
  O  O245  1  0.37442783  0.00303913  0.77469042  1
  O  O246  1  0.36387228  0.49322149  0.26963246  1
  O  O247  1  0.37876259  0.50550607  0.75783552  1
  O  O248  1  0.87193295  -0.02912087  0.26775555  1
  O  O249  1  0.86753358  -0.01470013  0.76821088  1
  O  O250  1  0.82039185  0.47643451  0.29105277  1
  O  O251  1  0.87517692  0.51104025  0.76136891  1
  O  O252  1  0.09880784  0.39986194  0.35231968  1
  O  O253  1  0.11940384  0.37401285  0.86943859  1
  O  O254  1  0.12978878  0.87226124  0.36158649  1
  O  O255  1  0.11384397  0.85463322  0.87989853  1
  O  O256  1  0.60940050  0.38616223  0.38095092  1
  O  O257  1  0.59155021  0.42507334  0.88842421  1
  O  O258  1  0.61485111  0.87294559  0.36617170  1
  O  O259  1  0.61546203  0.87366694  0.86501790  1
  O  O260  1  0.45705887  0.08641947  0.08094126  1
  O  O261  1  0.38467013  0.13727494  0.62397950  1
  O  O262  1  0.38938098  0.64185597  0.11501434  1
  O  O263  1  0.38221924  0.62246523  0.64157377  1
  O  O264  1  0.88574647  0.13376065  0.11784838  1
  O  O265  1  0.82406567  0.21087863  0.60968743  1
  O  O266  1  0.87573307  0.63370089  0.11114619  1
  O  O267  1  0.87754743  0.62393984  0.62201715  1
  O  O268  1  0.24019154  0.27325816  0.11425034  1
  O  O269  1  0.26901048  0.24779501  0.64649214  1
  O  O270  1  0.27077698  0.74156728  0.13080772  1
  O  O271  1  0.22704805  0.77369555  0.63312004  1
  O  O272  1  0.76488781  0.24038046  0.10693312  1
  O  O273  1  0.76639096  0.24743156  0.63968237  1
  O  O274  1  0.75765256  0.75662997  0.11465747  1
  O  O275  1  0.75778821  0.75893018  0.63062861  1
  O  O276  1  0.23250724  0.24584306  0.36562199  1
  O  O277  1  0.24164722  0.25168029  0.88561486  1
  O  O278  1  0.26249591  0.73698435  0.35211800  1
  O  O279  1  0.23047598  0.74420254  0.86252057  1
  O  O280  1  0.82466387  0.21491001  0.40697779  1
  O  O281  1  0.75495534  0.22840943  0.88531616  1
  O  O282  1  0.71935848  0.74230972  0.38191844  1
  O  O283  1  0.73727037  0.75872003  0.88187627  1
  O  O284  1  0.00020650  0.11214830  -0.00438508  1
  O  O285  1  0.00219674  0.16645118  0.50997340  1
  O  O286  1  -0.00779553  0.60956243  0.00087494  1
  O  O287  1  -0.00166203  0.61341335  0.51790139  1
  O  O288  1  0.50554018  0.13235112  0.03624812  1
  O  O289  1  0.50386119  0.11741734  0.51221188  1
  O  O290  1  0.50224303  0.62645042  0.00238529  1
  O  O291  1  0.49896606  0.62641837  0.51956547  1
  O  O292  1  0.48728172  0.36914865  0.48701762  1
  O  O293  1  0.48423773  0.36985161  1.00728141  1
  O  O294  1  0.48711656  0.88955693  0.48939860  1
  O  O295  1  0.50679577  0.87041121  0.98492306  1
  O  O296  1  0.95716704  0.36667667  0.53489860  1
  O  O297  1  0.99844993  0.37732278  0.99016589  1
  O  O298  1  1.00887501  0.87299333  0.52590796  1
  O  O299  1  0.98444801  0.87130862  0.99798898  1
  O  O300  1  0.48588473  0.48590883  0.36645650  1
  O  O301  1  0.53842141  0.48148054  0.89086235  1
  O  O302  1  0.50135307  1.00447442  0.38860486  1
  O  O303  1  0.49494924  0.98483698  0.87243992  1
  O  O304  1  0.97689929  0.50444863  0.36393201  1
  O  O305  1  1.00770600  0.48904177  0.88534128  1
  O  O306  1  1.00514829  0.99609394  0.36130887  1
  O  O307  1  0.98915598  1.00172797  0.88244151  1
  O  O308  1  0.00677975  -0.00835859  0.10651305  1
  O  O309  1  -0.06381831  0.03664766  0.62929644  1
  O  O310  1  0.01396601  0.50979411  0.11312197  1
  O  O311  1  0.00197120  0.50297712  0.63247814  1
  O  O312  1  0.49721665  0.03209628  0.12230336  1
  O  O313  1  0.50778736  0.01193489  0.62662468  1
  O  O314  1  0.49007189  0.52193979  0.13524719  1
  O  O315  1  0.49547988  0.51451587  0.63343448  1
  O  O316  1  0.25514164  0.38702708  0.23363235  1
  O  O317  1  0.23843340  0.37141467  0.75645326  1
  O  O318  1  0.23781734  0.89415119  0.24297891  1
  O  O319  1  0.23195849  0.91405058  0.78472094  1
  O  O320  1  0.72824096  0.32747374  0.29699269  1
  O  O321  1  0.71880149  0.37456210  0.78378868  1
  O  O322  1  0.73667665  0.87788324  0.24062986  1
  O  O323  1  0.74140952  0.88177028  0.74585428  1
  O  O324  1  0.23879573  0.10941062  0.23001327  1
  O  O325  1  0.21421796  0.08814331  0.75567957  1
  O  O326  1  0.25263301  0.60214521  0.25112222  1
  O  O327  1  0.26349969  0.62159572  0.74722791  1
  O  O328  1  0.77287915  0.10536367  0.24704731  1
  O  O329  1  0.74861304  0.10883159  0.76305875  1
  O  O330  1  0.73671547  0.63871507  0.26899865  1
  O  O331  1  0.76063502  0.62287797  0.74085267  1
  O  O332  1  0.37298420  0.12860006  0.39369023  1
  O  O333  1  0.39575204  0.11346532  0.89308955  1
  O  O334  1  0.38045432  0.60540707  0.39152186  1
  O  O335  1  0.36022285  0.63450900  0.85947633  1
  O  O336  1  0.88524016  0.08749409  0.38102719  1
  O  O337  1  0.86632307  0.10598583  0.88110846  1
  O  O338  1  0.84602136  0.60917272  0.38632491  1
  O  O339  1  0.86681919  0.63441717  0.86331118  1
  O  O340  1  0.13401506  0.39092302  0.12025674  1
  O  O341  1  0.12747539  0.38079148  0.64145664  1
  O  O342  1  0.12567035  0.87762309  0.11887072  1
  O  O343  1  0.17572522  0.82668831  0.61365947  1
  O  O344  1  0.64589570  0.36893015  0.13671923  1
  O  O345  1  0.63697364  0.36763908  0.63622921  1
  O  O346  1  0.63623418  0.87350535  0.12999368  1
  O  O347  1  0.62619488  0.88071105  0.63375919  1
  O  O348  1  0.12449448  0.26240176  0.25786529  1
  O  O349  1  0.11974056  0.26324465  0.76687519  1
  O  O350  1  0.13405553  0.76370259  0.24251836  1
  O  O351  1  0.10527822  0.74675768  0.74354263  1
  O  O352  1  0.61210933  0.22431682  0.24429557  1
  O  O353  1  0.61525824  0.25772209  0.75585758  1
  O  O354  1  0.60883152  0.76721352  0.24997459  1
  O  O355  1  0.62265388  0.75883907  0.76001066  1
  O  O356  1  0.38581393  0.24383637  0.25764172  1
  O  O357  1  0.39627249  0.26043778  0.73952828  1
  O  O358  1  0.39452169  0.76910923  0.22958262  1
  O  O359  1  0.38162122  0.76290472  0.75342317  1
  O  O360  1  0.87366312  0.25158749  0.22909575  1
  O  O361  1  0.88606230  0.25884472  0.76531127  1
  O  O362  1  0.87763863  0.74894558  0.22912640  1
  O  O363  1  0.87844548  0.73874860  0.73864599  1
  O  O364  1  0.37194134  0.48296682  0.49228916  1
  O  O365  1  0.37564148  0.49215262  0.99759146  1
  O  O366  1  0.39222865  0.99973995  0.51289265  1
  O  O367  1  0.38038767  0.97921503  0.99116358  1
  O  O368  1  0.84525642  0.48559224  0.47837640  1
  O  O369  1  0.89858753  0.47802934  1.01228312  1
  O  O370  1  0.88093729  0.96729960  0.48273056  1
  O  O371  1  0.88470212  0.98841422  0.99353532  1
  O  O372  1  0.11088420  -0.00827950  -0.00008523  1
  O  O373  1  0.12259093  -0.00087260  0.50038167  1
  O  O374  1  0.11362039  0.49733034  0.00738452  1
  O  O375  1  0.12690385  0.49740298  0.52086415  1
  O  O376  1  0.61466672  -0.00126995  0.00357721  1
  O  O377  1  0.60947529  -0.00792022  0.51263120  1
  O  O378  1  0.62942222  0.49500416  0.04637616  1
  O  O379  1  0.61295543  0.51184937  0.50785988  1
  O  O380  1  0.36456934  0.38704613  0.11978464  1
  O  O381  1  0.37784348  0.36742577  0.61789637  1
  O  O382  1  0.38191307  0.86650398  0.10533944  1
  O  O383  1  0.38161672  0.87782512  0.61982950  1
  O  O384  1  0.87034123  0.36021987  0.11014483  1
  O  O385  1  0.82846002  0.40950939  0.63629903  1
  O  O386  1  0.87126393  0.85960810  0.11193787  1
  O  O387  1  0.86624344  0.86370311  0.60795100  1
  O  O388  1  0.10662686  0.14643071  0.37550193  1
  O  O389  1  0.11866523  0.14157240  0.87915104  1
  O  O390  1  0.13153327  0.59306874  0.39406730  1
  O  O391  1  0.13500609  0.63412268  0.86071436  1
  O  O392  1  0.67819431  0.14708158  0.37625820  1
  O  O393  1  0.63811355  0.11251727  0.87853829  1
  O  O394  1  0.60615911  0.64196407  0.39283886  1
  O  O395  1  0.62043693  0.64115809  0.86781656  1
