# generated using pymatgen
data_V35Zn35O128
_symmetry_space_group_name_H-M   'P 1'
_cell_length_a   16.84464222
_cell_length_b   16.83314924
_cell_length_c   16.83148579
_cell_angle_alpha   90.08364529
_cell_angle_beta   89.76837021
_cell_angle_gamma   89.89302918
_symmetry_Int_Tables_number   1
_chemical_formula_structural   V35Zn35O128
_chemical_formula_sum   'V70 Zn70 O256'
_cell_volume   4772.48801119
_cell_formula_units_Z   2
loop_
 _symmetry_equiv_pos_site_id
 _symmetry_equiv_pos_as_xyz
  1  'x, y, z'
loop_
 _atom_site_type_symbol
 _atom_site_label
 _atom_site_symmetry_multiplicity
 _atom_site_fract_x
 _atom_site_fract_y
 _atom_site_fract_z
 _atom_site_occupancy
  V  V0  1  0.00595802  0.38089013  0.89418200  1
  V  V1  1  0.73793910  0.62672192  0.37812434  1
  V  V2  1  0.24571844  -0.00794335  0.74612732  1
  V  V3  1  0.24259644  0.12463344  0.86795257  1
  V  V4  1  0.36615454  0.75026463  0.12586660  1
  V  V5  1  0.87210844  0.86748254  -0.00534005  1
  V  V6  1  0.00672055  0.25633588  0.74919297  1
  V  V7  1  -0.01560560  0.00227024  0.50994643  1
  V  V8  1  0.13752320  0.86719315  0.73613270  1
  V  V9  1  0.37666710  0.61122596  0.74841856  1
  V  V10  1  0.62336722  0.89752742  0.24165861  1
  V  V11  1  0.74621959  0.62827981  0.87244567  1
  V  V12  1  0.24227372  0.75156904  -0.00437318  1
  V  V13  1  0.74955684  0.36515738  0.09264872  1
  V  V14  1  0.51836380  0.62553372  0.63050621  1
  V  V15  1  0.37112877  0.36656296  0.49799415  1
  V  V16  1  0.38226689  0.88096788  0.00515027  1
  V  V17  1  0.37232053  0.13347506  0.25112024  1
  V  V18  1  0.36051853  0.62074013  0.24854893  1
  V  V19  1  0.63219514  0.12317454  0.49325704  1
  V  V20  1  0.49629478  0.35896509  0.87581454  1
  V  V21  1  0.12118674  0.50293253  0.10196242  1
  V  V22  1  0.51428727  0.50448758  0.50042136  1
  V  V23  1  0.00058278  0.74545688  0.73625750  1
  V  V24  1  0.63583938  0.11350803  -0.00030081  1
  V  V25  1  0.49729748  -0.00037277  0.49446224  1
  V  V26  1  0.62980597  0.24544580  0.35983874  1
  V  V27  1  -0.00377588  0.13573994  0.62843085  1
  V  V28  1  0.25400305  0.39171429  0.63039429  1
  V  V29  1  0.10537706  0.76561300  0.37439863  1
  V  V30  1  0.72733624  0.74989328  -0.00447831  1
  V  V31  1  0.49654263  0.13314999  0.63330654  1
  V  V32  1  0.76437640  0.87063173  0.63699872  1
  V  V33  1  0.38309641  0.00106563  0.87912044  1
  V  V34  1  0.74213748  0.88587267  0.12094327  1
  V  V35  1  0.00529708  0.52815645  0.50664747  1
  V  V36  1  0.86995446  0.01112808  0.85240882  1
  V  V37  1  0.12672886  0.12353028  0.01142740  1
  V  V38  1  0.61917345  -0.01310996  0.63825265  1
  V  V39  1  0.36856438  0.24749700  0.64066107  1
  V  V40  1  0.88117238  0.61789087  0.73284837  1
  V  V41  1  0.75238491  0.26175929  0.50068642  1
  V  V42  1  0.74110358  0.75982274  0.49962060  1
  V  V43  1  0.37708607  0.49796157  0.88883205  1
  V  V44  1  0.36568232  0.00128031  0.37178283  1
  V  V45  1  0.36716027  0.75382857  0.62526505  1
  V  V46  1  0.13958283  0.12726870  0.50208771  1
  V  V47  1  0.50250701  0.87158829  0.37021907  1
  V  V48  1  0.76819865  0.49224068  0.24948038  1
  V  V49  1  -0.00338821  0.00939208  -0.00005042  1
  V  V50  1  0.51174870  0.73791756  0.24569517  1
  V  V51  1  0.49992327  0.37036135  0.36889166  1
  V  V52  1  0.89297470  0.24154146  0.12287748  1
  V  V53  1  0.51742382  0.51197385  0.00639467  1
  V  V54  1  0.87584744  0.65039610  0.24667741  1
  V  V55  1  0.89433680  0.38648990  0.49456409  1
  V  V56  1  0.01414814  0.87099616  0.87265612  1
  V  V57  1  0.24331711  0.38330994  0.14821289  1
  V  V58  1  0.12600114  0.39252101  0.74575640  1
  V  V59  1  0.38015137  0.26131552  0.12387327  1
  V  V60  1  0.49719984  0.10040763  0.11540618  1
  V  V61  1  0.62185133  0.38603966  0.23643456  1
  V  V62  1  0.88203075  0.50702465  0.90834156  1
  V  V63  1  0.15305328  0.63797467  0.50311051  1
  V  V64  1  0.64928155  0.24136394  0.87484864  1
  V  V65  1  0.24311074  -0.00907421  0.24098289  1
  V  V66  1  0.24233579  0.62962579  0.87411817  1
  V  V67  1  0.11458668  0.25961469  0.37890143  1
  V  V68  1  0.36453158  0.50597152  0.37367117  1
  V  V69  1  0.24315864  0.26163413  -0.00364292  1
  Zn  Zn70  1  -0.00017851  0.61160850  0.13828658  1
  Zn  Zn71  1  0.83660216  0.27349853  0.66116506  1
  Zn  Zn72  1  0.83824802  0.14242113  0.25909939  1
  Zn  Zn73  1  0.68736326  0.41918070  0.69524861  1
  Zn  Zn74  1  0.36870705  0.86587788  0.50151595  1
  Zn  Zn75  1  0.11709969  -0.00534649  0.13709884  1
  Zn  Zn76  1  0.18857202  0.18690695  0.19334172  1
  Zn  Zn77  1  0.18035360  0.19922506  0.68856210  1
  Zn  Zn78  1  0.18279739  0.68652732  0.19542448  1
  Zn  Zn79  1  0.19215830  0.68703215  0.68959293  1
  Zn  Zn80  1  0.68473011  0.18512227  0.17430179  1
  Zn  Zn81  1  0.68488952  0.18059889  0.68980119  1
  Zn  Zn82  1  0.69236538  0.68675434  0.18007299  1
  Zn  Zn83  1  0.69333495  0.69493798  0.69687762  1
  Zn  Zn84  1  0.30032346  0.31341285  0.32124286  1
  Zn  Zn85  1  0.31160891  0.31642028  0.81431289  1
  Zn  Zn86  1  0.30505687  0.80954887  0.31315932  1
  Zn  Zn87  1  0.35796120  0.79414744  0.82839560  1
  Zn  Zn88  1  0.81830132  0.31741865  0.31255302  1
  Zn  Zn89  1  0.82128692  0.32448086  0.82686799  1
  Zn  Zn90  1  0.79587827  0.80977839  0.31007165  1
  Zn  Zn91  1  0.82037270  0.81218222  0.81406166  1
  Zn  Zn92  1  0.18004191  0.44636485  0.44515373  1
  Zn  Zn93  1  0.18714835  0.44858792  0.92881052  1
  Zn  Zn94  1  0.17378586  0.94394123  0.44108192  1
  Zn  Zn95  1  0.19502139  0.93747695  0.94161758  1
  Zn  Zn96  1  0.69351507  0.43635679  0.42663674  1
  Zn  Zn97  1  0.67668050  0.44367042  0.90081871  1
  Zn  Zn98  1  0.68108677  0.93307202  0.43927168  1
  Zn  Zn99  1  0.68652888  0.94283094  0.92081835  1
  Zn  Zn100  1  0.30881774  0.06523434  0.06703034  1
  Zn  Zn101  1  0.31394306  0.06308733  0.56180780  1
  Zn  Zn102  1  0.31027288  0.56701505  0.06304751  1
  Zn  Zn103  1  0.32360338  0.56375481  0.55945686  1
  Zn  Zn104  1  0.82133825  0.06942966  0.06601307  1
  Zn  Zn105  1  0.81059661  0.07110942  0.59788741  1
  Zn  Zn106  1  0.77554725  0.57401673  0.07720050  1
  Zn  Zn107  1  0.80368745  0.55328864  0.56175577  1
  Zn  Zn108  1  0.43842257  0.44151429  0.18188025  1
  Zn  Zn109  1  0.49091921  0.41219169  0.67162823  1
  Zn  Zn110  1  0.42884791  0.93116740  0.19018037  1
  Zn  Zn111  1  0.41782760  0.95272555  0.67878889  1
  Zn  Zn112  1  0.90750570  0.46075067  0.11803266  1
  Zn  Zn113  1  0.93610973  0.43631608  0.67425415  1
  Zn  Zn114  1  0.94713278  0.91086500  0.17019493  1
  Zn  Zn115  1  0.95296209  0.93158601  0.67159270  1
  Zn  Zn116  1  0.06457334  0.04737770  0.33868403  1
  Zn  Zn117  1  0.06309074  0.06156461  0.81096792  1
  Zn  Zn118  1  0.03942554  0.59528953  0.34403874  1
  Zn  Zn119  1  0.05844098  0.56223705  0.81291756  1
  Zn  Zn120  1  0.55387341  0.07040346  0.30553444  1
  Zn  Zn121  1  0.56410774  0.07301776  0.81581052  1
  Zn  Zn122  1  0.55981264  0.55776215  0.30974460  1
  Zn  Zn123  1  0.56469168  0.54828357  0.80615653  1
  Zn  Zn124  1  0.44024169  0.18740121  0.43545808  1
  Zn  Zn125  1  0.42574934  0.18214065  0.94470916  1
  Zn  Zn126  1  0.44335850  0.68641824  0.43770644  1
  Zn  Zn127  1  0.44995886  0.68790058  0.93517806  1
  Zn  Zn128  1  0.93921211  0.18267232  0.43179558  1
  Zn  Zn129  1  0.93432280  0.19361255  0.92731700  1
  Zn  Zn130  1  0.92412747  0.69653453  0.43659569  1
  Zn  Zn131  1  0.94348220  0.68832362  0.93313850  1
  Zn  Zn132  1  0.06761585  0.31017923  0.07460722  1
  Zn  Zn133  1  0.07219674  0.31510413  0.55971580  1
  Zn  Zn134  1  0.06293622  0.80938594  0.05502694  1
  Zn  Zn135  1  0.06728913  0.81670430  0.55680968  1
  Zn  Zn136  1  0.56471902  0.31716701  0.04348219  1
  Zn  Zn137  1  0.56833060  0.31064954  0.55524654  1
  Zn  Zn138  1  0.55617925  0.81066013  0.06545688  1
  Zn  Zn139  1  0.56155081  0.80344462  0.55793755  1
  O  O140  1  0.12716952  0.12130283  0.11483208  1
  O  O141  1  0.11691040  0.14242188  0.61203829  1
  O  O142  1  0.12716017  0.59890615  0.14596542  1
  O  O143  1  0.13295913  0.64189274  0.60481120  1
  O  O144  1  0.60226663  0.12780593  0.11247907  1
  O  O145  1  0.60825493  0.11470638  0.61269441  1
  O  O146  1  0.66799876  0.60605803  0.10826831  1
  O  O147  1  0.61767139  0.62325970  0.64468413  1
  O  O148  1  0.37977497  0.38169310  0.37532152  1
  O  O149  1  0.37022179  0.39321570  0.87745885  1
  O  O150  1  0.38924631  0.88562209  0.36723156  1
  O  O151  1  0.36910851  0.89105693  0.89205690  1
  O  O152  1  0.86851039  0.37214131  0.39562797  1
  O  O153  1  0.88977212  0.39775480  0.88527068  1
  O  O154  1  0.83564479  0.91222488  0.36990934  1
  O  O155  1  0.88571827  0.88586693  0.88250040  1
  O  O156  1  0.26183530  -0.00130966  0.37027609  1
  O  O157  1  0.25228209  0.00973670  0.86862152  1
  O  O158  1  0.26640736  0.49549508  0.37880872  1
  O  O159  1  0.26457593  0.51857017  0.88213022  1
  O  O160  1  0.78452950  -0.03127967  0.37549804  1
  O  O161  1  0.76973354  -0.00425576  0.86522140  1
  O  O162  1  0.74921867  0.50924163  0.35789151  1
  O  O163  1  0.77359791  0.51804515  0.88529794  1
  O  O164  1  0.24210485  0.48703604  0.11587842  1
  O  O165  1  0.26671679  0.48982458  0.63225869  1
  O  O166  1  0.24253981  0.99816809  0.13565595  1
  O  O167  1  0.26783476  1.00135379  0.64788581  1
  O  O168  1  0.75519655  0.47379252  0.13727422  1
  O  O169  1  0.72824588  0.49705124  0.62155588  1
  O  O170  1  0.75101931  0.98415781  0.11177596  1
  O  O171  1  0.72526655  0.97698587  0.61789890  1
  O  O172  1  0.00060689  0.36893473  0.25744268  1
  O  O173  1  0.01378686  0.37662134  0.74720308  1
  O  O174  1  0.04042459  0.85229727  0.20215201  1
  O  O175  1  0.01691720  0.87006302  0.75623107  1
  O  O176  1  0.51114217  0.38144783  0.25524858  1
  O  O177  1  0.48743762  0.38239266  0.77738692  1
  O  O178  1  0.51162738  0.87044295  0.24970764  1
  O  O179  1  0.62097288  0.83635617  0.79102970  1
  O  O180  1  0.48370392  0.12255410  0.22995865  1
  O  O181  1  0.49769153  0.12312622  0.73172417  1
  O  O182  1  0.49522890  0.63650349  0.25298772  1
  O  O183  1  0.49249614  0.61123420  0.73842931  1
  O  O184  1  0.95506593  0.05026147  0.26564819  1
  O  O185  1  1.02045099  0.14791550  0.74690949  1
  O  O186  1  0.98061740  0.62904870  0.25290811  1
  O  O187  1  0.99701975  0.63722210  0.74888525  1
  O  O188  1  0.35215037  0.24418481  0.01821085  1
  O  O189  1  0.37678679  0.26307900  0.49563760  1
  O  O190  1  0.37234511  0.75852025  0.01192031  1
  O  O191  1  0.38863462  0.74850852  0.51589106  1
  O  O192  1  0.88391639  0.23232828  0.01992798  1
  O  O193  1  0.85397981  0.24595272  0.48887104  1
  O  O194  1  0.87378757  0.76782628  -0.01012062  1
  O  O195  1  0.84425073  0.74365900  0.50006158  1
  O  O196  1  0.12858361  0.24079889  0.49175786  1
  O  O197  1  0.13422377  0.23697535  1.00682069  1
  O  O198  1  0.12174141  0.74706046  0.48931031  1
  O  O199  1  0.14271459  0.75362910  0.99646296  1
  O  O200  1  0.62993499  0.24195712  0.48637641  1
  O  O201  1  0.61244083  0.23025810  0.98467162  1
  O  O202  1  0.63694147  0.74114641  0.49974537  1
  O  O203  1  0.62762667  0.75449294  0.99351095  1
  O  O204  1  0.47896715  0.26473447  0.11494694  1
  O  O205  1  0.49026707  0.23784495  0.61520591  1
  O  O206  1  0.48433676  0.75458342  0.14116636  1
  O  O207  1  0.50072385  0.72788546  0.62286467  1
  O  O208  1  0.99320008  0.25403559  0.13632346  1
  O  O209  1  1.01043401  0.25632550  0.64128080  1
  O  O210  1  0.99605748  0.71926442  0.08370616  1
  O  O211  1  1.00259709  0.75804850  0.63855193  1
  O  O212  1  0.01278628  0.25291169  0.37765396  1
  O  O213  1  -0.00040207  0.27477682  0.87047944  1
  O  O214  1  0.00411498  0.74820764  0.36943822  1
  O  O215  1  0.00166151  0.76738647  0.86872008  1
  O  O216  1  0.51008246  0.26247791  0.37712178  1
  O  O217  1  0.47111892  0.26087258  0.87974525  1
  O  O218  1  0.49335609  0.76076238  0.35720972  1
  O  O219  1  0.46602608  0.76932942  0.86351894  1
  O  O220  1  0.24064439  0.12165635  0.50163868  1
  O  O221  1  0.23761699  0.12859794  0.99677721  1
  O  O222  1  0.25341501  0.62857814  0.49694081  1
  O  O223  1  0.25819407  0.63787144  0.98689825  1
  O  O224  1  0.73299138  0.12093126  0.50088511  1
  O  O225  1  0.73418486  0.12262220  1.01365044  1
  O  O226  1  0.74970901  0.61848989  0.48012370  1
  O  O227  1  0.75631313  0.64444394  0.98593549  1
  O  O228  1  0.23799160  0.36125908  -0.01084870  1
  O  O229  1  0.26194231  0.38579520  0.51658321  1
  O  O230  1  0.25948679  0.85938615  -0.00222900  1
  O  O231  1  0.25408975  0.85544789  0.46761252  1
  O  O232  1  0.73455208  0.38359963  -0.00356381  1
  O  O233  1  0.74657134  0.36446909  0.49853411  1
  O  O234  1  0.75388341  0.86963089  -0.00463769  1
  O  O235  1  0.74056145  0.86526570  0.50763722  1
  O  O236  1  0.04536413  0.42160968  0.27772884  1
  O  O237  1  0.12228859  0.49299080  0.74373817  1
  O  O238  1  0.13881891  1.01146554  0.25659675  1
  O  O239  1  0.13696474  0.98641647  0.75348646  1
  O  O240  1  0.62766477  0.48855574  0.24437448  1
  O  O241  1  0.64646561  0.47256437  0.78997207  1
  O  O242  1  0.61903039  0.99578855  0.24182073  1
  O  O243  1  0.61366391  1.00330029  0.73680620  1
  O  O244  1  0.36613672  0.00762655  0.25372061  1
  O  O245  1  0.36194430  -0.00887655  0.76977040  1
  O  O246  1  0.38315854  0.51051732  0.26024607  1
  O  O247  1  0.37217290  0.51140290  0.75887849  1
  O  O248  1  0.91898366  -0.01767650  0.26143212  1
  O  O249  1  0.89163319  -0.01127356  0.75645717  1
  O  O250  1  0.86631741  0.47993528  0.24678637  1
  O  O251  1  0.88796435  0.51643847  0.74718739  1
  O  O252  1  0.13332792  0.36044618  0.39139516  1
  O  O253  1  0.11303586  0.39160380  0.86184760  1
  O  O254  1  0.10894911  0.86835807  0.38742560  1
  O  O255  1  0.11549284  0.87909788  0.87676073  1
  O  O256  1  0.61712824  0.36616047  0.36385720  1
  O  O257  1  0.60738861  0.34483549  0.88027790  1
  O  O258  1  0.61719695  0.88371727  0.35399983  1
  O  O259  1  0.60974942  0.86398332  0.86539259  1
  O  O260  1  0.38174118  0.13587595  0.12914506  1
  O  O261  1  0.38392266  0.13743493  0.61741112  1
  O  O262  1  0.37228522  0.62977389  0.14099137  1
  O  O263  1  0.38170132  0.62843599  0.63521935  1
  O  O264  1  0.87469607  0.13416092  0.14134939  1
  O  O265  1  0.89541258  0.15908664  0.62836051  1
  O  O266  1  0.87077672  0.60879492  0.14564258  1
  O  O267  1  0.86588335  0.62466753  0.63525975  1
  O  O268  1  0.24581417  0.26889279  0.11963669  1
  O  O269  1  0.26547778  0.25682190  0.62824223  1
  O  O270  1  0.25679236  0.73761488  0.11309926  1
  O  O271  1  0.26756642  0.75076529  0.62435326  1
  O  O272  1  0.73930321  0.26411413  0.11156997  1
  O  O273  1  0.73715616  0.24416919  0.60279122  1
  O  O274  1  0.74511498  0.76515354  0.10210677  1
  O  O275  1  0.73755564  0.76433254  0.61778882  1
  O  O276  1  0.23165261  0.23492152  0.36007196  1
  O  O277  1  0.25800510  0.23691400  0.88761857  1
  O  O278  1  0.24879041  0.79174021  0.41422066  1
  O  O279  1  0.26350450  0.74096702  0.88466035  1
  O  O280  1  0.73318345  0.25165748  0.38077004  1
  O  O281  1  0.74841332  0.25394492  0.88287800  1
  O  O282  1  0.74110997  0.74111814  0.38177412  1
  O  O283  1  0.75522294  0.74445908  0.88471962  1
  O  O284  1  0.01442872  0.11546652  -0.01140572  1
  O  O285  1  0.00288948  0.12419902  0.51571230  1
  O  O286  1  0.00935249  0.65819629  0.02245537  1
  O  O287  1  -0.01060246  0.62853351  0.50690212  1
  O  O288  1  0.48987482  0.11899022  0.01353172  1
  O  O289  1  0.50390762  0.11328676  0.49963426  1
  O  O290  1  0.50151217  0.61449782  -0.00158032  1
  O  O291  1  0.50313389  0.61164087  0.50739682  1
  O  O292  1  0.49122264  0.38350645  0.49009268  1
  O  O293  1  0.49781489  0.39034513  0.98318955  1
  O  O294  1  0.50420816  0.88305578  0.48481878  1
  O  O295  1  0.48225366  0.87544021  1.00609066  1
  O  O296  1  0.99554233  0.37420290  0.49644600  1
  O  O297  1  1.01502753  0.37498224  0.99249840  1
  O  O298  1  0.99998361  0.90773251  0.55408418  1
  O  O299  1  0.99230999  0.88249533  0.98996857  1
  O  O300  1  0.49445928  0.49046296  0.38173497  1
  O  O301  1  0.48726332  0.49966287  0.88275943  1
  O  O302  1  0.49195747  0.99562756  0.37733255  1
  O  O303  1  0.48142825  1.01244357  0.87255766  1
  O  O304  1  1.00194056  0.50565901  0.40113719  1
  O  O305  1  0.99266458  0.49794680  0.88496944  1
  O  O306  1  0.99424487  0.99005988  0.41012680  1
  O  O307  1  0.99862024  0.98951981  0.88091758  1
  O  O308  1  -0.00044922  -0.00417197  0.10361304  1
  O  O309  1  0.00172028  0.03387086  0.64011429  1
  O  O310  1  0.01655527  0.49337262  0.12355116  1
  O  O311  1  0.00570613  0.49574993  0.60545899  1
  O  O312  1  0.49188967  0.00116710  0.12188838  1
  O  O313  1  0.49690433  0.01025187  0.61472620  1
  O  O314  1  0.50235079  0.49324968  0.10667803  1
  O  O315  1  0.49545317  0.50824669  0.60815293  1
  O  O316  1  0.24369038  0.38571871  0.24651725  1
  O  O317  1  0.24069227  0.37513041  0.74268119  1
  O  O318  1  0.25487567  0.89187397  0.25094771  1
  O  O319  1  0.24243647  0.88241826  0.76120314  1
  O  O320  1  0.73386642  0.38394673  0.25767539  1
  O  O321  1  0.76926763  0.34816969  0.73000489  1
  O  O322  1  0.73472493  0.87404890  0.23244066  1
  O  O323  1  0.75313954  0.86529445  0.73812856  1
  O  O324  1  0.26863303  0.11379603  0.23945821  1
  O  O325  1  0.23762958  0.11786953  0.76291016  1
  O  O326  1  0.26276494  0.61923139  0.25585372  1
  O  O327  1  0.26480880  0.63316812  0.76272266  1
  O  O328  1  0.73206636  0.11244086  0.24347878  1
  O  O329  1  0.77014944  0.10867292  0.69714323  1
  O  O330  1  0.75988297  0.61206943  0.25086997  1
  O  O331  1  0.77347220  0.64117810  0.76427235  1
  O  O332  1  0.38518220  0.11911831  0.35799645  1
  O  O333  1  0.35485571  0.11025071  0.88771944  1
  O  O334  1  0.38119302  0.61341720  0.36732063  1
  O  O335  1  0.37607542  0.61786741  0.86332232  1
  O  O336  1  0.89262170  0.11473539  0.35300403  1
  O  O337  1  0.88841563  0.11081826  0.86606950  1
  O  O338  1  0.85918370  0.63482017  0.35371101  1
  O  O339  1  0.88249993  0.61371279  0.87327499  1
  O  O340  1  0.13509921  0.38976562  0.12586029  1
  O  O341  1  0.14549876  0.37748841  0.63002031  1
  O  O342  1  0.10150890  0.87096377  0.14627017  1
  O  O343  1  0.13952105  0.87079051  0.63787462  1
  O  O344  1  0.62934219  0.36836848  0.13348773  1
  O  O345  1  0.59556195  0.37408974  0.64148011  1
  O  O346  1  0.62969464  0.87759373  0.12936570  1
  O  O347  1  0.59879466  0.88760685  0.63016130  1
  O  O348  1  0.13514447  0.24531002  0.27164312  1
  O  O349  1  0.11924561  0.27274934  0.75652318  1
  O  O350  1  0.15398640  0.75337543  0.28114955  1
  O  O351  1  0.11934904  0.76001961  0.75088489  1
  O  O352  1  0.62699484  0.25836042  0.25728102  1
  O  O353  1  0.62741325  0.22740935  0.77404217  1
  O  O354  1  0.61315637  0.74959166  0.23815774  1
  O  O355  1  0.61614966  0.75863120  0.78253649  1
  O  O356  1  0.36597983  0.24115395  0.23834176  1
  O  O357  1  0.37493800  0.25116184  0.73956022  1
  O  O358  1  0.37241511  0.73831313  0.24738294  1
  O  O359  1  0.38149206  0.73616005  0.73288357  1
  O  O360  1  0.85976324  0.25523989  0.23068279  1
  O  O361  1  0.90160092  0.26241252  0.75974195  1
  O  O362  1  0.86489091  0.75134215  0.23822605  1
  O  O363  1  0.89541525  0.74407709  0.75500322  1
  O  O364  1  0.38482017  0.49282417  0.48547673  1
  O  O365  1  0.38108951  0.50756629  0.99154460  1
  O  O366  1  0.38140585  0.99393240  0.49185620  1
  O  O367  1  0.36329976  0.98940812  0.99690140  1
  O  O368  1  0.88645065  0.49332894  0.50407300  1
  O  O369  1  0.87602497  0.51272074  1.00933355  1
  O  O370  1  0.88405467  1.01783686  0.52725202  1
  O  O371  1  0.88758781  0.99980940  0.98995506  1
  O  O372  1  0.11841252  0.00668761  0.00368148  1
  O  O373  1  0.11582610  0.01890130  0.50596617  1
  O  O374  1  0.12621324  0.51307599  0.00354141  1
  O  O375  1  0.12063601  0.52895748  0.49796459  1
  O  O376  1  0.62240269  0.01179659  -0.01274671  1
  O  O377  1  0.61257892  0.00518285  0.49957281  1
  O  O378  1  0.61562283  0.50035791  -0.01664976  1
  O  O379  1  0.61232366  0.49198409  0.49036572  1
  O  O380  1  0.35819656  0.36812570  0.13455523  1
  O  O381  1  0.37529397  0.36257129  0.61949243  1
  O  O382  1  0.36782532  0.86491114  0.11823734  1
  O  O383  1  0.38757588  0.86057104  0.62346363  1
  O  O384  1  0.85802715  0.35844622  0.10783946  1
  O  O385  1  0.87744048  0.36579428  0.60162022  1
  O  O386  1  0.86123190  0.87779864  0.10431793  1
  O  O387  1  0.86173779  0.87652309  0.62505640  1
  O  O388  1  0.11473255  0.13315547  0.39488955  1
  O  O389  1  0.13765609  0.11989998  0.88807428  1
  O  O390  1  0.12875197  0.64520056  0.39048143  1
  O  O391  1  0.14300771  0.62328932  0.86635045  1
  O  O392  1  0.61336402  0.13842428  0.37692211  1
  O  O393  1  0.62975277  0.12850709  0.88772614  1
  O  O394  1  0.63804756  0.62204890  0.36203503  1
  O  O395  1  0.64875404  0.62016037  0.86038825  1
