# generated using pymatgen
data_V35Zn35O128
_symmetry_space_group_name_H-M   'P 1'
_cell_length_a   16.87072999
_cell_length_b   16.83437211
_cell_length_c   16.90543957
_cell_angle_alpha   89.72384315
_cell_angle_beta   90.05901325
_cell_angle_gamma   89.80094538
_symmetry_Int_Tables_number   1
_chemical_formula_structural   V35Zn35O128
_chemical_formula_sum   'V70 Zn70 O256'
_cell_volume   4801.19518219
_cell_formula_units_Z   2
loop_
 _symmetry_equiv_pos_site_id
 _symmetry_equiv_pos_as_xyz
  1  'x, y, z'
loop_
 _atom_site_type_symbol
 _atom_site_label
 _atom_site_symmetry_multiplicity
 _atom_site_fract_x
 _atom_site_fract_y
 _atom_site_fract_z
 _atom_site_occupancy
  V  V0  1  0.62212181  -0.00084612  0.14377691  1
  V  V1  1  0.50073708  0.87102671  0.89077504  1
  V  V2  1  0.87742230  0.37800552  0.49103264  1
  V  V3  1  0.00349826  0.01421338  0.00152657  1
  V  V4  1  0.11648816  0.74235227  0.87496934  1
  V  V5  1  0.36756884  0.61169859  0.25846445  1
  V  V6  1  0.74361874  0.74105676  -0.00911317  1
  V  V7  1  0.49391989  0.39316432  0.37002344  1
  V  V8  1  -0.00317926  0.74349687  0.25884336  1
  V  V9  1  0.62728624  0.24957924  0.87150013  1
  V  V10  1  0.74421877  -0.00662391  0.73952394  1
  V  V11  1  0.11993396  0.48681862  0.62534907  1
  V  V12  1  0.75014439  0.38492041  0.12143081  1
  V  V13  1  0.25162347  0.11789536  0.85645655  1
  V  V14  1  0.00091264  0.13082799  0.14696716  1
  V  V15  1  0.12070442  0.37028563  0.76829914  1
  V  V16  1  0.25336358  0.62175197  0.88642089  1
  V  V17  1  0.62365317  0.11406092  -0.00971263  1
  V  V18  1  0.75393820  0.24525900  0.00031588  1
  V  V19  1  0.87962551  0.12305301  0.74527889  1
  V  V20  1  0.86705240  0.88392987  -0.00023042  1
  V  V21  1  0.88541026  0.88270885  0.49664881  1
  V  V22  1  0.87425745  0.62985324  0.75816007  1
  V  V23  1  0.00088015  0.87967453  0.87158925  1
  V  V24  1  0.00274685  0.24872672  0.75194253  1
  V  V25  1  0.38115319  0.84999375  0.48426179  1
  V  V26  1  0.80912060  0.06347608  0.31708355  1
  V  V27  1  0.49300997  0.23353249  0.74501647  1
  V  V28  1  0.25692006  0.85914944  0.62121846  1
  V  V29  1  0.51595944  0.75923041  0.25823091  1
  V  V30  1  0.62814825  0.39027182  0.24319115  1
  V  V31  1  0.49751899  0.12187609  0.11981779  1
  V  V32  1  0.74994916  0.74633316  0.48675278  1
  V  V33  1  0.51431138  0.62403451  0.12373231  1
  V  V34  1  0.37580387  0.24963130  0.13003368  1
  V  V35  1  0.88156295  0.25080915  0.61722794  1
  V  V36  1  0.12563272  -0.00513969  0.13150846  1
  V  V37  1  0.27790813  0.24451328  0.50456890  1
  V  V38  1  0.74415537  0.37707215  0.62475941  1
  V  V39  1  0.18142263  0.68780960  0.42934308  1
  V  V40  1  0.00040506  0.49638758  0.48990998  1
  V  V41  1  0.27179124  0.12168125  0.37056317  1
  V  V42  1  0.62855412  0.24622953  0.38843993  1
  V  V43  1  0.12088216  0.00776080  0.61792620  1
  V  V44  1  0.37034872  0.38268018  0.00428739  1
  V  V45  1  0.50380366  0.24399460  0.24832877  1
  V  V46  1  0.87686136  0.75058093  0.13292880  1
  V  V47  1  0.24233939  0.75727703  0.01050589  1
  V  V48  1  0.26043692  -0.00473722  0.25417830  1
  V  V49  1  0.86820598  0.00727280  0.87265273  1
  V  V50  1  0.38033909  0.39679955  0.49987033  1
  V  V51  1  0.74694014  0.88566039  0.14110421  1
  V  V52  1  0.00590399  0.62794130  0.62677865  1
  V  V53  1  0.87219546  0.75026352  0.62186465  1
  V  V54  1  0.88168326  0.46806850  0.87480349  1
  V  V55  1  0.11379228  0.12759327  0.49699505  1
  V  V56  1  0.00772464  0.89357467  0.37572405  1
  V  V57  1  0.37035006  0.75018547  0.12673477  1
  V  V58  1  0.76149280  0.60505324  0.36084442  1
  V  V59  1  0.87157167  0.24110219  0.14893136  1
  V  V60  1  0.51707877  0.50712319  0.00095630  1
  V  V61  1  0.50018932  0.37526529  0.87488183  1
  V  V62  1  0.00339642  0.51470726  -0.00113381  1
  V  V63  1  0.11855088  0.26171689  0.36741218  1
  V  V64  1  0.74561061  0.49721064  0.74937281  1
  V  V65  1  0.13128742  0.88367522  0.75008419  1
  V  V66  1  0.23887410  0.38550851  0.14326160  1
  V  V67  1  0.23980361  0.24256635  0.00648930  1
  V  V68  1  0.24846243  0.50051747  0.75178195  1
  V  V69  1  0.62581373  0.60064225  0.50219510  1
  Zn  Zn70  1  0.38248565  0.00935128  -0.10578726  1
  Zn  Zn71  1  0.11492408  0.23879681  0.89363497  1
  Zn  Zn72  1  0.37482753  0.50304298  0.87530450  1
  Zn  Zn73  1  0.61336893  0.85803197  0.73254477  1
  Zn  Zn74  1  0.13323392  0.86337345  0.25694209  1
  Zn  Zn75  1  0.37278349  0.88334920  0.00788006  1
  Zn  Zn76  1  0.18704330  0.18632378  0.19010569  1
  Zn  Zn77  1  0.19357489  0.19290158  0.68077428  1
  Zn  Zn78  1  0.15965340  0.65314594  0.26023738  1
  Zn  Zn79  1  0.18217965  0.68552420  0.69808705  1
  Zn  Zn80  1  0.68536823  0.18713349  0.19015930  1
  Zn  Zn81  1  0.69617932  0.19055049  0.69204324  1
  Zn  Zn82  1  0.69695694  0.69007143  0.18300056  1
  Zn  Zn83  1  0.68607345  0.68214781  0.68028342  1
  Zn  Zn84  1  0.31353153  0.31219056  0.31864677  1
  Zn  Zn85  1  0.30680187  0.30770270  0.82344085  1
  Zn  Zn86  1  0.31817666  0.80575130  0.31254121  1
  Zn  Zn87  1  0.30707590  0.82081893  0.82737357  1
  Zn  Zn88  1  0.82346554  0.41998088  0.29967252  1
  Zn  Zn89  1  0.80921595  0.30677710  0.80608035  1
  Zn  Zn90  1  0.81602609  0.82004734  0.31984489  1
  Zn  Zn91  1  0.80822548  0.81719388  0.80802695  1
  Zn  Zn92  1  0.19495925  0.43933149  0.43942717  1
  Zn  Zn93  1  0.18071588  0.43602721  0.95075392  1
  Zn  Zn94  1  0.19428480  0.93217408  0.44052960  1
  Zn  Zn95  1  0.18759738  0.94566163  0.94034767  1
  Zn  Zn96  1  0.68833237  0.43143726  0.43472547  1
  Zn  Zn97  1  0.69393088  0.43408769  0.93376361  1
  Zn  Zn98  1  0.72103260  0.95597444  0.47330942  1
  Zn  Zn99  1  0.67952673  0.93064163  0.92028533  1
  Zn  Zn100  1  0.31102933  0.06098014  0.06925612  1
  Zn  Zn101  1  0.30132331  0.03285327  0.54538428  1
  Zn  Zn102  1  0.30948226  0.56690049  0.07256577  1
  Zn  Zn103  1  0.30607118  0.56448774  0.56562336  1
  Zn  Zn104  1  0.81021386  0.06591412  0.06639234  1
  Zn  Zn105  1  0.81653690  0.06593294  0.56612393  1
  Zn  Zn106  1  0.83424363  0.56548255  0.06127089  1
  Zn  Zn107  1  0.81441250  0.56331945  0.56285334  1
  Zn  Zn108  1  0.43925078  0.43815043  0.18298993  1
  Zn  Zn109  1  0.40234316  0.38329954  0.70734622  1
  Zn  Zn110  1  0.44042911  0.93549868  0.18759917  1
  Zn  Zn111  1  0.45794081  0.92588987  0.61087420  1
  Zn  Zn112  1  0.93947310  0.43429624  0.14043473  1
  Zn  Zn113  1  0.93538306  0.43516877  0.68959538  1
  Zn  Zn114  1  0.93626671  0.94139252  0.19530499  1
  Zn  Zn115  1  0.94151536  0.93724996  0.68436543  1
  Zn  Zn116  1  0.07138915  0.06678165  0.31714689  1
  Zn  Zn117  1  0.06461385  0.06638424  0.81148168  1
  Zn  Zn118  1  -0.05771184  0.55153759  0.29975834  1
  Zn  Zn119  1  0.05380676  0.55977996  0.81634680  1
  Zn  Zn120  1  0.64330465  0.06317580  0.33786295  1
  Zn  Zn121  1  0.53341234  0.02303425  0.75968541  1
  Zn  Zn122  1  0.57164706  0.57834110  0.31224719  1
  Zn  Zn123  1  0.53734267  0.51580819  0.77744892  1
  Zn  Zn124  1  0.46500952  0.17296710  0.42267321  1
  Zn  Zn125  1  0.43332593  0.19030777  0.93882583  1
  Zn  Zn126  1  0.44381482  0.68192591  0.43712391  1
  Zn  Zn127  1  0.43744251  0.69240681  0.93798990  1
  Zn  Zn128  1  0.93312285  0.19209507  0.42216688  1
  Zn  Zn129  1  0.93585852  0.18930980  0.93346825  1
  Zn  Zn130  1  0.94053524  0.68134509  0.43625839  1
  Zn  Zn131  1  0.92874138  0.69691379  0.94356218  1
  Zn  Zn132  1  0.05747317  0.32066696  0.07246063  1
  Zn  Zn133  1  0.06584462  0.30896983  0.55776956  1
  Zn  Zn134  1  0.05902504  0.81561551  0.06224953  1
  Zn  Zn135  1  0.06564860  0.80856291  0.56008244  1
  Zn  Zn136  1  0.56678864  0.31381503  0.05883682  1
  Zn  Zn137  1  0.55462748  0.32490967  0.56386966  1
  Zn  Zn138  1  0.56671502  0.80994346  0.06691668  1
  Zn  Zn139  1  0.55199244  0.75626191  0.57071113  1
  O  O140  1  0.10712430  0.12040862  0.13178434  1
  O  O141  1  0.13355145  0.11525006  0.61478129  1
  O  O142  1  0.12418359  0.60850190  0.14796015  1
  O  O143  1  0.11022577  0.61295269  0.63927074  1
  O  O144  1  0.61979360  0.11253166  0.11692205  1
  O  O145  1  0.63159389  0.14228805  0.60315815  1
  O  O146  1  0.61315193  0.62860835  0.12343534  1
  O  O147  1  0.65163754  0.60813693  0.59984170  1
  O  O148  1  0.38868730  0.38141245  0.37466935  1
  O  O149  1  0.38205957  0.37442572  0.88941474  1
  O  O150  1  0.38358918  0.86791750  0.38538777  1
  O  O151  1  0.38004946  0.88048831  0.88559374  1
  O  O152  1  0.86944183  0.36667807  0.39352826  1
  O  O153  1  0.88031537  0.36803650  0.87260250  1
  O  O154  1  0.88801267  0.87851947  0.38919635  1
  O  O155  1  0.88315118  0.88482275  0.87993731  1
  O  O156  1  0.24855165  0.01034030  0.36698724  1
  O  O157  1  0.25354701  0.01348666  0.87510851  1
  O  O158  1  0.24218597  0.54199680  0.41468194  1
  O  O159  1  0.24176633  0.51021635  0.87511470  1
  O  O160  1  0.74076547  0.00056800  0.36976403  1
  O  O161  1  0.76465800  -0.00490851  0.86530354  1
  O  O162  1  0.75817420  0.49775768  0.36564745  1
  O  O163  1  0.76406076  0.48410068  0.85801812  1
  O  O164  1  0.24898078  0.48457023  0.12066961  1
  O  O165  1  0.23232800  0.50969650  0.64191793  1
  O  O166  1  0.23244315  1.01116478  0.13945668  1
  O  O167  1  0.22855169  0.97514801  0.62049287  1
  O  O168  1  0.76299226  0.48241517  0.11208815  1
  O  O169  1  0.76724443  0.48699290  0.63803557  1
  O  O170  1  0.73678762  0.99584830  0.12485214  1
  O  O171  1  0.76435982  0.99144254  0.64083613  1
  O  O172  1  0.11141866  0.51717097  0.24242054  1
  O  O173  1  0.01257993  0.36720695  0.75012466  1
  O  O174  1  0.00040200  0.87506089  0.26630663  1
  O  O175  1  0.00808939  0.88018508  0.76558442  1
  O  O176  1  0.51091549  0.37166370  0.24957348  1
  O  O177  1  0.50026402  0.40000191  0.77049336  1
  O  O178  1  0.49957162  0.85922144  0.24574141  1
  O  O179  1  0.53662077  0.93405863  0.68752491  1
  O  O180  1  0.50455030  0.14196601  0.23493679  1
  O  O181  1  0.49455246  0.13417550  0.74753325  1
  O  O182  1  0.49844480  0.63056938  0.23407699  1
  O  O183  1  0.48894930  0.59728285  0.70788810  1
  O  O184  1  0.99739127  0.12434537  0.24536056  1
  O  O185  1  0.99232562  0.13159286  0.74507733  1
  O  O186  1  0.98868216  0.64418858  0.25092272  1
  O  O187  1  0.98562580  0.61832371  0.73911637  1
  O  O188  1  0.36751884  0.26092975  0.01100858  1
  O  O189  1  0.37784692  0.23845193  0.49096559  1
  O  O190  1  0.36130312  0.74754736  0.01010206  1
  O  O191  1  0.36435735  0.74766331  0.49138870  1
  O  O192  1  0.85478254  0.24196134  -0.00645215  1
  O  O193  1  0.88622328  0.26095207  0.51145730  1
  O  O194  1  0.86915943  0.76672364  0.01374420  1
  O  O195  1  0.87725843  0.75013534  0.50875778  1
  O  O196  1  0.13987349  0.23867522  0.49809480  1
  O  O197  1  0.13578234  0.25925457  1.00845200  1
  O  O198  1  0.13053813  0.73856175  0.49981302  1
  O  O199  1  0.13335407  0.75726029  0.99251601  1
  O  O200  1  0.61365600  0.26710705  0.48588628  1
  O  O201  1  0.63122959  0.24054604  0.99440656  1
  O  O202  1  0.65199321  0.75516734  0.49901079  1
  O  O203  1  0.64385421  0.75504356  1.00360803  1
  O  O204  1  0.49645925  0.24818244  0.12924139  1
  O  O205  1  0.51405532  0.26401001  0.65131714  1
  O  O206  1  0.49140189  0.73727724  0.12041831  1
  O  O207  1  0.43029643  0.75675253  0.71910917  1
  O  O208  1  0.98449985  0.23979889  0.12642373  1
  O  O209  1  0.99038389  0.25697628  0.63547551  1
  O  O210  1  0.98199600  0.76305630  0.12991306  1
  O  O211  1  0.99574986  0.73261427  0.62048982  1
  O  O212  1  0.01816103  0.25258714  0.38041618  1
  O  O213  1  0.00388961  0.24297045  0.85943352  1
  O  O214  1  -0.01056456  0.75717331  0.36231154  1
  O  O215  1  0.01155915  0.76540074  0.88938978  1
  O  O216  1  0.49829352  0.26497653  0.35515739  1
  O  O217  1  0.50587853  0.25686638  0.86691527  1
  O  O218  1  0.50790538  0.74103770  0.35622666  1
  O  O219  1  0.48644955  0.76975776  0.87094666  1
  O  O220  1  0.25594528  0.12622473  0.48771882  1
  O  O221  1  0.24681505  0.14242580  1.01466311  1
  O  O222  1  0.23435833  0.59814272  0.47842777  1
  O  O223  1  0.24563656  0.63275858  0.99139940  1
  O  O224  1  0.70843090  0.06956783  0.51282171  1
  O  O225  1  0.73509572  0.13444374  1.00368225  1
  O  O226  1  0.75223864  0.62753811  0.48688789  1
  O  O227  1  0.76176010  0.64274001  1.00758362  1
  O  O228  1  0.25610444  0.36604082  0.00796845  1
  O  O229  1  0.27535650  0.35882336  0.48546369  1
  O  O230  1  0.24976335  0.86014549  -0.00458310  1
  O  O231  1  0.26349366  0.86732699  0.51126939  1
  O  O232  1  0.73700452  0.35713034  0.01388568  1
  O  O233  1  0.76721707  0.38599842  0.51320201  1
  O  O234  1  0.75977945  0.87995459  -0.00152643  1
  O  O235  1  0.77378552  0.85759473  0.49577349  1
  O  O236  1  0.10082723  0.53615883  0.16872647  1
  O  O237  1  0.12479304  0.48638906  0.75004292  1
  O  O238  1  0.12942919  0.99916975  0.24215950  1
  O  O239  1  0.12288587  0.99041261  0.74045830  1
  O  O240  1  0.62213436  0.48871121  0.24682259  1
  O  O241  1  0.64690462  0.50703687  0.75148308  1
  O  O242  1  0.61980517  0.99945075  0.24134830  1
  O  O243  1  0.65084687  1.02762766  0.75089909  1
  O  O244  1  0.35857021  -0.00082068  0.23646482  1
  O  O245  1  0.38765020  0.03763093  0.68809748  1
  O  O246  1  0.38102533  0.51235657  0.24195335  1
  O  O247  1  0.35124206  0.48432103  0.75488018  1
  O  O248  1  0.86784834  0.00903280  0.25619877  1
  O  O249  1  0.87475970  0.00304926  0.75458860  1
  O  O250  1  0.91256035  0.45970906  0.24543426  1
  O  O251  1  0.87485450  0.50659065  0.76345806  1
  O  O252  1  0.13850698  0.36050053  0.38345645  1
  O  O253  1  0.12335532  0.36594117  0.87022988  1
  O  O254  1  0.11270967  0.87848143  0.37900028  1
  O  O255  1  0.12010478  0.87626496  0.86842287  1
  O  O256  1  0.61719402  0.36804397  0.35973329  1
  O  O257  1  0.61263963  0.36014942  0.88637702  1
  O  O258  1  0.60087135  0.91958225  0.45287037  1
  O  O259  1  0.60310812  0.87527415  0.85502496  1
  O  O260  1  0.38580281  0.13872369  0.11994305  1
  O  O261  1  0.36533793  0.09352536  0.64361224  1
  O  O262  1  0.38392283  0.63429759  0.13004942  1
  O  O263  1  0.38694233  0.62228408  0.62647620  1
  O  O264  1  0.88434788  0.13203361  0.12519586  1
  O  O265  1  0.87469324  0.14276155  0.62425453  1
  O  O266  1  0.85860051  0.65363897  0.13587228  1
  O  O267  1  0.88621671  0.63111990  0.63108212  1
  O  O268  1  0.25763586  0.25684222  0.12240645  1
  O  O269  1  0.26254648  0.24186900  0.60394438  1
  O  O270  1  0.25835324  0.74532466  0.11435725  1
  O  O271  1  0.23841773  0.75857333  0.63353709  1
  O  O272  1  0.75710067  0.24233349  0.11644890  1
  O  O273  1  0.76727373  0.26489665  0.63328086  1
  O  O274  1  0.75651824  0.77244644  0.11740459  1
  O  O275  1  0.76978387  0.73950504  0.60888895  1
  O  O276  1  0.25101926  0.23431921  0.38193135  1
  O  O277  1  0.24712603  0.23971696  0.89414137  1
  O  O278  1  0.23828200  0.74649495  0.36879570  1
  O  O279  1  0.23851566  0.73957232  0.88435270  1
  O  O280  1  0.72400097  0.23940561  0.37694907  1
  O  O281  1  0.73544955  0.25743773  0.88445959  1
  O  O282  1  0.76462523  0.73822983  0.38308192  1
  O  O283  1  0.76093868  0.75638302  0.89136114  1
  O  O284  1  -0.00330509  0.11708374  0.00231438  1
  O  O285  1  0.01596098  0.13335422  0.49741835  1
  O  O286  1  -0.00196991  0.61520891  -0.02634442  1
  O  O287  1  -0.00508632  0.60751907  0.51689888  1
  O  O288  1  0.51255257  0.13423385  0.01019943  1
  O  O289  1  0.48466315  0.11692352  0.53237288  1
  O  O290  1  0.49630221  0.61488056  0.00568878  1
  O  O291  1  0.53055311  0.65013463  0.50776163  1
  O  O292  1  0.49152189  0.37822795  0.47955356  1
  O  O293  1  0.49397655  0.38640049  0.99748955  1
  O  O294  1  0.48049316  0.83880563  0.53048281  1
  O  O295  1  0.50442055  0.87556278  0.99338728  1
  O  O296  1  0.99180726  0.38490563  0.50525453  1
  O  O297  1  0.98788315  0.40249210  1.04034780  1
  O  O298  1  0.99481699  0.86846561  0.48920690  1
  O  O299  1  0.98772120  0.88976687  0.99526499  1
  O  O300  1  0.50704603  0.49085863  0.36202692  1
  O  O301  1  0.49418833  0.49689957  0.88894990  1
  O  O302  1  0.56589087  0.96053736  0.40032543  1
  O  O303  1  0.48601693  0.97720780  0.85311166  1
  O  O304  1  1.00731399  0.50619289  0.39304034  1
  O  O305  1  0.98853562  0.48982034  0.88116890  1
  O  O306  1  1.00289249  0.99337008  0.37643048  1
  O  O307  1  0.99583582  0.99742670  0.88324196  1
  O  O308  1  0.00367220  0.01298497  0.12326685  1
  O  O309  1  0.02062115  -0.00739128  0.62188921  1
  O  O310  1  -0.04621866  0.53903800  0.09245452  1
  O  O311  1  0.00938086  0.50372571  0.62722934  1
  O  O312  1  0.51166199  0.00835335  0.12856399  1
  O  O313  1  0.51185121  0.04724384  0.52884882  1
  O  O314  1  0.50108543  0.51004145  0.11036036  1
  O  O315  1  0.44351560  0.56826516  0.64815144  1
  O  O316  1  0.26079150  0.37625525  0.24133849  1
  O  O317  1  0.23403910  0.38506298  0.76216103  1
  O  O318  1  0.24787138  0.89006701  0.26142376  1
  O  O319  1  0.23456384  0.87247407  0.75153262  1
  O  O320  1  0.73734547  0.37419506  0.23634746  1
  O  O321  1  0.75543814  0.38367156  0.73751094  1
  O  O322  1  0.75003316  0.87561352  0.23891352  1
  O  O323  1  0.73375907  0.88646018  0.75368478  1
  O  O324  1  0.24820578  0.11586832  0.26437413  1
  O  O325  1  0.25536111  0.13396770  0.75778073  1
  O  O326  1  0.26793537  0.62571175  0.24601223  1
  O  O327  1  0.23972454  0.60918188  0.76673666  1
  O  O328  1  0.73707702  0.11774088  0.26374047  1
  O  O329  1  0.77263698  0.11902500  0.74304782  1
  O  O330  1  0.74826539  0.62512913  0.26295492  1
  O  O331  1  0.76598590  0.61085298  0.73866859  1
  O  O332  1  0.37146793  0.12132125  0.37318516  1
  O  O333  1  0.35796837  0.12692142  0.88320252  1
  O  O334  1  0.38770399  0.62354299  0.35677714  1
  O  O335  1  0.35699131  0.62408229  0.87856619  1
  O  O336  1  0.86056782  0.11701891  0.38666031  1
  O  O337  1  0.88121830  0.11498268  0.86200481  1
  O  O338  1  0.86904121  0.61312073  0.37279068  1
  O  O339  1  0.87697144  0.63829188  0.85677178  1
  O  O340  1  0.14003267  0.36696483  0.13734756  1
  O  O341  1  0.12367720  0.38396386  0.63628581  1
  O  O342  1  0.11528699  0.89159159  0.13274265  1
  O  O343  1  0.12327899  0.87224079  0.64087248  1
  O  O344  1  0.63491656  0.37112103  0.13389842  1
  O  O345  1  0.64524313  0.37587588  0.61749321  1
  O  O346  1  0.63536578  0.89090626  0.12004918  1
  O  O347  1  0.60488904  0.76142448  0.67301925  1
  O  O348  1  0.13157738  0.24703693  0.26837990  1
  O  O349  1  0.12163001  0.26149579  0.74408165  1
  O  O350  1  0.10166472  0.75358624  0.23864954  1
  O  O351  1  0.12264223  0.76207576  0.77027460  1
  O  O352  1  0.61326365  0.25819189  0.25039563  1
  O  O353  1  0.61911588  0.24117887  0.76682686  1
  O  O354  1  0.61479776  0.74924551  0.23705773  1
  O  O355  1  0.63013328  0.68172561  0.82161172  1
  O  O356  1  0.39000636  0.25986225  0.23861951  1
  O  O357  1  0.39250048  0.27226326  0.75301370  1
  O  O358  1  0.38422927  0.74168151  0.23706708  1
  O  O359  1  0.36980739  0.73339053  0.75406807  1
  O  O360  1  0.86775001  0.24086629  0.24404780  1
  O  O361  1  0.88414937  0.24318940  0.74236975  1
  O  O362  1  0.88196291  0.77083105  0.23835252  1
  O  O363  1  0.86636181  0.74124216  0.73507041  1
  O  O364  1  0.37086504  0.49593145  0.49804184  1
  O  O365  1  0.37623307  0.49116300  1.00108792  1
  O  O366  1  0.38673455  0.96167965  0.52344061  1
  O  O367  1  0.37580466  0.99661466  1.00947237  1
  O  O368  1  0.88926944  0.48880675  0.50586234  1
  O  O369  1  0.86833524  0.49848628  0.97097817  1
  O  O370  1  0.87363434  0.98144965  0.51170514  1
  O  O371  1  0.87914347  1.00140102  0.99235651  1
  O  O372  1  0.11550000  -0.00332906  0.01753317  1
  O  O373  1  0.13117879  0.01401189  0.50619602  1
  O  O374  1  0.10492844  0.50204235  0.00034694  1
  O  O375  1  0.11442805  0.48774070  0.51873345  1
  O  O376  1  0.62997815  0.01256581  -0.00792261  1
  O  O377  1  0.64737897  0.07087659  0.57770784  1
  O  O378  1  0.61562799  0.49900223  -0.00780783  1
  O  O379  1  0.61611739  0.50025473  0.49354211  1
  O  O380  1  0.37069041  0.36791510  0.11845085  1
  O  O381  1  0.39032384  0.37742187  0.59836818  1
  O  O382  1  0.38211425  0.85423022  0.12408944  1
  O  O383  1  0.35283134  0.86708344  0.64640788  1
  O  O384  1  0.85440481  0.35107310  0.12788123  1
  O  O385  1  0.87345964  0.36531026  0.61990744  1
  O  O386  1  0.86038675  0.88612449  0.11813764  1
  O  O387  1  0.89212180  0.85627741  0.61620374  1
  O  O388  1  0.13423295  0.13259006  0.38847768  1
  O  O389  1  0.14223514  0.12656282  0.87160053  1
  O  O390  1  0.11629385  0.64119725  0.36903512  1
  O  O391  1  0.12532821  0.63885599  0.87043889  1
  O  O392  1  0.58379493  0.14464770  0.38660621  1
  O  O393  1  0.61760653  0.13912464  0.88891843  1
  O  O394  1  0.64869015  0.61639113  0.38746287  1
  O  O395  1  0.58767064  0.63053737  0.85335898  1
