# generated using pymatgen
data_V35Zn35O128
_symmetry_space_group_name_H-M   'P 1'
_cell_length_a   16.89626273
_cell_length_b   16.79173026
_cell_length_c   16.89505498
_cell_angle_alpha   90.11501916
_cell_angle_beta   89.66260139
_cell_angle_gamma   90.01274764
_symmetry_Int_Tables_number   1
_chemical_formula_structural   V35Zn35O128
_chemical_formula_sum   'V70 Zn70 O256'
_cell_volume   4793.32964967
_cell_formula_units_Z   2
loop_
 _symmetry_equiv_pos_site_id
 _symmetry_equiv_pos_as_xyz
  1  'x, y, z'
loop_
 _atom_site_type_symbol
 _atom_site_label
 _atom_site_symmetry_multiplicity
 _atom_site_fract_x
 _atom_site_fract_y
 _atom_site_fract_z
 _atom_site_occupancy
  V  V0  1  0.63403112  -0.01948679  0.12204691  1
  V  V1  1  0.87140004  0.62132422  0.25893886  1
  V  V2  1  -0.00520121  0.23221266  0.23784987  1
  V  V3  1  0.35801096  0.76064761  0.11272946  1
  V  V4  1  0.25039357  0.88144030  0.63065721  1
  V  V5  1  0.62526581  0.51510718  0.61357734  1
  V  V6  1  0.75240276  0.13424880  0.87860187  1
  V  V7  1  0.50441515  0.01615393  0.49640834  1
  V  V8  1  0.50134953  0.12314016  0.13402062  1
  V  V9  1  0.63684202  0.86468929  0.25662780  1
  V  V10  1  0.86079106  0.74592162  0.12936445  1
  V  V11  1  -0.00023024  0.36462950  0.88032744  1
  V  V12  1  0.00878297  0.50662981  0.00305055  1
  V  V13  1  0.86927087  0.51242876  0.87965941  1
  V  V14  1  0.52887216  0.35979313  0.36371414  1
  V  V15  1  0.36801540  0.23004810  0.63501446  1
  V  V16  1  0.11952453  0.37548206  0.24453683  1
  V  V17  1  0.15028636  -0.00413557  0.12601165  1
  V  V18  1  0.71968060  0.22191680  0.49919297  1
  V  V19  1  0.25391475  0.50413950  0.75610916  1
  V  V20  1  0.87948423  0.87572716  0.49408683  1
  V  V21  1  0.24615770  0.26121886  0.49452782  1
  V  V22  1  -0.00259654  0.24982755  0.73494076  1
  V  V23  1  0.62844723  0.37511316  0.73360437  1
  V  V24  1  0.11306104  0.11641239  0.00047466  1
  V  V25  1  0.38152708  0.47191129  0.43508493  1
  V  V26  1  0.51187462  0.50346198  -0.00735523  1
  V  V27  1  -0.00070380  0.62767186  0.64013195  1
  V  V28  1  0.49762603  -0.01216899  -0.01129868  1
  V  V29  1  0.50200011  0.62349706  0.11820187  1
  V  V30  1  0.51522572  0.75425488  0.76126858  1
  V  V31  1  0.01079650  0.62522680  0.12888438  1
  V  V32  1  0.75092389  0.73790860  0.48944557  1
  V  V33  1  0.87946617  0.74591098  0.63813181  1
  V  V34  1  0.35588129  0.12556177  0.25372987  1
  V  V35  1  0.00446095  0.00930605  0.50116736  1
  V  V36  1  0.12652389  0.74236336  0.36709476  1
  V  V37  1  0.37132272  0.25644562  0.12851402  1
  V  V38  1  0.62184044  0.01292786  0.62225117  1
  V  V39  1  0.38074233  0.73894570  0.63051647  1
  V  V40  1  0.12818671  0.37304053  0.75121715  1
  V  V41  1  0.24962240  0.63926800  0.88321476  1
  V  V42  1  0.00826569  0.87725990  0.36770929  1
  V  V43  1  0.12703554  0.50436027  0.62317270  1
  V  V44  1  0.75732528  0.51131970  0.74723770  1
  V  V45  1  0.10302546  0.86865004  0.75025128  1
  V  V46  1  0.74876039  -0.00112575  0.74996797  1
  V  V47  1  0.86447715  0.49187375  0.37238788  1
  V  V48  1  0.74713521  0.87529562  0.62733425  1
  V  V49  1  0.38698671  0.86906350  0.49418150  1
  V  V50  1  0.88739317  -0.00353027  0.88687348  1
  V  V51  1  0.64028160  0.74843052  0.88539420  1
  V  V52  1  0.61171212  0.25536101  0.86719144  1
  V  V53  1  0.36837160  0.38136238  -0.00957159  1
  V  V54  1  0.87942979  0.13049279  0.73715690  1
  V  V55  1  0.49534445  0.75626117  0.25247813  1
  V  V56  1  0.24512288  0.24475317  -0.00862641  1
  V  V57  1  0.12097593  0.01139810  0.62743137  1
  V  V58  1  0.10786331  0.75123611  0.88336547  1
  V  V59  1  0.36711154  0.00174891  0.37171872  1
  V  V60  1  0.35487598  0.62802152  0.24554043  1
  V  V61  1  0.25926703  0.10718232  0.86576899  1
  V  V62  1  0.24090644  0.74346358  0.49726137  1
  V  V63  1  0.86328496  0.36067681  0.00684833  1
  V  V64  1  0.62137360  0.12907123  -0.00294497  1
  V  V65  1  0.87789436  0.36816327  0.51720127  1
  V  V66  1  0.00667577  0.50422387  0.48982418  1
  V  V67  1  0.83202832  0.11381096  0.25385988  1
  V  V68  1  0.36035195  0.87711712  -0.01425887  1
  V  V69  1  0.24955789  0.49296184  0.21209386  1
  Zn  Zn70  1  0.15086976  0.88447202  0.24425321  1
  Zn  Zn71  1  0.13330353  0.24959754  0.37375801  1
  Zn  Zn72  1  0.74684183  0.74238870  0.00963009  1
  Zn  Zn73  1  0.64997275  0.47089059  0.19594580  1
  Zn  Zn74  1  0.38597160  0.61109703  0.75332094  1
  Zn  Zn75  1  0.49133361  0.38763922  0.86111045  1
  Zn  Zn76  1  0.18057439  0.19096916  0.17849911  1
  Zn  Zn77  1  0.19304101  0.19233160  0.68640771  1
  Zn  Zn78  1  0.18154872  0.69506142  0.18150833  1
  Zn  Zn79  1  0.18837663  0.68943654  0.68933082  1
  Zn  Zn80  1  0.66549815  0.20202074  0.19645837  1
  Zn  Zn81  1  0.69663627  0.19662499  0.68075015  1
  Zn  Zn82  1  0.67014171  0.65451904  0.21927749  1
  Zn  Zn83  1  0.69345509  0.68703763  0.68981510  1
  Zn  Zn84  1  0.31361554  0.32448364  0.31899983  1
  Zn  Zn85  1  0.31080488  0.30562507  0.81196030  1
  Zn  Zn86  1  0.31240457  0.81112097  0.31185435  1
  Zn  Zn87  1  0.30947407  0.81386513  0.81236426  1
  Zn  Zn88  1  0.84025197  0.28022883  0.35189282  1
  Zn  Zn89  1  0.81178366  0.31892533  0.81120288  1
  Zn  Zn90  1  0.82230440  0.80305079  0.30880866  1
  Zn  Zn91  1  0.81508764  0.81473470  0.82089660  1
  Zn  Zn92  1  0.19571314  0.43334005  0.43409085  1
  Zn  Zn93  1  0.18898290  0.43755635  0.93594876  1
  Zn  Zn94  1  0.18929400  0.93481115  0.44319137  1
  Zn  Zn95  1  0.17886284  0.93702751  0.93282742  1
  Zn  Zn96  1  0.69510821  0.42052665  0.43521562  1
  Zn  Zn97  1  0.69187415  0.43913430  0.94033134  1
  Zn  Zn98  1  0.66198362  0.89313870  0.45600623  1
  Zn  Zn99  1  0.69374976  0.92664574  0.93508756  1
  Zn  Zn100  1  0.31593124  0.06269830  0.05692276  1
  Zn  Zn101  1  0.31304436  0.06528060  0.56025846  1
  Zn  Zn102  1  0.31282717  0.57051522  0.05488391  1
  Zn  Zn103  1  0.30627221  0.55844156  0.56199844  1
  Zn  Zn104  1  0.81522655  0.07392129  0.06843705  1
  Zn  Zn105  1  0.81405374  0.06276965  0.55515532  1
  Zn  Zn106  1  0.80628239  0.55476598  0.07783021  1
  Zn  Zn107  1  0.81425772  0.55680641  0.56066623  1
  Zn  Zn108  1  0.43782901  0.43999371  0.18807083  1
  Zn  Zn109  1  0.44312097  0.43735029  0.66841346  1
  Zn  Zn110  1  0.43104617  0.93807703  0.18175196  1
  Zn  Zn111  1  0.44520200  0.92983268  0.67919196  1
  Zn  Zn112  1  0.93561559  0.43332365  0.18787491  1
  Zn  Zn113  1  0.93972782  0.44163244  0.69162518  1
  Zn  Zn114  1  0.90560720  0.93617722  0.20395342  1
  Zn  Zn115  1  0.93267537  0.94234048  0.68613225  1
  Zn  Zn116  1  0.05875297  0.06648182  0.30413246  1
  Zn  Zn117  1  0.07060144  0.06420557  0.81303708  1
  Zn  Zn118  1  0.07221260  0.55907549  0.30379174  1
  Zn  Zn119  1  0.06226758  0.56345130  0.81980213  1
  Zn  Zn120  1  0.55316858  0.03748163  0.30437991  1
  Zn  Zn121  1  0.57003931  0.05170180  0.81350495  1
  Zn  Zn122  1  0.52273948  0.54208805  0.31356605  1
  Zn  Zn123  1  0.56750514  0.57059468  0.80523575  1
  Zn  Zn124  1  0.43910298  0.19842970  0.43086832  1
  Zn  Zn125  1  0.43489787  0.18364742  0.93752944  1
  Zn  Zn126  1  0.42501081  0.66979397  0.42744794  1
  Zn  Zn127  1  0.43769751  0.68988277  0.93095693  1
  Zn  Zn128  1  0.94472945  0.18418506  0.42591889  1
  Zn  Zn129  1  0.93726924  0.18474525  0.93599949  1
  Zn  Zn130  1  0.94530945  0.68445027  0.44224756  1
  Zn  Zn131  1  0.93340077  0.69283373  0.94541451  1
  Zn  Zn132  1  0.06755235  0.31725988  0.06821736  1
  Zn  Zn133  1  0.06484114  0.31841026  0.55802724  1
  Zn  Zn134  1  0.06122452  0.80995464  0.07571170  1
  Zn  Zn135  1  0.06234917  0.81342115  0.56341397  1
  Zn  Zn136  1  0.55242349  0.31190621  0.05538485  1
  Zn  Zn137  1  0.56420893  0.32368266  0.54367104  1
  Zn  Zn138  1  0.55822953  0.80331806  0.06167633  1
  Zn  Zn139  1  0.56650335  0.80275389  0.57082443  1
  O  O140  1  0.13306420  0.11016957  0.11093210  1
  O  O141  1  0.12839799  0.11012164  0.63262037  1
  O  O142  1  0.11060200  0.63134997  0.12047511  1
  O  O143  1  0.11386979  0.61641242  0.63180883  1
  O  O144  1  0.61329590  0.12904253  0.11503251  1
  O  O145  1  0.62980135  0.11183887  0.62540005  1
  O  O146  1  0.60013382  0.63289071  0.12317888  1
  O  O147  1  0.63590730  0.61633990  0.62154369  1
  O  O148  1  0.39063521  0.38130866  0.38314733  1
  O  O149  1  0.37829607  0.36637573  0.88649302  1
  O  O150  1  0.37621037  0.88416311  0.38911818  1
  O  O151  1  0.37512383  0.86957148  0.88633015  1
  O  O152  1  0.88384392  0.39098234  0.38387667  1
  O  O153  1  0.88779997  0.37728062  0.88106795  1
  O  O154  1  0.88815995  0.86694234  0.38849437  1
  O  O155  1  0.87173177  0.89639069  0.87558398  1
  O  O156  1  0.26983720  0.00427815  0.39239263  1
  O  O157  1  0.25032039  0.00608424  0.87332017  1
  O  O158  1  0.28704330  0.50337477  0.41213203  1
  O  O159  1  0.24252471  0.51234901  0.86134167  1
  O  O160  1  0.71054316  0.01625606  0.37712107  1
  O  O161  1  0.74768859  0.01201798  0.86361852  1
  O  O162  1  0.76650908  0.49952848  0.37922156  1
  O  O163  1  0.76299868  0.49777138  0.87052959  1
  O  O164  1  0.24691391  0.49340843  0.11318351  1
  O  O165  1  0.23160672  0.50675980  0.63738423  1
  O  O166  1  0.24998129  0.99798395  0.12616355  1
  O  O167  1  0.23741801  0.98824174  0.61251926  1
  O  O168  1  0.73668661  0.48005094  0.12569954  1
  O  O169  1  0.75204436  0.50143526  0.64195299  1
  O  O170  1  0.73016547  1.00309652  0.11546252  1
  O  O171  1  0.74422147  0.99632714  0.62892181  1
  O  O172  1  0.01970626  0.38680586  0.25126390  1
  O  O173  1  0.00266422  0.36622259  0.75947465  1
  O  O174  1  -0.00789023  0.88600725  0.26943691  1
  O  O175  1  0.00429927  0.87122075  0.74328474  1
  O  O176  1  0.50116286  0.42630801  0.28043738  1
  O  O177  1  0.52252328  0.38804280  0.75130807  1
  O  O178  1  0.49577432  0.85979338  0.24102293  1
  O  O179  1  0.49245311  0.85347262  0.74381079  1
  O  O180  1  0.50840200  0.12203445  0.23598068  1
  O  O181  1  0.46206440  0.08267107  0.75630043  1
  O  O182  1  0.47427019  0.63043965  0.23270894  1
  O  O183  1  0.49451931  0.64348898  0.75071512  1
  O  O184  1  0.98424079  0.12881270  0.23991990  1
  O  O185  1  0.99198182  0.13976383  0.75616281  1
  O  O186  1  0.99983033  0.61165451  0.23336824  1
  O  O187  1  0.99823480  0.62159069  0.73917242  1
  O  O188  1  0.36704698  0.25671752  0.00687651  1
  O  O189  1  0.36100834  0.23199112  0.50831503  1
  O  O190  1  0.37964498  0.76379889  0.00488090  1
  O  O191  1  0.37099401  0.75548917  0.50303325  1
  O  O192  1  0.87774234  0.25980632  -0.00458899  1
  O  O193  1  0.89390877  0.26930306  0.48990104  1
  O  O194  1  0.86782125  0.74388187  0.02155049  1
  O  O195  1  0.87087130  0.75850040  0.50816743  1
  O  O196  1  0.13982468  0.25488868  0.50253480  1
  O  O197  1  0.14094704  0.23852232  1.01217862  1
  O  O198  1  0.13629452  0.75631480  0.49402891  1
  O  O199  1  0.11528830  0.76860419  0.98224907  1
  O  O200  1  0.61722025  0.23144867  0.50378800  1
  O  O201  1  0.61574817  0.23904496  0.98550309  1
  O  O202  1  0.65088018  0.77626034  0.49896534  1
  O  O203  1  0.62688128  0.74706569  0.99079376  1
  O  O204  1  0.48180494  0.23059326  0.11134572  1
  O  O205  1  0.47466747  0.27724067  0.61340215  1
  O  O206  1  0.48568822  0.73962209  0.12749941  1
  O  O207  1  0.48457557  0.74786298  0.62595200  1
  O  O208  1  1.00880355  0.25160294  0.13862410  1
  O  O209  1  1.00290376  0.25272970  0.63715334  1
  O  O210  1  0.98844102  0.73094733  0.11721311  1
  O  O211  1  0.99131082  0.73961871  0.61998464  1
  O  O212  1  0.01819753  0.23737810  0.35523238  1
  O  O213  1  0.00099660  0.26167927  0.86777025  1
  O  O214  1  0.01724690  0.76347008  0.38585690  1
  O  O215  1  0.00795860  0.74242163  0.87282105  1
  O  O216  1  0.50404084  0.25933677  0.35958255  1
  O  O217  1  0.51047510  0.24526260  0.86909588  1
  O  O218  1  0.48341794  0.73988676  0.35072897  1
  O  O219  1  0.51017558  0.75328698  0.86630713  1
  O  O220  1  0.26600943  0.14402292  0.49554423  1
  O  O221  1  0.25011728  0.13223027  0.99158593  1
  O  O222  1  0.25355038  0.64402783  0.50524300  1
  O  O223  1  0.24526867  0.62447092  0.98165786  1
  O  O224  1  0.75060385  0.12327651  0.48861185  1
  O  O225  1  0.73609689  0.12243764  0.98509051  1
  O  O226  1  0.75522575  0.63912731  0.50567569  1
  O  O227  1  0.75352484  0.62422605  1.00701015  1
  O  O228  1  0.25907541  0.36280709  -0.00694458  1
  O  O229  1  0.25629661  0.36259364  0.50538914  1
  O  O230  1  0.26176968  0.88288231  -0.00515567  1
  O  O231  1  0.26126927  0.86616220  0.50887545  1
  O  O232  1  0.76334575  0.37058124  -0.00444274  1
  O  O233  1  0.77908672  0.38920217  0.50861752  1
  O  O234  1  0.74492389  0.86198022  0.01092797  1
  O  O235  1  0.76879135  0.87735661  0.50753668  1
  O  O236  1  0.14783017  0.49195753  0.25038976  1
  O  O237  1  0.13022344  0.49442307  0.74549583  1
  O  O238  1  0.11627462  1.00333601  0.22694178  1
  O  O239  1  0.11705541  0.98612854  0.73545944  1
  O  O240  1  0.62266060  0.55401237  0.26560001  1
  O  O241  1  0.63884862  0.49470831  0.74335008  1
  O  O242  1  0.61778045  0.97750328  0.23153422  1
  O  O243  1  0.63600800  1.00256322  0.73499717  1
  O  O244  1  0.38185807  0.00958838  0.26242461  1
  O  O245  1  0.41186150  0.02593249  0.75273180  1
  O  O246  1  0.35894546  0.51777262  0.23564165  1
  O  O247  1  0.35682499  0.49094633  0.73560456  1
  O  O248  1  0.84670731  0.01180326  0.25971079  1
  O  O249  1  0.87088619  0.01503139  0.75781105  1
  O  O250  1  0.88367757  0.50237571  0.26502440  1
  O  O251  1  0.86613215  0.49226035  0.76481404  1
  O  O252  1  0.14511618  0.37159568  0.35338980  1
  O  O253  1  0.10938890  0.38370713  0.86178512  1
  O  O254  1  0.11728718  0.87493484  0.37215458  1
  O  O255  1  0.12346507  0.86799368  0.85730786  1
  O  O256  1  0.63059528  0.37395434  0.35433447  1
  O  O257  1  0.62187348  0.35988647  0.87753686  1
  O  O258  1  0.61637510  0.87923543  0.35419114  1
  O  O259  1  0.63382297  0.85580573  0.86885559  1
  O  O260  1  0.38434243  0.12144350  0.13870048  1
  O  O261  1  0.37863686  0.12838416  0.63019633  1
  O  O262  1  0.37300158  0.64202696  0.12145460  1
  O  O263  1  0.36743181  0.63739549  0.62594183  1
  O  O264  1  0.84931552  0.13838194  0.15354638  1
  O  O265  1  0.87568455  0.11974357  0.63945543  1
  O  O266  1  0.88293674  0.62089810  0.14164383  1
  O  O267  1  0.88509872  0.63630353  0.62417409  1
  O  O268  1  0.26722120  0.23972820  0.11223024  1
  O  O269  1  0.26164361  0.24998296  0.61710657  1
  O  O270  1  0.25843619  0.75374716  0.11867050  1
  O  O271  1  0.25650041  0.76029175  0.61572718  1
  O  O272  1  0.75691846  0.29087807  0.15574192  1
  O  O273  1  0.75027113  0.24720972  0.59580834  1
  O  O274  1  0.76047000  0.72584902  0.13863987  1
  O  O275  1  0.76416399  0.75668873  0.62069174  1
  O  O276  1  0.25404777  0.25441738  0.38643442  1
  O  O277  1  0.24754542  0.24391131  0.88871607  1
  O  O278  1  0.23901834  0.75920594  0.38869554  1
  O  O279  1  0.23599207  0.74410613  0.86840696  1
  O  O280  1  0.74510052  0.27348095  0.41150111  1
  O  O281  1  0.74102234  0.23738196  0.86760185  1
  O  O282  1  0.76246369  0.74862628  0.39065029  1
  O  O283  1  0.74718182  0.74693427  0.87929656  1
  O  O284  1  0.01503798  0.13068967  -0.00186565  1
  O  O285  1  -0.01141643  0.10738159  0.49894990  1
  O  O286  1  -0.00515339  0.61121076  0.00631001  1
  O  O287  1  0.00193888  0.61102224  0.51443929  1
  O  O288  1  0.50482621  0.11271100  0.00456443  1
  O  O289  1  0.49831046  0.11442399  0.49721358  1
  O  O290  1  0.48754097  0.61387175  0.00606549  1
  O  O291  1  0.54021137  0.65319615  0.49000827  1
  O  O292  1  0.51929525  0.39128937  0.46248393  1
  O  O293  1  0.48762031  0.38713484  0.99593274  1
  O  O294  1  0.48810362  0.87143326  0.50704287  1
  O  O295  1  0.49767564  0.88607606  1.00513239  1
  O  O296  1  0.99698981  0.39661376  0.50794905  1
  O  O297  1  1.00216849  0.37801067  0.98818086  1
  O  O298  1  0.99209145  0.87804035  0.49645791  1
  O  O299  1  0.97751984  0.91020137  1.04604978  1
  O  O300  1  0.44870754  0.55018828  0.40303807  1
  O  O301  1  0.50341108  0.50637124  0.88747394  1
  O  O302  1  0.49025049  0.99888140  0.39010544  1
  O  O303  1  0.50857033  0.99657345  0.88987176  1
  O  O304  1  1.01640578  0.50559948  0.39025037  1
  O  O305  1  0.99000509  0.49226640  0.88066098  1
  O  O306  1  1.00846942  0.98725003  0.39167212  1
  O  O307  1  0.98649948  1.01041489  0.87243051  1
  O  O308  1  -0.02574744  -0.03478373  0.09779493  1
  O  O309  1  0.01117295  -0.00482336  0.61562339  1
  O  O310  1  -0.00299010  0.50549257  0.10902977  1
  O  O311  1  0.00747696  0.51266806  0.62588921  1
  O  O312  1  0.50766832  0.01016021  0.11767256  1
  O  O313  1  0.51430131  -0.00272820  0.61551386  1
  O  O314  1  0.49043695  0.51281328  0.11200247  1
  O  O315  1  0.52496373  0.50360321  0.62649889  1
  O  O316  1  0.26470420  0.39324250  0.24090008  1
  O  O317  1  0.23371751  0.38407356  0.76159092  1
  O  O318  1  0.26051067  0.89547013  0.26439247  1
  O  O319  1  0.25498657  0.87873432  0.73187902  1
  O  O320  1  0.75840035  0.35601684  0.19065894  1
  O  O321  1  0.73443411  0.38446485  0.75856220  1
  O  O322  1  0.73585917  0.85732267  0.25467885  1
  O  O323  1  0.76531233  0.89046831  0.73874918  1
  O  O324  1  0.25876129  0.12447533  0.24803693  1
  O  O325  1  0.23649562  0.12981660  0.76950484  1
  O  O326  1  0.24963701  0.61234321  0.22662011  1
  O  O327  1  0.25172292  0.61328024  0.75258698  1
  O  O328  1  0.72969448  0.13697118  0.25782635  1
  O  O329  1  0.76115968  0.12237887  0.75426590  1
  O  O330  1  0.77241112  0.62172075  0.26047771  1
  O  O331  1  0.75305458  0.61140944  0.75508009  1
  O  O332  1  0.38160788  0.11776739  0.35927612  1
  O  O333  1  0.35948117  0.12588807  0.87817416  1
  O  O334  1  0.34710143  0.64890612  0.34211041  1
  O  O335  1  0.35582309  0.63713522  0.86683640  1
  O  O336  1  0.86274726  0.15495791  0.34745585  1
  O  O337  1  0.86207668  0.12317932  0.86728295  1
  O  O338  1  0.89394962  0.61119152  0.36675865  1
  O  O339  1  0.88029452  0.61113641  0.87998486  1
  O  O340  1  0.13585632  0.37259555  0.14224564  1
  O  O341  1  0.11357115  0.39189089  0.64312809  1
  O  O342  1  0.12489190  0.88936253  0.12521379  1
  O  O343  1  0.13517276  0.87508882  0.63365051  1
  O  O344  1  0.60378220  0.35689631  0.15231885  1
  O  O345  1  0.62709787  0.37685206  0.63251765  1
  O  O346  1  0.62613116  0.87682160  0.12527506  1
  O  O347  1  0.64268169  0.88227379  0.62191420  1
  O  O348  1  0.11923222  0.25817833  0.24718129  1
  O  O349  1  0.11430788  0.26540060  0.74376588  1
  O  O350  1  0.13627722  0.76337362  0.26382203  1
  O  O351  1  0.12462048  0.76486180  0.74944031  1
  O  O352  1  0.59761541  0.29662187  0.20920425  1
  O  O353  1  0.63039188  0.26075842  0.75647234  1
  O  O354  1  0.60670540  0.75468356  0.24296176  1
  O  O355  1  0.61774616  0.75278457  0.74691962  1
  O  O356  1  0.36916987  0.23905827  0.23670417  1
  O  O357  1  0.36881428  0.25076719  0.73479132  1
  O  O358  1  0.37436383  0.74854534  0.23071446  1
  O  O359  1  0.37129339  0.75026341  0.73393002  1
  O  O360  1  0.90228475  0.27648130  0.25460757  1
  O  O361  1  0.88423758  0.24237276  0.75176319  1
  O  O362  1  0.88716684  0.72857565  0.24909552  1
  O  O363  1  0.87332774  0.75592983  0.73621378  1
  O  O364  1  0.38335361  0.47824328  0.53843396  1
  O  O365  1  0.37209530  0.48350350  1.00042874  1
  O  O366  1  0.38832212  0.99099047  0.49747274  1
  O  O367  1  0.38809717  0.98908867  1.00347631  1
  O  O368  1  0.89085423  0.49968950  0.49106106  1
  O  O369  1  0.88315059  0.48769001  0.98783424  1
  O  O370  1  0.88944412  0.98418087  0.51061592  1
  O  O371  1  0.86779003  1.01837151  0.98467727  1
  O  O372  1  0.12463983  0.00559171  0.01273055  1
  O  O373  1  0.11419688  -0.00597804  0.51328285  1
  O  O374  1  0.10795069  0.49632367  -0.00911391  1
  O  O375  1  0.12149682  0.49253796  0.51700377  1
  O  O376  1  0.61526884  0.00523760  0.00798321  1
  O  O377  1  0.61305544  -0.00931773  0.50852855  1
  O  O378  1  0.61013878  0.49211194  0.00261932  1
  O  O379  1  0.64634642  0.49078909  0.51732021  1
  O  O380  1  0.38507875  0.36025358  0.11749375  1
  O  O381  1  0.41487915  0.33887799  0.60826324  1
  O  O382  1  0.37518319  0.86603452  0.11299126  1
  O  O383  1  0.36553615  0.87128822  0.61376900  1
  O  O384  1  0.88460158  0.37931236  0.10387731  1
  O  O385  1  0.88737142  0.37468463  0.61841416  1
  O  O386  1  0.86744932  0.84562212  0.15015219  1
  O  O387  1  0.87320711  0.86464267  0.61707280  1
  O  O388  1  0.11046706  0.13482300  0.37584161  1
  O  O389  1  0.13660772  0.11527108  0.89474679  1
  O  O390  1  0.12330266  0.64301609  0.36684780  1
  O  O391  1  0.13252805  0.64202052  0.86609674  1
  O  O392  1  0.65856972  0.06839048  0.37163845  1
  O  O393  1  0.63105294  0.13305112  0.87409490  1
  O  O394  1  0.59001510  0.62658034  0.44243367  1
  O  O395  1  0.62642346  0.64607494  0.86560867  1
