# generated using pymatgen
data_V35Zn35O128
_symmetry_space_group_name_H-M   'P 1'
_cell_length_a   16.98570146
_cell_length_b   16.96908734
_cell_length_c   16.95072734
_cell_angle_alpha   89.90856393
_cell_angle_beta   89.60387295
_cell_angle_gamma   89.96855128
_symmetry_Int_Tables_number   1
_chemical_formula_structural   V35Zn35O128
_chemical_formula_sum   'V70 Zn70 O256'
_cell_volume   4885.61583258
_cell_formula_units_Z   2
loop_
 _symmetry_equiv_pos_site_id
 _symmetry_equiv_pos_as_xyz
  1  'x, y, z'
loop_
 _atom_site_type_symbol
 _atom_site_label
 _atom_site_symmetry_multiplicity
 _atom_site_fract_x
 _atom_site_fract_y
 _atom_site_fract_z
 _atom_site_occupancy
  V  V0  1  0.74076068  0.74483178  0.00314318  1
  V  V1  1  0.37153961  0.87924569  0.49953330  1
  V  V2  1  0.73044199  0.38684588  0.12790688  1
  V  V3  1  0.00849593  0.62110464  0.61103714  1
  V  V4  1  0.88082235  0.50177931  0.87376127  1
  V  V5  1  0.74550454  0.50853205  0.25167758  1
  V  V6  1  0.36095706  0.74725552  0.62104844  1
  V  V7  1  0.26340464  0.14321550  0.38591463  1
  V  V8  1  0.12246164  0.49086136  0.61244454  1
  V  V9  1  0.23607477  -0.00016232  0.25296367  1
  V  V10  1  0.87981232  0.37834325  0.01522952  1
  V  V11  1  0.37070277  0.25834250  0.62420112  1
  V  V12  1  0.50928886  0.48961321  0.49385095  1
  V  V13  1  0.10852577  0.78090113  0.37013284  1
  V  V14  1  0.00368582  0.74640665  0.74796620  1
  V  V15  1  0.59973157  0.87806622  0.25682047  1
  V  V16  1  -0.00676648  0.01022634  0.00308454  1
  V  V17  1  0.13384795  0.87990430  0.74772786  1
  V  V18  1  0.86324553  0.74980886  0.62596398  1
  V  V19  1  0.39722369  0.14023182  0.24334710  1
  V  V20  1  0.38315702  0.00087113  0.36859379  1
  V  V21  1  0.37531060  0.62159438  0.74632765  1
  V  V22  1  0.62319776  0.88575058  0.74811235  1
  V  V23  1  0.24809278  0.48908130  0.74304563  1
  V  V24  1  0.74859359  0.86688338  0.13673184  1
  V  V25  1  0.25276353  0.89638498  0.63014918  1
  V  V26  1  0.36643862  0.37292903  0.49845778  1
  V  V27  1  0.25233844  0.62146473  0.87632849  1
  V  V28  1  0.36744170  0.12122602  0.75316495  1
  V  V29  1  0.00160004  0.12882823  0.66712079  1
  V  V30  1  0.24830598  0.37048922  0.12355690  1
  V  V31  1  0.51257820  0.12133186  0.62778156  1
  V  V32  1  0.49877961  0.62832345  0.61664294  1
  V  V33  1  0.51895773  0.25993007  0.74457139  1
  V  V34  1  0.00134241  0.36122086  0.87020990  1
  V  V35  1  0.87895686  0.48551540  0.37868740  1
  V  V36  1  0.84972958  0.14271174  0.75541247  1
  V  V37  1  0.63535658  0.49522146  0.63187014  1
  V  V38  1  0.74916334  0.62126860  0.87616628  1
  V  V39  1  0.64202853  0.13351550  0.49438420  1
  V  V40  1  0.24224916  0.61889608  0.38206490  1
  V  V41  1  0.12309717  0.36730272  0.74889697  1
  V  V42  1  0.83897223  -0.00324487  0.86196892  1
  V  V43  1  0.38106373  0.49645415  0.35965621  1
  V  V44  1  0.27985521  0.24545686  -0.00394341  1
  V  V45  1  0.00247857  0.25170353  0.23664295  1
  V  V46  1  0.21902806  0.49396651  0.24749741  1
  V  V47  1  0.52436530  0.50330851  -0.00819216  1
  V  V48  1  0.61926740  0.74661347  0.86808427  1
  V  V49  1  0.12843789  0.61660304  0.00509323  1
  V  V50  1  -0.00436502  0.63697091  0.12956821  1
  V  V51  1  0.62536780  0.12979385  -0.01863944  1
  V  V52  1  0.76023257  0.64644532  0.37141471  1
  V  V53  1  0.87530512  0.61977811  0.75311110  1
  V  V54  1  0.51422785  0.37526838  0.86061067  1
  V  V55  1  0.89082631  0.88579825  0.50828289  1
  V  V56  1  0.84906060  0.02080873  0.34217863  1
  V  V57  1  -0.00363963  0.87667941  0.87484791  1
  V  V58  1  0.63119027  0.01703958  0.14068263  1
  V  V59  1  0.25322380  0.75804153  0.00716955  1
  V  V60  1  0.12664054  0.74501807  0.87645131  1
  V  V61  1  0.62654100  0.63847643  0.49706027  1
  V  V62  1  0.86215862  0.86983650  -0.00668040  1
  V  V63  1  0.50886779  -0.00346636  0.50635971  1
  V  V64  1  0.59671960  0.75727610  0.37537558  1
  V  V65  1  0.44166475  0.93982446  -0.04423619  1
  V  V66  1  0.00990859  0.49980900  0.00717089  1
  V  V67  1  0.37379798  0.49123306  0.87990330  1
  V  V68  1  0.74469166  0.89320703  0.62738250  1
  V  V69  1  0.12352155  0.11072284  0.48928688  1
  Zn  Zn70  1  0.50929205  0.61711036  0.12077995  1
  Zn  Zn71  1  0.74795864  0.25345052  0.00678430  1
  Zn  Zn72  1  0.49375061  0.75292148  0.75315364  1
  Zn  Zn73  1  0.13025447  0.12080219  0.01635664  1
  Zn  Zn74  1  0.14647209  0.23658684  0.87065891  1
  Zn  Zn75  1  0.38225495  0.72310786  0.14053602  1
  Zn  Zn76  1  0.22229169  0.17483104  0.17726945  1
  Zn  Zn77  1  0.18732137  0.18111295  0.67442052  1
  Zn  Zn78  1  0.18227361  0.67790600  0.19395210  1
  Zn  Zn79  1  0.18536705  0.67881112  0.68833207  1
  Zn  Zn80  1  0.75584229  0.17421633  0.17916768  1
  Zn  Zn81  1  0.69573651  0.19595606  0.67295374  1
  Zn  Zn82  1  0.65168613  0.67611856  0.20419622  1
  Zn  Zn83  1  0.68485485  0.67725751  0.69278940  1
  Zn  Zn84  1  0.32279662  0.32093466  0.30458297  1
  Zn  Zn85  1  0.32070168  0.30475065  0.81041938  1
  Zn  Zn86  1  0.27503011  0.79365244  0.28219844  1
  Zn  Zn87  1  0.31793596  0.81358556  0.82157595  1
  Zn  Zn88  1  0.80728105  0.31654241  0.30319356  1
  Zn  Zn89  1  0.80618491  0.30490538  0.84535597  1
  Zn  Zn90  1  0.79862697  0.84157956  0.34446393  1
  Zn  Zn91  1  0.80667049  0.80979698  0.80846832  1
  Zn  Zn92  1  0.17844580  0.41383643  0.43828283  1
  Zn  Zn93  1  0.19255323  0.42704174  0.93799118  1
  Zn  Zn94  1  0.19154360  0.94202923  0.43228523  1
  Zn  Zn95  1  0.17291194  0.93800339  0.94903835  1
  Zn  Zn96  1  0.73205595  0.47729950  0.47602493  1
  Zn  Zn97  1  0.69887897  0.42634966  0.92645074  1
  Zn  Zn98  1  0.68916037  0.93055328  0.44693297  1
  Zn  Zn99  1  0.65220894  0.93188000  0.94908003  1
  Zn  Zn100  1  0.31940175  0.06172646  0.07192811  1
  Zn  Zn101  1  0.32344457  0.06593094  0.57085126  1
  Zn  Zn102  1  0.33118533  0.53229499  0.09007062  1
  Zn  Zn103  1  0.31371685  0.55314977  0.56081003  1
  Zn  Zn104  1  0.78353057  0.04615458  0.03950542  1
  Zn  Zn105  1  0.82467818  0.06770261  0.57239787  1
  Zn  Zn106  1  0.81305354  0.56209995  0.06261541  1
  Zn  Zn107  1  0.82098055  0.57684027  0.55949742  1
  Zn  Zn108  1  0.44306478  0.42638210  0.16622238  1
  Zn  Zn109  1  0.44156051  0.44168978  0.67972602  1
  Zn  Zn110  1  0.34318420  0.89836602  0.13971893  1
  Zn  Zn111  1  0.44264684  0.94154372  0.78649776  1
  Zn  Zn112  1  0.94043172  0.45474808  0.19796167  1
  Zn  Zn113  1  0.93957069  0.43408785  0.68697505  1
  Zn  Zn114  1  0.90102137  0.96989699  0.18278612  1
  Zn  Zn115  1  0.94211943  0.94466296  0.68417849  1
  Zn  Zn116  1  0.04465626  -0.05170788  0.29371176  1
  Zn  Zn117  1  0.06099953  0.06862002  0.81141347  1
  Zn  Zn118  1  0.05491131  0.57208926  0.32257581  1
  Zn  Zn119  1  0.06384512  0.55667707  0.81093476  1
  Zn  Zn120  1  0.57157827  0.06399217  0.31758408  1
  Zn  Zn121  1  0.56249427  0.06925750  0.81705434  1
  Zn  Zn122  1  0.56393948  0.56059891  0.31438090  1
  Zn  Zn123  1  0.56284385  0.56272009  0.80995444  1
  Zn  Zn124  1  0.43678402  0.18052784  0.44760214  1
  Zn  Zn125  1  0.42548628  0.13327663  0.95415752  1
  Zn  Zn126  1  0.39563274  0.70814066  0.40867090  1
  Zn  Zn127  1  0.46214442  0.71093633  0.97818540  1
  Zn  Zn128  1  0.95841030  0.11898398  0.39320877  1
  Zn  Zn129  1  0.91060570  0.18046676  0.93911459  1
  Zn  Zn130  1  0.94097986  0.70571263  0.43596655  1
  Zn  Zn131  1  0.93798150  0.68758070  0.94522722  1
  Zn  Zn132  1  0.08199847  0.31211675  0.04575619  1
  Zn  Zn133  1  0.08117441  0.27820642  0.54930361  1
  Zn  Zn134  1  -0.00558630  0.84525834  0.11345722  1
  Zn  Zn135  1  0.07709477  0.81081760  0.55627670  1
  Zn  Zn136  1  0.57565806  0.32276355  0.03021667  1
  Zn  Zn137  1  0.57273724  0.31167259  0.56640431  1
  Zn  Zn138  1  0.52852722  0.84688614  0.08181557  1
  Zn  Zn139  1  0.55721222  0.81475111  0.57140476  1
  O  O140  1  0.13154415  0.13615083  0.12898921  1
  O  O141  1  0.09765721  0.11983660  0.70897863  1
  O  O142  1  0.11947375  0.62650864  0.10781556  1
  O  O143  1  0.11347157  0.61186195  0.62888383  1
  O  O144  1  0.65522077  0.11250682  0.16151640  1
  O  O145  1  0.61518199  0.12763984  0.62004806  1
  O  O146  1  0.62224209  0.62469037  0.11099191  1
  O  O147  1  0.61643131  0.62706259  0.61401137  1
  O  O148  1  0.37826336  0.38474474  0.38946584  1
  O  O149  1  0.38335308  0.38999875  0.85939063  1
  O  O150  1  0.37192078  0.88892489  0.39704622  1
  O  O151  1  0.38980760  0.88196015  0.87934825  1
  O  O152  1  0.86792854  0.38476380  0.37194145  1
  O  O153  1  0.88913940  0.38719934  0.87818335  1
  O  O154  1  0.89080364  0.85163695  0.41208042  1
  O  O155  1  0.87811216  0.87703505  0.87339387  1
  O  O156  1  0.26971992  0.01480813  0.37283727  1
  O  O157  1  0.20567749  0.03383514  0.88470577  1
  O  O158  1  0.25997148  0.49403304  0.36262874  1
  O  O159  1  0.25899534  0.50088831  0.86517104  1
  O  O160  1  0.77163407  -0.04614984  0.37133820  1
  O  O161  1  0.74289671  -0.02014383  0.87373110  1
  O  O162  1  0.76311187  0.52119281  0.36771991  1
  O  O163  1  0.77079573  0.50962929  0.88144062  1
  O  O164  1  0.23028255  0.50093439  0.14324329  1
  O  O165  1  0.23369176  0.50579779  0.63340616  1
  O  O166  1  0.27124057  0.98823461  0.14984025  1
  O  O167  1  0.25602235  0.99390887  0.63427321  1
  O  O168  1  0.75374346  0.50788357  0.14374683  1
  O  O169  1  0.73382810  0.51028670  0.60158265  1
  O  O170  1  0.74308014  0.97063238  0.12482554  1
  O  O171  1  0.75254508  0.99000038  0.63343966  1
  O  O172  1  0.00359058  0.35753313  0.24921990  1
  O  O173  1  0.00751596  0.37726048  0.76213521  1
  O  O174  1  -0.10108381  0.77521391  0.26237775  1
  O  O175  1  0.01000909  0.86247446  0.75215417  1
  O  O176  1  0.50591652  0.36495287  0.23911667  1
  O  O177  1  0.49676297  0.36716722  0.74604884  1
  O  O178  1  0.50540548  0.87894121  0.24843049  1
  O  O179  1  0.51726917  0.86679607  0.74205911  1
  O  O180  1  0.49600574  0.12547707  0.26147463  1
  O  O181  1  0.50341731  0.13896004  0.73880743  1
  O  O182  1  0.54255642  0.63039102  0.23071873  1
  O  O183  1  0.48760207  0.62067283  0.73686560  1
  O  O184  1  0.99344932  0.15286255  0.20972852  1
  O  O185  1  0.96628747  0.12766107  0.76979027  1
  O  O186  1  1.01457253  0.62230103  0.22734727  1
  O  O187  1  0.99413446  0.63269323  0.75018208  1
  O  O188  1  0.37809440  0.23606818  -0.00385387  1
  O  O189  1  0.39125512  0.26581394  0.50882175  1
  O  O190  1  0.35061963  0.74257044  -0.01320067  1
  O  O191  1  0.38154245  0.77123692  0.50853195  1
  O  O192  1  0.87086440  0.27582909  -0.00813748  1
  O  O193  1  0.86705975  0.23735455  0.48282762  1
  O  O194  1  0.85857250  0.76053934  -0.01361162  1
  O  O195  1  0.88433374  0.75266725  0.52655243  1
  O  O196  1  0.15170785  0.17982277  0.56192312  1
  O  O197  1  0.12266343  0.23148139  0.98110477  1
  O  O198  1  0.13562175  0.76715131  0.46802124  1
  O  O199  1  0.13604982  0.73445653  0.98316884  1
  O  O200  1  0.62564547  0.23300069  0.50557846  1
  O  O201  1  0.62955583  0.22883593  1.02306935  1
  O  O202  1  0.61059419  0.74843533  0.48940477  1
  O  O203  1  0.63927943  0.74940932  0.97755720  1
  O  O204  1  0.54545381  0.29799254  0.20909023  1
  O  O205  1  0.49982480  0.24547089  0.63125545  1
  O  O206  1  0.48886987  0.74122939  0.08627555  1
  O  O207  1  0.48563490  0.73954235  0.62681774  1
  O  O208  1  1.01458113  0.26806772  0.13476448  1
  O  O209  1  1.00963711  0.22026976  0.61812580  1
  O  O210  1  1.00584800  0.73612591  0.11196762  1
  O  O211  1  1.00709417  0.73605284  0.63541039  1
  O  O212  1  -0.01229598  0.22450774  0.33773036  1
  O  O213  1  -0.00957239  0.26413590  0.87835045  1
  O  O214  1  0.01549634  0.74472551  0.36179831  1
  O  O215  1  0.00579821  0.75622954  0.86942099  1
  O  O216  1  0.50638062  0.24729206  0.36502078  1
  O  O217  1  0.50738129  0.26804304  0.85316671  1
  O  O218  1  0.49827549  0.74829074  0.37422139  1
  O  O219  1  0.51674174  0.73923076  0.87687308  1
  O  O220  1  0.27918292  0.12891250  0.48580436  1
  O  O221  1  0.25222922  0.14493594  1.02298266  1
  O  O222  1  0.25562629  0.60602863  0.48135892  1
  O  O223  1  0.24318017  0.62220476  0.98271359  1
  O  O224  1  0.73787191  0.12071084  0.52178562  1
  O  O225  1  0.75014769  0.14165120  0.98269216  1
  O  O226  1  0.73493862  0.62740086  0.48416955  1
  O  O227  1  0.75923539  0.63621974  0.98934236  1
  O  O228  1  0.25114288  0.35505154  0.00454280  1
  O  O229  1  0.26926457  0.37990928  0.50382576  1
  O  O230  1  0.23787483  0.85869282  -0.00225593  1
  O  O231  1  0.26230171  0.88799002  0.51647187  1
  O  O232  1  0.77534138  0.40951131  0.02579085  1
  O  O233  1  0.71976972  0.35630926  0.46794397  1
  O  O234  1  0.74679129  0.86114855  -0.00146627  1
  O  O235  1  0.75996079  0.87280271  0.52391952  1
  O  O236  1  0.12274558  0.48798589  0.26890836  1
  O  O237  1  0.13222590  0.48904328  0.74668397  1
  O  O238  1  0.13809326  1.01392382  0.25666041  1
  O  O239  1  0.12000739  0.97485125  0.75513043  1
  O  O240  1  0.64793679  0.49542311  0.27077744  1
  O  O241  1  0.63146296  0.51591957  0.72993471  1
  O  O242  1  0.62900391  0.98312060  0.25507829  1
  O  O243  1  0.62047902  0.98337785  0.75779101  1
  O  O244  1  0.38891656  0.00034600  0.27076786  1
  O  O245  1  0.38215382  0.02147221  0.73843550  1
  O  O246  1  0.39662890  0.48498195  0.26301955  1
  O  O247  1  0.36577367  0.50638911  0.74258514  1
  O  O248  1  0.83265091  0.03551933  0.24284943  1
  O  O249  1  0.86661354  -0.01158431  0.76334694  1
  O  O250  1  0.86479887  0.50491566  0.26648362  1
  O  O251  1  0.88741887  0.51072033  0.75995875  1
  O  O252  1  0.10477080  0.33215198  0.45549438  1
  O  O253  1  0.11126823  0.37415806  0.86865920  1
  O  O254  1  0.10626121  0.88737803  0.37168271  1
  O  O255  1  0.11863711  0.86240722  0.86607088  1
  O  O256  1  0.56171585  0.29214071  0.38106974  1
  O  O257  1  0.60828412  0.39803487  0.84774674  1
  O  O258  1  0.61732772  0.86586759  0.37363904  1
  O  O259  1  0.63560275  0.85457473  0.85581265  1
  O  O260  1  0.38408819  0.12081435  0.14601129  1
  O  O261  1  0.39161967  0.14241016  0.62672314  1
  O  O262  1  0.39475949  0.61436222  0.12616902  1
  O  O263  1  0.37927387  0.62667417  0.62650467  1
  O  O264  1  0.82237528  0.13703580  0.09539397  1
  O  O265  1  0.87834155  0.13078144  0.65202411  1
  O  O266  1  0.89767731  0.61879918  0.11372789  1
  O  O267  1  0.88930666  0.63199927  0.63368789  1
  O  O268  1  0.26611096  0.26662900  0.12221299  1
  O  O269  1  0.27358000  0.25524523  0.62782750  1
  O  O270  1  0.24360359  0.73463116  0.10607649  1
  O  O271  1  0.26020722  0.73762646  0.62422550  1
  O  O272  1  0.75232386  0.28751681  0.12164371  1
  O  O273  1  0.76538690  0.28132357  0.61828090  1
  O  O274  1  0.73749492  0.75524033  0.10625456  1
  O  O275  1  0.76499203  0.73597401  0.62942417  1
  O  O276  1  0.26969871  0.24194371  0.37147979  1
  O  O277  1  0.26110162  0.24936517  0.89055405  1
  O  O278  1  0.28559228  0.71778422  0.36845617  1
  O  O279  1  0.24297952  0.73919692  0.87350118  1
  O  O280  1  0.71375305  0.32447512  0.40049606  1
  O  O281  1  0.72225713  0.31635128  0.91113416  1
  O  O282  1  0.73860974  0.74713678  0.37399993  1
  O  O283  1  0.74545068  0.73757012  0.87640013  1
  O  O284  1  -0.00904011  0.10766279  -0.03004138  1
  O  O285  1  0.02397501  0.12570393  0.48011512  1
  O  O286  1  0.01225574  0.61737909  -0.00061610  1
  O  O287  1  -0.00156940  0.63253846  0.51423762  1
  O  O288  1  0.52686556  0.11930977  -0.00214578  1
  O  O289  1  0.50998336  0.11778018  0.51059770  1
  O  O290  1  0.50250221  0.60178308  -0.01930024  1
  O  O291  1  0.50587171  0.61780814  0.50912457  1
  O  O292  1  0.51125625  0.38920259  0.50113461  1
  O  O293  1  0.50514976  0.38513010  0.97082258  1
  O  O294  1  0.48717467  0.89122990  0.51943525  1
  O  O295  1  0.54190039  0.90514357  0.98139579  1
  O  O296  1  0.90693394  0.29383169  0.50316537  1
  O  O297  1  0.99908340  0.38164792  0.98825954  1
  O  O298  1  0.98746163  0.87687760  0.53805168  1
  O  O299  1  0.98085450  0.88285563  0.99481563  1
  O  O300  1  0.49529240  0.50268603  0.38825182  1
  O  O301  1  0.48786665  0.49503289  0.86900076  1
  O  O302  1  0.49072932  1.00612090  0.39675247  1
  O  O303  1  0.49278578  0.99942268  0.87643629  1
  O  O304  1  0.97677188  0.51261312  0.37850968  1
  O  O305  1  0.99492261  0.49680579  0.88280888  1
  O  O306  1  0.95545011  1.00749758  0.34510287  1
  O  O307  1  1.00208419  0.98033725  0.87554949  1
  O  O308  1  -0.03947302  0.01751899  0.09605023  1
  O  O309  1  -0.00601976  0.03092425  0.63184984  1
  O  O310  1  0.00572474  0.50456397  0.11007754  1
  O  O311  1  0.00798033  0.51073421  0.62709758  1
  O  O312  1  0.53618690  0.00969567  0.12719938  1
  O  O313  1  0.49831607  0.01943829  0.61782176  1
  O  O314  1  0.50519746  0.48984162  0.09278019  1
  O  O315  1  0.51247548  0.50918427  0.61385700  1
  O  O316  1  0.25365559  0.38548184  0.23870682  1
  O  O317  1  0.24356999  0.38460848  0.75619086  1
  O  O318  1  0.24537148  0.90433708  0.28095807  1
  O  O319  1  0.24266779  0.87010126  0.74563067  1
  O  O320  1  0.75537343  0.39400253  0.23416638  1
  O  O321  1  0.79465917  0.33920855  0.66320547  1
  O  O322  1  0.76335885  0.85408134  0.23367975  1
  O  O323  1  0.73704352  0.86312297  0.73551488  1
  O  O324  1  0.27213804  0.11570736  0.26289930  1
  O  O325  1  0.26928159  0.13493921  0.73958147  1
  O  O326  1  0.24234561  0.59995737  0.26035550  1
  O  O327  1  0.25481589  0.61295692  0.75698166  1
  O  O328  1  0.76961374  0.21452320  0.28167873  1
  O  O329  1  0.75125195  0.12588420  0.74196883  1
  O  O330  1  0.74167839  0.62523902  0.26461646  1
  O  O331  1  0.76846936  0.62795501  0.75925188  1
  O  O332  1  0.38031694  0.11734333  0.36928409  1
  O  O333  1  0.38540513  0.13888419  0.84957999  1
  O  O334  1  0.37386208  0.59728709  0.37682505  1
  O  O335  1  0.36650871  0.60910526  0.85836580  1
  O  O336  1  0.84289531  0.10982468  0.38813345  1
  O  O337  1  0.85260806  0.10475383  0.86559835  1
  O  O338  1  0.85994575  0.64633502  0.38086888  1
  O  O339  1  0.87407014  0.62089558  0.87000422  1
  O  O340  1  0.14608241  0.37709168  0.11233938  1
  O  O341  1  0.11313368  0.38661524  0.63534163  1
  O  O342  1  -0.01237096  0.90076167  0.20891092  1
  O  O343  1  0.14430815  0.86411018  0.63678321  1
  O  O344  1  0.63308693  0.38773336  0.10848971  1
  O  O345  1  0.62644781  0.39577427  0.62143984  1
  O  O346  1  0.63059126  0.87307667  0.14595031  1
  O  O347  1  0.63616405  0.87074440  0.63374934  1
  O  O348  1  0.10340533  0.24955152  0.25612376  1
  O  O349  1  0.14193818  0.26554634  0.75737748  1
  O  O350  1  0.15950783  0.75744289  0.27791956  1
  O  O351  1  0.11991949  0.74939684  0.75878833  1
  O  O352  1  0.61010774  0.28288337  0.24214919  1
  O  O353  1  0.61738467  0.25703136  0.73467637  1
  O  O354  1  0.62250840  0.76748118  0.26860412  1
  O  O355  1  0.61919299  0.74551518  0.75730323  1
  O  O356  1  0.38440566  0.24000849  0.25274196  1
  O  O357  1  0.38935565  0.24942038  0.73428328  1
  O  O358  1  0.35451082  0.80794909  0.20407711  1
  O  O359  1  0.37329129  0.73720146  0.74356588  1
  O  O360  1  0.89721640  0.26756644  0.23402455  1
  O  O361  1  0.85477400  0.24368939  0.76999125  1
  O  O362  1  0.86501919  0.72404101  0.22414019  1
  O  O363  1  0.88609404  0.74256462  0.74232285  1
  O  O364  1  0.39275387  0.48561675  0.50367300  1
  O  O365  1  0.37121580  0.50084672  0.97757595  1
  O  O366  1  0.38600972  0.99369510  0.50293877  1
  O  O367  1  0.38451525  1.02553477  0.98397997  1
  O  O368  1  0.85189556  0.49813643  0.48382968  1
  O  O369  1  0.89242966  0.49583915  0.99128690  1
  O  O370  1  0.87493681  0.98589750  0.50763940  1
  O  O371  1  0.86818176  0.98691552  0.97446990  1
  O  O372  1  0.09746209  -0.00079547  0.01313649  1
  O  O373  1  0.14384468  0.01378690  0.50797343  1
  O  O374  1  0.12161692  0.50768584  -0.01445518  1
  O  O375  1  0.12987024  0.49140155  0.51487606  1
  O  O376  1  0.65592628  0.02758637  0.02219744  1
  O  O377  1  0.61169069  -0.00080388  0.50107509  1
  O  O378  1  0.62273903  0.49716720  -0.02267262  1
  O  O379  1  0.61621664  0.51493042  0.49829152  1
  O  O380  1  0.34783870  0.41348316  0.10926664  1
  O  O381  1  0.38610486  0.36722283  0.61211645  1
  O  O382  1  0.41355846  0.89309861  0.04967428  1
  O  O383  1  0.35596505  0.86475342  0.62629297  1
  O  O384  1  0.89638230  0.38696771  0.11244496  1
  O  O385  1  0.85563204  0.37773142  0.62549338  1
  O  O386  1  0.85822393  0.87483210  0.10526853  1
  O  O387  1  0.86258255  0.86272223  0.63336054  1
  O  O388  1  0.15673737  0.13023130  0.38973792  1
  O  O389  1  0.14726195  0.09123652  0.89043096  1
  O  O390  1  0.14107031  0.62605387  0.37755305  1
  O  O391  1  0.13365554  0.62825346  0.87357329  1
  O  O392  1  0.63364685  0.11678260  0.39517009  1
  O  O393  1  0.63349483  0.12820239  0.88106262  1
  O  O394  1  0.62300192  0.64460479  0.38171880  1
  O  O395  1  0.64088440  0.63126349  0.86278862  1
