# generated using pymatgen
data_V35Zn35O128
_symmetry_space_group_name_H-M   'P 1'
_cell_length_a   16.84947603
_cell_length_b   16.85342125
_cell_length_c   16.85324279
_cell_angle_alpha   90.05429970
_cell_angle_beta   90.10679855
_cell_angle_gamma   89.95519151
_symmetry_Int_Tables_number   1
_chemical_formula_structural   V35Zn35O128
_chemical_formula_sum   'V70 Zn70 O256'
_cell_volume   4785.82563723
_cell_formula_units_Z   2
loop_
 _symmetry_equiv_pos_site_id
 _symmetry_equiv_pos_as_xyz
  1  'x, y, z'
loop_
 _atom_site_type_symbol
 _atom_site_label
 _atom_site_symmetry_multiplicity
 _atom_site_fract_x
 _atom_site_fract_y
 _atom_site_fract_z
 _atom_site_occupancy
  V  V0  1  0.87345460  0.37173326  0.48205481  1
  V  V1  1  0.49193110  0.00364312  0.49906818  1
  V  V2  1  0.11937018  -0.00791507  0.15347923  1
  V  V3  1  -0.00670940  0.64527277  0.12485529  1
  V  V4  1  0.00092558  0.12144387  0.62308378  1
  V  V5  1  0.25115915  0.78048699  0.00649985  1
  V  V6  1  0.87377268  0.24749687  0.62051854  1
  V  V7  1  0.36689711  0.12751110  0.75910432  1
  V  V8  1  0.11935951  0.50283194  0.13490791  1
  V  V9  1  0.36055449  0.25546271  0.13913004  1
  V  V10  1  0.27024383  -0.01490888  0.25397754  1
  V  V11  1  0.37995639  -0.01402024  0.88650980  1
  V  V12  1  0.63869281  0.61317990  -0.01716714  1
  V  V13  1  0.50062166  0.25126728  0.76150304  1
  V  V14  1  0.75341062  0.62545404  0.37739241  1
  V  V15  1  0.63349519  0.15481490  -0.04442395  1
  V  V16  1  0.11563203  0.75498706  0.36732400  1
  V  V17  1  0.62303738  0.87334684  0.24060195  1
  V  V18  1  0.74510862  0.37432254  0.62746528  1
  V  V19  1  0.86158631  0.85367858  -0.00266314  1
  V  V20  1  0.26551675  0.50134252  0.25033173  1
  V  V21  1  0.62524925  0.11873051  0.49507815  1
  V  V22  1  0.12523700  0.75060925  0.86218717  1
  V  V23  1  0.87431039  0.12540399  0.23294561  1
  V  V24  1  0.86735871  0.87077210  0.49085244  1
  V  V25  1  0.87416954  0.11483669  0.75402949  1
  V  V26  1  0.11215597  0.62113768  0.50355813  1
  V  V27  1  -0.00914146  -0.00043924  0.48106065  1
  V  V28  1  0.87214115  0.00188026  0.87852123  1
  V  V29  1  0.63636092  0.75112330  0.38670241  1
  V  V30  1  0.01094964  0.87582832  0.86748658  1
  V  V31  1  0.87714154  0.49633188  0.87783779  1
  V  V32  1  0.49506464  0.50521701  0.02280171  1
  V  V33  1  0.72928486  0.48961123  0.24049538  1
  V  V34  1  0.50311634  0.12385220  0.62583407  1
  V  V35  1  0.24417812  0.00251910  0.75366846  1
  V  V36  1  0.12222361  0.38009107  0.25229903  1
  V  V37  1  0.26062079  0.12594175  0.36284787  1
  V  V38  1  0.24893712  0.86878005  0.62651218  1
  V  V39  1  0.62773438  0.36992855  0.75736090  1
  V  V40  1  0.00317010  0.00593499  0.01422686  1
  V  V41  1  0.49838888  0.87764808  0.37551557  1
  V  V42  1  0.49302160  0.38991269  0.88054165  1
  V  V43  1  -0.00915903  0.25612913  0.24707033  1
  V  V44  1  0.25013885  0.37522132  0.60145310  1
  V  V45  1  0.36936332  0.86798704  0.49992181  1
  V  V46  1  -0.00164463  0.49586279  -0.00319395  1
  V  V47  1  0.61328227  0.01276479  0.11721672  1
  V  V48  1  0.11529731  0.48775112  0.62465887  1
  V  V49  1  0.27048892  0.48768944  0.80169853  1
  V  V50  1  0.52054956  0.24602955  0.25701888  1
  V  V51  1  0.36568775  0.75190812  0.13498629  1
  V  V52  1  0.74764113  0.87350988  0.62615936  1
  V  V53  1  0.75192635  -0.00533600  0.24365874  1
  V  V54  1  0.26611025  0.62067346  0.37846209  1
  V  V55  1  0.36814707  0.25287187  0.61068360  1
  V  V56  1  0.74575189  0.51142825  0.75633448  1
  V  V57  1  0.12621394  -0.00218290  0.61949275  1
  V  V58  1  0.12605382  0.25614113  0.37819406  1
  V  V59  1  0.13336447  0.63583358  0.00514405  1
  V  V60  1  -0.01352729  0.49024034  0.48378913  1
  V  V61  1  0.87764832  0.60797094  0.24541777  1
  V  V62  1  0.48868615  0.39676943  0.37629026  1
  V  V63  1  0.74320898  0.24554450  0.49263582  1
  V  V64  1  0.49660301  0.73481589  0.24925851  1
  V  V65  1  0.13350683  0.12706996  0.49547282  1
  V  V66  1  0.38897938  0.64943580  0.75754388  1
  V  V67  1  0.75389562  0.12158082  0.37211562  1
  V  V68  1  0.00257522  0.26520689  0.75197656  1
  V  V69  1  0.90043119  0.62808751  0.74729251  1
  Zn  Zn70  1  0.15292602  0.33630971  0.81200080  1
  Zn  Zn71  1  0.73062487  0.00218588  0.74570038  1
  Zn  Zn72  1  0.51867262  0.86193092  0.81823326  1
  Zn  Zn73  1  0.56359946  0.54424656  0.50530129  1
  Zn  Zn74  1  0.20391307  0.16781292  -0.07959381  1
  Zn  Zn75  1  0.25192346  0.73561996  0.50791267  1
  Zn  Zn76  1  0.16998147  0.18323564  0.18609600  1
  Zn  Zn77  1  0.18549667  0.19137065  0.68676847  1
  Zn  Zn78  1  0.19104603  0.69038870  0.19180634  1
  Zn  Zn79  1  0.20393977  0.65611974  0.69839256  1
  Zn  Zn80  1  0.68451771  0.19204900  0.17667100  1
  Zn  Zn81  1  0.68704434  0.18439172  0.69378746  1
  Zn  Zn82  1  0.68626975  0.68223946  0.19676889  1
  Zn  Zn83  1  0.88608850  0.73386022  0.61912981  1
  Zn  Zn84  1  0.31478128  0.31929901  0.32121563  1
  Zn  Zn85  1  0.31644504  0.30669250  0.82263501  1
  Zn  Zn86  1  0.30878810  0.80446022  0.32215670  1
  Zn  Zn87  1  0.30467197  0.80906744  0.81611847  1
  Zn  Zn88  1  0.79995765  0.30858537  0.30167499  1
  Zn  Zn89  1  0.83215188  0.31910833  0.80709530  1
  Zn  Zn90  1  0.82397919  0.81875065  0.31155001  1
  Zn  Zn91  1  0.82488289  0.81940908  0.79912218  1
  Zn  Zn92  1  0.18949326  0.44320176  0.43405884  1
  Zn  Zn93  1  0.18775326  0.44023186  0.95626641  1
  Zn  Zn94  1  0.18600498  0.94205518  0.42949036  1
  Zn  Zn95  1  0.21464659  0.98676757  0.97450133  1
  Zn  Zn96  1  0.69288401  0.44780392  0.44377345  1
  Zn  Zn97  1  0.68232702  0.43414635  0.94101625  1
  Zn  Zn98  1  0.68435182  0.94011045  0.43692723  1
  Zn  Zn99  1  0.69081572  0.94070437  0.93478449  1
  Zn  Zn100  1  0.28629061  0.10112325  0.09551834  1
  Zn  Zn101  1  0.31530243  0.06245973  0.56114385  1
  Zn  Zn102  1  0.31663175  0.56386519  0.07169247  1
  Zn  Zn103  1  0.30980567  0.56683242  0.58224049  1
  Zn  Zn104  1  0.79973282  0.06590939  0.05456326  1
  Zn  Zn105  1  0.81166859  0.04622714  0.57000806  1
  Zn  Zn106  1  0.80927738  0.55582813  0.06395074  1
  Zn  Zn107  1  0.77791645  0.56810315  0.57054532  1
  Zn  Zn108  1  0.44544684  0.40840331  0.17751458  1
  Zn  Zn109  1  0.42749341  0.43706020  0.69666607  1
  Zn  Zn110  1  0.43888584  0.93097111  0.17700601  1
  Zn  Zn111  1  0.43047072  0.94230160  0.68909681  1
  Zn  Zn112  1  0.92745644  0.43622234  0.18471794  1
  Zn  Zn113  1  0.92954985  0.44949475  0.67609375  1
  Zn  Zn114  1  0.92695120  0.91883425  0.18275165  1
  Zn  Zn115  1  0.95261434  0.89715352  0.66669638  1
  Zn  Zn116  1  0.06215651  0.07168140  0.30847622  1
  Zn  Zn117  1  0.06251849  0.05586337  0.81130517  1
  Zn  Zn118  1  0.06003597  0.57567490  0.31581418  1
  Zn  Zn119  1  0.08997807  0.54197335  0.82258828  1
  Zn  Zn120  1  0.56296155  0.06216568  0.31059091  1
  Zn  Zn121  1  0.54897130  0.07251693  0.83966138  1
  Zn  Zn122  1  0.56310895  0.55609212  0.31630214  1
  Zn  Zn123  1  0.56177242  0.56979967  0.80500288  1
  Zn  Zn124  1  0.44441695  0.19761484  0.42771592  1
  Zn  Zn125  1  0.45978370  0.08874967  1.04120680  1
  Zn  Zn126  1  0.44861168  0.68960512  0.44635774  1
  Zn  Zn127  1  0.43158840  0.67948153  0.94641396  1
  Zn  Zn128  1  0.93781088  0.18250193  0.43028502  1
  Zn  Zn129  1  1.00141522  0.17028229  0.91988566  1
  Zn  Zn130  1  0.93292050  0.68571051  0.43492586  1
  Zn  Zn131  1  0.93992068  0.68174955  0.92635819  1
  Zn  Zn132  1  0.01189260  0.32541332  0.08032841  1
  Zn  Zn133  1  0.05658344  0.31274370  0.55756435  1
  Zn  Zn134  1  0.05756289  0.82659537  0.06026039  1
  Zn  Zn135  1  0.05819105  0.81163741  0.55355561  1
  Zn  Zn136  1  0.51453638  0.28102104  0.04160385  1
  Zn  Zn137  1  0.56459356  0.30447537  0.57282211  1
  Zn  Zn138  1  0.55615701  0.79983516  0.06540995  1
  Zn  Zn139  1  0.54063345  0.84325386  0.60384553  1
  O  O140  1  0.11616551  0.09678989  0.13595515  1
  O  O141  1  0.12047635  0.12077234  0.61483445  1
  O  O142  1  0.11142241  0.62612567  0.12547491  1
  O  O143  1  0.13512762  0.60159967  0.61081014  1
  O  O144  1  0.62023645  0.11513502  0.11809750  1
  O  O145  1  0.60881273  0.13033773  0.62094682  1
  O  O146  1  0.63082300  0.65426680  0.09760060  1
  O  O147  1  0.61451669  0.68504539  0.63768216  1
  O  O148  1  0.38733654  0.38586363  0.38422005  1
  O  O149  1  0.39504776  0.37182319  0.87138258  1
  O  O150  1  0.38587994  0.86804939  0.38908656  1
  O  O151  1  0.35991523  0.88716259  0.87872951  1
  O  O152  1  0.86428877  0.36598339  0.38381259  1
  O  O153  1  0.89052140  0.39672041  0.86712559  1
  O  O154  1  0.86350231  0.89234619  0.39267635  1
  O  O155  1  0.88686132  0.88570528  0.87583759  1
  O  O156  1  0.24808465  0.01313294  0.36388424  1
  O  O157  1  0.25455694  -0.00293954  0.85552514  1
  O  O158  1  0.25298752  0.51026319  0.36537986  1
  O  O159  1  0.28080364  0.48166646  0.90288795  1
  O  O160  1  0.73486814  0.01237013  0.35561005  1
  O  O161  1  0.77118034  0.00036611  0.86567906  1
  O  O162  1  0.74261605  0.51870094  0.36187553  1
  O  O163  1  0.76423047  0.48759897  0.86624268  1
  O  O164  1  0.23291403  0.51421348  0.14274581  1
  O  O165  1  0.23612030  0.48074631  0.62070352  1
  O  O166  1  0.23713350  1.00308447  0.15059216  1
  O  O167  1  0.24083294  0.99832612  0.62724627  1
  O  O168  1  0.76224711  0.49015108  0.14332768  1
  O  O169  1  0.76790579  0.48110825  0.64977534  1
  O  O170  1  0.73577454  1.00740801  0.14031613  1
  O  O171  1  0.73299315  0.99883283  0.63030055  1
  O  O172  1  0.00413468  0.36208814  0.25726762  1
  O  O173  1  -0.01466772  0.36178456  0.73164534  1
  O  O174  1  -0.07747110  0.83453159  0.25530318  1
  O  O175  1  0.00228077  0.89001396  0.76859648  1
  O  O176  1  0.50825134  0.40076695  0.27627225  1
  O  O177  1  0.50790877  0.37212182  0.75239673  1
  O  O178  1  0.50492451  0.86826762  0.26124620  1
  O  O179  1  0.49894250  0.85701868  0.70784982  1
  O  O180  1  0.50509063  0.14570385  0.25960609  1
  O  O181  1  0.48689330  0.13062309  0.74370970  1
  O  O182  1  0.49693658  0.63784652  0.26859177  1
  O  O183  1  0.48690269  0.62340727  0.73839055  1
  O  O184  1  0.97796479  0.12793271  0.25203362  1
  O  O185  1  0.99586584  0.13344661  0.73567252  1
  O  O186  1  0.98700313  0.62712397  0.23848408  1
  O  O187  1  0.99859717  0.61481557  0.75038359  1
  O  O188  1  0.41313448  0.22072586  0.04075418  1
  O  O189  1  0.37981879  0.25155235  0.51275593  1
  O  O190  1  0.35070498  0.74964845  0.00184495  1
  O  O191  1  0.37246928  0.76453096  0.50521429  1
  O  O192  1  0.84670713  0.24181841  -0.03719826  1
  O  O193  1  0.86844114  0.25014598  0.50334893  1
  O  O194  1  0.87929306  0.75430170  -0.01013477  1
  O  O195  1  0.88022434  0.76766051  0.49721613  1
  O  O196  1  0.11732502  0.24179032  0.48594290  1
  O  O197  1  0.13834304  0.28606845  1.01924322  1
  O  O198  1  0.12523627  0.72870360  0.50589213  1
  O  O199  1  0.13577675  0.74686043  1.01203931  1
  O  O200  1  0.63737166  0.23398761  0.51220724  1
  O  O201  1  0.61293241  0.24708250  0.99613965  1
  O  O202  1  0.63608138  0.75923760  0.48227749  1
  O  O203  1  0.63890415  0.71709495  1.03841336  1
  O  O204  1  0.49368289  0.28715437  0.15927932  1
  O  O205  1  0.48435303  0.24633781  0.63359294  1
  O  O206  1  0.49619496  0.74085316  0.14591515  1
  O  O207  1  0.54909913  0.70570036  0.61162351  1
  O  O208  1  1.01923839  0.23663331  0.15110525  1
  O  O209  1  0.99077117  0.23987413  0.62198879  1
  O  O210  1  0.99816068  0.74352216  0.12141542  1
  O  O211  1  0.98450560  0.78925904  0.63460603  1
  O  O212  1  0.01539707  0.23727370  0.36067453  1
  O  O213  1  -0.00820115  0.26110422  0.85324438  1
  O  O214  1  0.01647582  0.73905394  0.38060401  1
  O  O215  1  0.01398039  0.76172443  0.87723373  1
  O  O216  1  0.49622593  0.27349256  0.36099840  1
  O  O217  1  0.49961478  0.26122023  0.86060222  1
  O  O218  1  0.51239990  0.75891254  0.37236946  1
  O  O219  1  0.50327173  0.78305732  0.90700173  1
  O  O220  1  0.23814136  0.11737433  0.49016241  1
  O  O221  1  0.24601878  0.09359506  0.99085912  1
  O  O222  1  0.24520869  0.61449972  0.49305271  1
  O  O223  1  0.23285860  0.62563506  1.01156033  1
  O  O224  1  0.74497285  0.12578075  0.49305428  1
  O  O225  1  0.72449762  0.11891661  0.98941768  1
  O  O226  1  0.78034774  0.63170333  0.47344434  1
  O  O227  1  0.73987662  0.60366010  0.98847444  1
  O  O228  1  0.19538157  0.33569256  0.02126898  1
  O  O229  1  0.25749943  0.37618930  0.50248224  1
  O  O230  1  0.24636819  0.87906881  0.00531460  1
  O  O231  1  0.26118455  0.88019385  0.50254284  1
  O  O232  1  0.74968962  0.36670715  0.01765992  1
  O  O233  1  0.75587626  0.36375147  0.50697356  1
  O  O234  1  0.76262910  0.86074380  -0.03094043  1
  O  O235  1  0.75964608  0.88791470  0.50436727  1
  O  O236  1  0.11755162  0.49728793  0.25006204  1
  O  O237  1  0.09440534  0.48354595  0.71933486  1
  O  O238  1  0.11788203  0.98696258  0.25572203  1
  O  O239  1  0.13662064  1.00754046  0.73620083  1
  O  O240  1  0.63196326  0.51688457  0.23539008  1
  O  O241  1  0.63963492  0.48812601  0.75510392  1
  O  O242  1  0.62571415  0.99344949  0.23774598  1
  O  O243  1  0.62244831  0.98788179  0.79157347  1
  O  O244  1  0.36975268  -0.00548817  0.24482461  1
  O  O245  1  0.35787179  0.01405400  0.73903286  1
  O  O246  1  0.36143302  0.49040332  0.23567510  1
  O  O247  1  0.36297287  0.51006916  0.75746539  1
  O  O248  1  0.85804887  0.01039635  0.24190987  1
  O  O249  1  0.88662125  0.01212392  0.75493500  1
  O  O250  1  0.87706955  0.50715347  0.25776581  1
  O  O251  1  0.87062043  0.50866164  0.75876616  1
  O  O252  1  0.12704121  0.36237287  0.37322288  1
  O  O253  1  0.12914020  0.43352703  0.86071049  1
  O  O254  1  0.12867497  0.85222863  0.39499442  1
  O  O255  1  0.11596614  0.86378907  0.87654499  1
  O  O256  1  0.60177367  0.37107043  0.42174410  1
  O  O257  1  0.61805030  0.37216925  0.86309275  1
  O  O258  1  0.62022341  0.86726852  0.36536808  1
  O  O259  1  0.62258836  0.91925538  0.84185954  1
  O  O260  1  0.39440274  0.13122922  0.12673271  1
  O  O261  1  0.37768875  0.13814425  0.62798928  1
  O  O262  1  0.37395996  0.65033033  0.11994940  1
  O  O263  1  0.31661653  0.63480509  0.67330588  1
  O  O264  1  0.86113591  0.12823489  0.13406731  1
  O  O265  1  0.88336153  0.12865826  0.62921583  1
  O  O266  1  0.88589428  0.61810916  0.13201811  1
  O  O267  1  0.86687890  0.61957990  0.64156854  1
  O  O268  1  0.26106369  0.22152703  0.12629565  1
  O  O269  1  0.25754648  0.25960370  0.62442229  1
  O  O270  1  0.25610448  0.75914623  0.12246326  1
  O  O271  1  0.23851090  0.76853799  0.62412230  1
  O  O272  1  0.75165273  0.27326494  0.11131476  1
  O  O273  1  0.75850137  0.25049450  0.61674683  1
  O  O274  1  0.78352728  0.74669235  0.15524338  1
  O  O275  1  0.77753535  0.77611113  0.62633747  1
  O  O276  1  0.23557559  0.24091997  0.36926266  1
  O  O277  1  0.22540051  0.26257699  0.86738886  1
  O  O278  1  0.24112805  0.73306897  0.38410749  1
  O  O279  1  0.23155772  0.76110977  0.89520718  1
  O  O280  1  0.74887047  0.24050823  0.38616810  1
  O  O281  1  0.79617444  0.25306438  0.90955024  1
  O  O282  1  0.74226160  0.74539515  0.35669262  1
  O  O283  1  0.71317634  0.75938901  0.84708229  1
  O  O284  1  -0.01533453  0.10634678  0.01024939  1
  O  O285  1  0.00989072  0.12025883  0.50508579  1
  O  O286  1  0.00630033  0.62523513  0.01465220  1
  O  O287  1  0.00606812  0.61273708  0.50043785  1
  O  O288  1  0.54282836  0.09996591  -0.03708203  1
  O  O289  1  0.50439345  0.12370304  0.50255305  1
  O  O290  1  0.50942468  0.61150352  0.00011894  1
  O  O291  1  0.50078747  0.63458990  0.52709837  1
  O  O292  1  0.54170138  0.37826360  0.48397836  1
  O  O293  1  0.50798542  0.38911531  0.98689440  1
  O  O294  1  0.48901863  0.88201742  0.50303206  1
  O  O295  1  0.51498914  0.83985262  0.96676883  1
  O  O296  1  0.98843352  0.37943256  0.49116398  1
  O  O297  1  1.01730786  0.39767704  0.99263952  1
  O  O298  1  0.98641600  0.89448841  0.49915818  1
  O  O299  1  0.98462355  0.88382561  0.98881180  1
  O  O300  1  0.51332713  0.50163269  0.40181133  1
  O  O301  1  0.50237451  0.49012880  0.86923987  1
  O  O302  1  0.50691003  0.98586843  0.38252597  1
  O  O303  1  0.47571012  0.98131508  0.84508579  1
  O  O304  1  0.99681243  0.50584246  0.38513741  1
  O  O305  1  0.99449913  0.51727632  0.89225449  1
  O  O306  1  1.00486695  1.00618381  0.38327369  1
  O  O307  1  0.99582267  0.99194965  0.88659007  1
  O  O308  1  -0.00060511  -0.01307038  0.12205585  1
  O  O309  1  0.01115002  0.00779219  0.61913776  1
  O  O310  1  0.00541699  0.51081505  0.11691042  1
  O  O311  1  0.00799325  0.48862707  0.60003444  1
  O  O312  1  0.50864803  0.00208762  0.12008824  1
  O  O313  1  0.48856907  0.01622283  0.61463881  1
  O  O314  1  0.50674457  0.49008042  0.12088265  1
  O  O315  1  0.46327261  0.48962221  0.59171262  1
  O  O316  1  0.23527472  0.39365943  0.26171967  1
  O  O317  1  0.25292574  0.39057393  0.75778997  1
  O  O318  1  0.25471618  0.88621430  0.26402375  1
  O  O319  1  0.25351250  0.88934075  0.73364148  1
  O  O320  1  0.73389357  0.39070265  0.26663364  1
  O  O321  1  0.74452725  0.36270713  0.74500309  1
  O  O322  1  0.74004351  0.88990661  0.25409817  1
  O  O323  1  0.76519021  0.88878148  0.73390042  1
  O  O324  1  0.24783194  0.11835053  0.26094932  1
  O  O325  1  0.25662613  0.11818271  0.74315400  1
  O  O326  1  0.24881726  0.61452488  0.26577295  1
  O  O327  1  0.20618459  0.56800982  0.78162822  1
  O  O328  1  0.75455886  0.12552911  0.25276906  1
  O  O329  1  0.77014649  0.12340599  0.74501432  1
  O  O330  1  0.76157905  0.61136423  0.24955613  1
  O  O331  1  0.74194086  0.60750657  0.75036246  1
  O  O332  1  0.35852320  0.13546796  0.38171018  1
  O  O333  1  0.37275716  0.11111334  0.85708446  1
  O  O334  1  0.36465072  0.63274397  0.38594298  1
  O  O335  1  0.37195057  0.63579954  0.85832292  1
  O  O336  1  0.85924943  0.12709795  0.36349605  1
  O  O337  1  0.89279339  0.11400893  0.86112419  1
  O  O338  1  0.86662760  0.64486544  0.34767754  1
  O  O339  1  0.87778548  0.61136472  0.85934884  1
  O  O340  1  0.11154934  0.39150239  0.14298230  1
  O  O341  1  0.13756593  0.37556896  0.60973843  1
  O  O342  1  0.12283386  0.89180047  0.12525869  1
  O  O343  1  0.13798291  0.88893832  0.60737655  1
  O  O344  1  0.71127494  0.33333528  0.07845043  1
  O  O345  1  0.63908281  0.37256028  0.63350654  1
  O  O346  1  0.61390248  0.87279974  0.13832326  1
  O  O347  1  0.64782489  0.86584187  0.61208003  1
  O  O348  1  0.12074457  0.26034020  0.26011957  1
  O  O349  1  0.10780978  0.25815997  0.73681983  1
  O  O350  1  0.12810754  0.74607983  0.26712169  1
  O  O351  1  0.14266226  0.73337354  0.76599667  1
  O  O352  1  0.62167795  0.25346462  0.25117299  1
  O  O353  1  0.61201049  0.26041169  0.73699385  1
  O  O354  1  0.61262763  0.75457310  0.25383824  1
  O  O355  1  0.65715553  0.76024123  0.79922523  1
  O  O356  1  0.37241299  0.25544849  0.24435603  1
  O  O357  1  0.37796858  0.23795486  0.74691358  1
  O  O358  1  0.38356412  0.75586323  0.24592630  1
  O  O359  1  0.38160057  0.75269887  0.75584045  1
  O  O360  1  0.88173338  0.24245954  0.25137305  1
  O  O361  1  0.88317841  0.23857672  0.73773089  1
  O  O362  1  0.84063141  0.74154972  0.20697027  1
  O  O363  1  0.88110987  0.73009853  0.75975236  1
  O  O364  1  0.40130669  0.50077394  0.54285142  1
  O  O365  1  0.39325490  0.50444431  1.01385364  1
  O  O366  1  0.38480431  0.99447200  0.49600431  1
  O  O367  1  0.39017089  1.00651804  0.98372513  1
  O  O368  1  0.88159159  0.48670429  0.50198586  1
  O  O369  1  0.88702362  0.50446682  0.99068632  1
  O  O370  1  0.89093654  1.01977530  0.49142795  1
  O  O371  1  0.87498832  1.00023347  0.98603434  1
  O  O372  1  0.10308053  -0.00511282  0.00433092  1
  O  O373  1  0.11556520  0.00938471  0.50192738  1
  O  O374  1  0.11784020  0.51804305  0.01468223  1
  O  O375  1  0.11166437  0.50281754  0.49709714  1
  O  O376  1  0.63475259  -0.02107343  0.02434598  1
  O  O377  1  0.60945354  0.00934768  0.49921206  1
  O  O378  1  0.61554139  0.50757045  -0.00202012  1
  O  O379  1  0.67089034  0.52179341  0.52799655  1
  O  O380  1  0.35709331  0.35508330  0.11805108  1
  O  O381  1  0.36103408  0.36186849  0.63149864  1
  O  O382  1  0.39645607  0.84882805  0.11112791  1
  O  O383  1  0.35789897  0.88485833  0.61089719  1
  O  O384  1  0.90804318  0.35688137  0.11298719  1
  O  O385  1  0.86674958  0.36060420  0.61568138  1
  O  O386  1  0.86209691  0.88061045  0.09463679  1
  O  O387  1  0.86259170  0.90901961  0.59986803  1
  O  O388  1  0.13415557  0.13439290  0.37807157  1
  O  O389  1  0.10255033  0.13401692  0.88069432  1
  O  O390  1  0.13249836  0.62784490  0.39116402  1
  O  O391  1  0.11467340  0.64185033  0.89878397  1
  O  O392  1  0.63140764  0.12403182  0.38790655  1
  O  O393  1  0.63836400  0.15064175  0.85234151  1
  O  O394  1  0.64056577  0.63978118  0.37287112  1
  O  O395  1  0.61951938  0.63051229  0.88421137  1
