# generated using pymatgen
data_V35Zn35O128
_symmetry_space_group_name_H-M   'P 1'
_cell_length_a   16.81290508
_cell_length_b   16.89813636
_cell_length_c   16.86485713
_cell_angle_alpha   90.17333181
_cell_angle_beta   89.96684693
_cell_angle_gamma   90.03860753
_symmetry_Int_Tables_number   1
_chemical_formula_structural   V35Zn35O128
_chemical_formula_sum   'V70 Zn70 O256'
_cell_volume   4791.39614996
_cell_formula_units_Z   2
loop_
 _symmetry_equiv_pos_site_id
 _symmetry_equiv_pos_as_xyz
  1  'x, y, z'
loop_
 _atom_site_type_symbol
 _atom_site_label
 _atom_site_symmetry_multiplicity
 _atom_site_fract_x
 _atom_site_fract_y
 _atom_site_fract_z
 _atom_site_occupancy
  V  V0  1  0.36613368  0.76534217  0.11372469  1
  V  V1  1  0.50991437  0.48591571  0.02268022  1
  V  V2  1  0.24494398  0.27487321  0.00634258  1
  V  V3  1  -0.00501693  0.50357234  0.00223926  1
  V  V4  1  0.26025532  0.62396829  0.38883281  1
  V  V5  1  0.86249905  0.86981310  0.50667507  1
  V  V6  1  0.50482035  0.74955908  0.25503126  1
  V  V7  1  0.14562192  0.63002218  0.00063034  1
  V  V8  1  0.75703040  0.10055041  0.88350086  1
  V  V9  1  0.64078406  0.48981034  0.62467329  1
  V  V10  1  0.38598311  0.12839495  0.76017784  1
  V  V11  1  0.87722890  0.75319216  0.11849581  1
  V  V12  1  0.13338096  0.74675472  0.87462259  1
  V  V13  1  0.38191097  0.10428088  0.27191568  1
  V  V14  1  0.88648486  0.26180348  0.12506761  1
  V  V15  1  0.49896942  -0.01539821  0.00282961  1
  V  V16  1  0.36986660  0.86915688  0.49343596  1
  V  V17  1  0.63747989  0.25751687  0.37684831  1
  V  V18  1  0.62049429  0.61979001  0.02204558  1
  V  V19  1  0.87500212  0.50480357  0.86258364  1
  V  V20  1  0.39744700  0.49571785  0.88073714  1
  V  V21  1  0.86434936  0.36275049  0.50852149  1
  V  V22  1  0.87007954  0.88773955  -0.00616889  1
  V  V23  1  0.12339142  0.38432969  0.73708832  1
  V  V24  1  0.75137036  0.74670805  0.00068625  1
  V  V25  1  0.38419798  0.24591470  0.62005904  1
  V  V26  1  0.25377966  0.49523732  0.25349673  1
  V  V27  1  0.24407002  0.22391900  0.50012220  1
  V  V28  1  0.49487378  0.65833961  0.64578612  1
  V  V29  1  -0.01002667  0.87614996  0.86613483  1
  V  V30  1  0.63204037  0.12994283  0.50554057  1
  V  V31  1  0.60160085  0.74346315  0.87808351  1
  V  V32  1  0.73861165  0.88693671  0.12669319  1
  V  V33  1  0.13311153  0.49191135  0.12849187  1
  V  V34  1  0.00190435  0.62907140  0.12199938  1
  V  V35  1  0.02202960  0.12586589  0.61810905  1
  V  V36  1  0.12936403  0.23969286  0.86918024  1
  V  V37  1  -0.00127383  0.37137252  0.88179254  1
  V  V38  1  0.12345345  0.86844894  0.73871300  1
  V  V39  1  0.49724632  0.00034616  0.49017114  1
  V  V40  1  0.75616081  0.49089343  0.22516871  1
  V  V41  1  0.38102893  0.62495516  0.22920013  1
  V  V42  1  0.75119742  0.11760148  0.35893625  1
  V  V43  1  0.13145870  0.75231413  0.37755362  1
  V  V44  1  0.25656748  0.51302805  0.75157899  1
  V  V45  1  0.13687714  0.25469343  0.35678529  1
  V  V46  1  -0.00262929  0.49637368  0.51139289  1
  V  V47  1  0.61683009  0.12726278  0.00661234  1
  V  V48  1  0.01048554  0.00204863  0.50198736  1
  V  V49  1  0.87660577  0.49293763  0.36996530  1
  V  V50  1  0.00246183  0.87859257  0.37035039  1
  V  V51  1  0.22646703  -0.01948916  0.24282295  1
  V  V52  1  0.23616478  0.01758799  0.74792443  1
  V  V53  1  0.01015861  0.75839003  0.24549010  1
  V  V54  1  0.49578661  0.38272162  0.38516925  1
  V  V55  1  0.75205791  0.62356827  0.86400291  1
  V  V56  1  0.63156513  -0.01061907  0.62950861  1
  V  V57  1  0.25393910  0.38131964  0.61282140  1
  V  V58  1  0.11380968  0.62400618  0.50624275  1
  V  V59  1  0.89547412  0.12377505  0.24017685  1
  V  V60  1  0.49198134  0.24749373  0.24235960  1
  V  V61  1  0.37443443  -0.00900623  0.87926129  1
  V  V62  1  0.01396513  0.00809509  0.00588955  1
  V  V63  1  0.62211742  0.88415183  0.25946922  1
  V  V64  1  0.75325683  0.26218416  0.00188765  1
  V  V65  1  0.61716294  0.85255053  0.74229575  1
  V  V66  1  0.87011388  0.73914828  0.63647551  1
  V  V67  1  0.63531188  0.37433362  0.23577579  1
  V  V68  1  0.50458605  0.26784876  0.76982149  1
  V  V69  1  0.86246104  0.11779238  0.73395891  1
  Zn  Zn70  1  0.74707402  0.63519080  0.38670339  1
  Zn  Zn71  1  0.62263708  0.62877057  0.49777486  1
  Zn  Zn72  1  0.25892305  0.88438000  0.62355692  1
  Zn  Zn73  1  0.86189728  0.64535850  0.26229809  1
  Zn  Zn74  1  0.87203468  -0.00360956  0.36868614  1
  Zn  Zn75  1  -0.00863238  0.25694596  0.72758824  1
  Zn  Zn76  1  0.24479700  0.19097212  0.19390550  1
  Zn  Zn77  1  0.18852690  0.19741930  0.68671836  1
  Zn  Zn78  1  0.19571461  0.68340322  0.19147570  1
  Zn  Zn79  1  0.05314546  0.68366342  0.68184150  1
  Zn  Zn80  1  0.68933250  0.18960397  0.18014275  1
  Zn  Zn81  1  0.65954649  0.15381368  0.71933633  1
  Zn  Zn82  1  0.69865831  0.69411254  0.21019287  1
  Zn  Zn83  1  0.69046939  0.67888475  0.67226081  1
  Zn  Zn84  1  0.31406081  0.31403040  0.32544857  1
  Zn  Zn85  1  0.31347288  0.31953897  0.81246845  1
  Zn  Zn86  1  0.31761205  0.81435853  0.30955228  1
  Zn  Zn87  1  0.30559499  0.82301295  0.81530299  1
  Zn  Zn88  1  0.82249634  0.31009112  0.31123854  1
  Zn  Zn89  1  0.82199028  0.29341538  0.82456734  1
  Zn  Zn90  1  0.81107067  0.81913042  0.31136044  1
  Zn  Zn91  1  0.79671428  0.82198532  0.80329448  1
  Zn  Zn92  1  0.18201533  0.44066061  0.43479691  1
  Zn  Zn93  1  0.18332182  0.44274612  0.92793329  1
  Zn  Zn94  1  0.19718308  0.94603103  0.43216880  1
  Zn  Zn95  1  0.17749619  0.95117854  0.91654058  1
  Zn  Zn96  1  0.69090311  0.44831862  0.44144172  1
  Zn  Zn97  1  0.68773983  0.44095609  0.94048286  1
  Zn  Zn98  1  0.68397033  0.94221809  0.43627646  1
  Zn  Zn99  1  0.67380880  0.93140181  0.93744282  1
  Zn  Zn100  1  0.35075072  0.04939534  0.09334104  1
  Zn  Zn101  1  0.32037418  0.05969066  0.57112306  1
  Zn  Zn102  1  0.32425051  0.43811511  0.06524888  1
  Zn  Zn103  1  0.29221711  0.60468216  0.60114023  1
  Zn  Zn104  1  0.81154955  0.06863600  0.06829531  1
  Zn  Zn105  1  0.80994853  0.05787133  0.54972167  1
  Zn  Zn106  1  0.81420102  0.56329018  0.05998294  1
  Zn  Zn107  1  0.80694002  0.56677020  0.55763855  1
  Zn  Zn108  1  0.44116428  0.43252949  0.20394713  1
  Zn  Zn109  1  0.43240168  0.43786392  0.68805674  1
  Zn  Zn110  1  0.44408614  0.93322994  0.18542702  1
  Zn  Zn111  1  0.44891346  0.94432025  0.68233065  1
  Zn  Zn112  1  0.95192778  0.43103899  0.19631705  1
  Zn  Zn113  1  0.93166439  0.43881021  0.68336493  1
  Zn  Zn114  1  0.93709319  0.94204086  0.18453433  1
  Zn  Zn115  1  0.93320165  0.94187075  0.68307241  1
  Zn  Zn116  1  0.07379617  0.06680529  0.31033839  1
  Zn  Zn117  1  0.04446082  0.05902439  0.80821653  1
  Zn  Zn118  1  0.06069614  0.56551606  0.31243862  1
  Zn  Zn119  1  0.07324918  0.55823296  0.81599037  1
  Zn  Zn120  1  0.56423222  0.06639136  0.30832037  1
  Zn  Zn121  1  0.56278130  0.05958445  0.82331308  1
  Zn  Zn122  1  0.57015839  0.56177513  0.31055415  1
  Zn  Zn123  1  0.56272084  0.56557825  0.80668131  1
  Zn  Zn124  1  0.45029208  0.19401327  0.43808771  1
  Zn  Zn125  1  0.42864592  0.19082967  0.94054609  1
  Zn  Zn126  1  0.44339559  0.69654595  0.44811659  1
  Zn  Zn127  1  0.42198832  0.66503376  0.95288315  1
  Zn  Zn128  1  0.94449490  0.18786413  0.42950898  1
  Zn  Zn129  1  0.93175772  0.18403271  0.94163169  1
  Zn  Zn130  1  0.93258888  0.68808447  0.43849870  1
  Zn  Zn131  1  0.93812646  0.69362600  0.81855668  1
  Zn  Zn132  1  0.06856306  0.30504549  0.06260310  1
  Zn  Zn133  1  0.06135231  0.31118115  0.54776064  1
  Zn  Zn134  1  0.05536961  0.80987514  0.04231319  1
  Zn  Zn135  1  0.05086795  0.81211368  0.55761612  1
  Zn  Zn136  1  0.56467492  0.30315763  0.05944092  1
  Zn  Zn137  1  0.57080706  0.31491609  0.56618745  1
  Zn  Zn138  1  0.55301867  0.80116286  0.07048636  1
  Zn  Zn139  1  0.53355514  0.80838160  0.56284384  1
  O  O140  1  0.14715973  0.11632613  0.11259697  1
  O  O141  1  0.12061923  0.12165531  0.62596671  1
  O  O142  1  0.12317773  0.62520665  0.11504811  1
  O  O143  1  0.12652607  0.63836672  0.60481806  1
  O  O144  1  0.63031484  0.12014551  0.10715187  1
  O  O145  1  0.64135345  0.13767481  0.60494728  1
  O  O146  1  0.63280825  0.63216089  0.11897005  1
  O  O147  1  0.60393934  0.62370981  0.62475088  1
  O  O148  1  0.39505296  0.37728396  0.37313585  1
  O  O149  1  0.35620309  0.40026636  0.87885069  1
  O  O150  1  0.36751418  0.87758701  0.39126032  1
  O  O151  1  0.37892778  0.89090440  0.86501598  1
  O  O152  1  0.87544450  0.38732115  0.38195409  1
  O  O153  1  0.89131156  0.38587084  0.86996255  1
  O  O154  1  0.88621149  0.87307012  0.37890804  1
  O  O155  1  0.88231080  0.86999855  0.87693510  1
  O  O156  1  0.24909606  0.00240026  0.34998684  1
  O  O157  1  0.26207192  -0.00191798  0.85838381  1
  O  O158  1  0.24054621  0.51705384  0.36559372  1
  O  O159  1  0.22736174  0.51370344  0.85008286  1
  O  O160  1  0.75014456  0.01393608  0.36934672  1
  O  O161  1  0.74926060  -0.00010711  0.88457943  1
  O  O162  1  0.76560372  0.50504120  0.36864807  1
  O  O163  1  0.76548080  0.51131050  0.88398941  1
  O  O164  1  0.24130804  0.49855221  0.13512501  1
  O  O165  1  0.26045047  0.48373280  0.63161301  1
  O  O166  1  0.26741668  0.99479620  0.14873992  1
  O  O167  1  0.25231409  1.00383344  0.64614436  1
  O  O168  1  0.76696222  0.48089278  0.12587765  1
  O  O169  1  0.74066846  0.51251537  0.63403033  1
  O  O170  1  0.74749841  0.98477954  0.11754821  1
  O  O171  1  0.73131073  0.99820786  0.61282599  1
  O  O172  1  0.03470744  0.38873929  0.25654152  1
  O  O173  1  0.00804833  0.37549131  0.75209110  1
  O  O174  1  -0.00047596  0.86870513  0.25629054  1
  O  O175  1  0.00983713  0.88886364  0.75885507  1
  O  O176  1  0.51969572  0.36635758  0.26090746  1
  O  O177  1  0.49418071  0.36615399  0.75036021  1
  O  O178  1  0.51237588  0.86361144  0.24581466  1
  O  O179  1  0.53131635  0.90457231  0.76094016  1
  O  O180  1  0.49412856  0.13918420  0.25313768  1
  O  O181  1  0.48812160  0.13512044  0.75836633  1
  O  O182  1  0.48713200  0.62899553  0.25306511  1
  O  O183  1  0.48768940  0.62373266  0.74055061  1
  O  O184  1  0.99396424  0.12800593  0.24956926  1
  O  O185  1  0.99207669  0.11998469  0.72385761  1
  O  O186  1  0.99918857  0.63741051  0.23515049  1
  O  O187  1  1.00337471  0.62311871  0.75907410  1
  O  O188  1  0.33493547  0.23035085  -0.00873138  1
  O  O189  1  0.36934579  0.23805540  0.51537453  1
  O  O190  1  0.38116080  0.74952423  0.01351954  1
  O  O191  1  0.37127929  0.76975637  0.50481756  1
  O  O192  1  0.86688115  0.24932556  0.01215794  1
  O  O193  1  0.88386532  0.26576999  0.48596198  1
  O  O194  1  0.86612804  0.76406907  0.00694531  1
  O  O195  1  0.88034936  0.76367238  0.50839558  1
  O  O196  1  0.14353443  0.24587330  0.50231617  1
  O  O197  1  0.13409244  0.25545312  0.98019300  1
  O  O198  1  0.11236637  0.73935385  0.48469088  1
  O  O199  1  0.12714201  0.74069047  0.98833102  1
  O  O200  1  0.62470169  0.24104738  0.48492389  1
  O  O201  1  0.63981714  0.23628765  1.00322415  1
  O  O202  1  0.53249412  0.69957883  0.51752961  1
  O  O203  1  0.62788438  0.73575055  0.99510261  1
  O  O204  1  0.50319021  0.25491554  0.14244450  1
  O  O205  1  0.48552480  0.25727501  0.62971345  1
  O  O206  1  0.48107037  0.74831287  0.13999352  1
  O  O207  1  0.50059984  0.76012103  0.66238070  1
  O  O208  1  0.98754092  0.24700264  0.11324080  1
  O  O209  1  1.00568726  0.23054026  0.61228645  1
  O  O210  1  1.00059687  0.75053105  0.12470174  1
  O  O211  1  0.98371303  0.75829020  0.63044673  1
  O  O212  1  0.03117217  0.23510753  0.37108447  1
  O  O213  1  0.00603498  0.26577337  0.88351600  1
  O  O214  1  0.00550554  0.75652884  0.36339383  1
  O  O215  1  0.00955262  0.76928123  0.87562597  1
  O  O216  1  0.51760850  0.25865426  0.36463170  1
  O  O217  1  0.48952705  0.25825234  0.86927192  1
  O  O218  1  0.48831148  0.75008398  0.35394226  1
  O  O219  1  0.50450318  0.72790768  0.88354116  1
  O  O220  1  0.24835450  0.12529365  0.50797843  1
  O  O221  1  0.18912911  0.10836414  1.05309632  1
  O  O222  1  0.23489370  0.61752534  0.49416309  1
  O  O223  1  0.24085772  0.62114590  1.00168938  1
  O  O224  1  0.73924433  0.12181679  0.47952253  1
  O  O225  1  0.74183031  0.12054701  0.99393504  1
  O  O226  1  0.74125450  0.64040949  0.50144432  1
  O  O227  1  0.74212104  0.63172135  0.99774833  1
  O  O228  1  0.24770287  0.38014549  -0.00168713  1
  O  O229  1  0.24875814  0.38066442  0.51224367  1
  O  O230  1  0.22473743  0.87921137  0.03165775  1
  O  O231  1  0.26133334  0.89152929  0.50797313  1
  O  O232  1  0.74448236  0.36164712  -0.00248814  1
  O  O233  1  0.76461370  0.37616945  0.49675997  1
  O  O234  1  0.74985344  0.86519239  0.00513943  1
  O  O235  1  0.76422913  0.87624000  0.48681463  1
  O  O236  1  0.13888317  0.51654527  0.23672502  1
  O  O237  1  0.12676737  0.48754200  0.73869719  1
  O  O238  1  0.12552115  0.99730066  0.23669609  1
  O  O239  1  0.13266323  0.99337513  0.75886518  1
  O  O240  1  0.64276722  0.48438308  0.24630724  1
  O  O241  1  0.60528386  0.50405287  0.72278394  1
  O  O242  1  0.61406883  0.98316408  0.24565303  1
  O  O243  1  0.62250447  1.03423211  0.72455445  1
  O  O244  1  0.40424610  0.00720630  0.26385592  1
  O  O245  1  0.37358169  0.01520737  0.75603700  1
  O  O246  1  0.36479770  0.51452366  0.24755757  1
  O  O247  1  0.36283934  0.49746165  0.76099972  1
  O  O248  1  0.87991046  0.01590236  0.25154453  1
  O  O249  1  0.88007635  0.01797993  0.74988673  1
  O  O250  1  0.86859679  0.48921803  0.25693753  1
  O  O251  1  0.87661552  0.50042947  0.76409585  1
  O  O252  1  0.13536511  0.35468664  0.38054680  1
  O  O253  1  0.11232328  0.37575755  0.85887261  1
  O  O254  1  0.11688392  0.85919547  0.38359418  1
  O  O255  1  0.11723793  0.86514615  0.86736825  1
  O  O256  1  0.63154142  0.36356311  0.37231345  1
  O  O257  1  0.66397311  0.37080048  0.84560630  1
  O  O258  1  0.63754557  0.87217149  0.35785009  1
  O  O259  1  0.61592712  0.84537190  0.88399222  1
  O  O260  1  0.34789891  0.14043271  0.16697445  1
  O  O261  1  0.36949342  0.14015037  0.64402661  1
  O  O262  1  0.37527304  0.62715802  0.13232112  1
  O  O263  1  0.40256664  0.63489066  0.60142207  1
  O  O264  1  0.87832507  0.12879771  0.13621845  1
  O  O265  1  0.85645071  0.12481879  0.63288843  1
  O  O266  1  0.88573385  0.63944427  0.11890386  1
  O  O267  1  0.87475181  0.64004449  0.62341919  1
  O  O268  1  0.22604660  0.25956117  0.10344915  1
  O  O269  1  0.25712622  0.25735090  0.61403152  1
  O  O270  1  0.26533255  0.74459971  0.12910969  1
  O  O271  1  0.29437496  0.75333189  0.65950198  1
  O  O272  1  0.76304556  0.24414505  0.11084825  1
  O  O273  1  0.75582946  0.35669915  0.74798801  1
  O  O274  1  0.75946198  0.75334189  0.11636113  1
  O  O275  1  0.76605621  0.75447194  0.63517886  1
  O  O276  1  0.25214495  0.24744965  0.39550408  1
  O  O277  1  0.23238669  0.25701252  0.87245397  1
  O  O278  1  0.23749175  0.73891003  0.37322675  1
  O  O279  1  0.23360910  0.75567619  0.87139885  1
  O  O280  1  0.74158235  0.24248189  0.36811207  1
  O  O281  1  0.75904015  0.23486851  0.89826376  1
  O  O282  1  0.76297199  0.71929200  0.30906471  1
  O  O283  1  0.75170434  0.73731247  0.88641689  1
  O  O284  1  -0.00301856  0.10669028  -0.00770248  1
  O  O285  1  -0.00761181  0.11057539  0.50682926  1
  O  O286  1  0.01093893  0.61766231  0.01354669  1
  O  O287  1  0.00722482  0.61758581  0.49536073  1
  O  O288  1  0.51334194  0.13289870  -0.00554915  1
  O  O289  1  0.52281986  0.11970298  0.49296824  1
  O  O290  1  0.51612524  0.61174672  0.00735370  1
  O  O291  1  0.46736594  0.50539084  0.52999210  1
  O  O292  1  0.50796393  0.36418382  0.48448998  1
  O  O293  1  0.52837153  0.38917422  0.99774525  1
  O  O294  1  0.48849139  0.88969175  0.49888258  1
  O  O295  1  0.50287833  0.88577461  1.00580206  1
  O  O296  1  0.99672053  0.39193947  0.49916833  1
  O  O297  1  1.01372032  0.38824439  0.98607238  1
  O  O298  1  0.99151709  0.88503745  0.48903178  1
  O  O299  1  0.98928237  0.88267549  0.98703361  1
  O  O300  1  0.51478661  0.48133595  0.36964393  1
  O  O301  1  0.50073946  0.49812950  0.87832757  1
  O  O302  1  0.51754485  1.00098230  0.39130444  1
  O  O303  1  0.48429964  1.00732774  0.88936928  1
  O  O304  1  0.98454639  0.50645306  0.37463499  1
  O  O305  1  0.99321290  0.49574483  0.88178618  1
  O  O306  1  1.00249656  0.99089900  0.37900998  1
  O  O307  1  1.00381605  0.98288884  0.88453571  1
  O  O308  1  0.00195638  -0.01209816  0.10501634  1
  O  O309  1  -0.00025205  0.00669898  0.60931124  1
  O  O310  1  0.01014450  0.51035818  0.12169667  1
  O  O311  1  -0.00635944  0.50663442  0.61065541  1
  O  O312  1  0.46853841  0.01146375  0.09996645  1
  O  O313  1  0.52094272  0.00283539  0.60830125  1
  O  O314  1  0.50571846  0.48918375  0.12203907  1
  O  O315  1  0.49738783  0.50220848  0.61370077  1
  O  O316  1  0.25695903  0.39775034  0.26480101  1
  O  O317  1  0.23539924  0.38065642  0.74219244  1
  O  O318  1  0.24094466  0.87948149  0.25872327  1
  O  O319  1  0.23350514  0.88414565  0.74506920  1
  O  O320  1  0.74377626  0.37711621  0.25240941  1
  O  O321  1  0.69628417  0.39824412  0.77832500  1
  O  O322  1  0.73888385  0.87266618  0.23381409  1
  O  O323  1  0.70953785  0.88837971  0.76918729  1
  O  O324  1  0.26620441  0.09499008  0.26752524  1
  O  O325  1  0.24938359  0.12014967  0.75128841  1
  O  O326  1  0.26677778  0.62249623  0.26493345  1
  O  O327  1  0.24765254  0.60595766  0.71573312  1
  O  O328  1  0.74808958  0.12550385  0.25680319  1
  O  O329  1  0.75838701  0.12693193  0.76947193  1
  O  O330  1  0.75788529  0.59499223  0.22666944  1
  O  O331  1  0.74370518  0.62641102  0.76670956  1
  O  O332  1  0.38279173  0.13248656  0.36880349  1
  O  O333  1  0.36889723  0.12062365  0.86237068  1
  O  O334  1  0.36039997  0.63105123  0.39523706  1
  O  O335  1  0.36555069  0.59374796  0.88560304  1
  O  O336  1  0.86424497  0.13066738  0.36050677  1
  O  O337  1  0.86179889  0.11475383  0.87953027  1
  O  O338  1  0.87267891  0.61403945  0.37380111  1
  O  O339  1  0.86553215  0.61650735  0.87474685  1
  O  O340  1  0.11794712  0.39444962  0.12142314  1
  O  O341  1  0.13478143  0.36551851  0.63172678  1
  O  O342  1  0.17274393  0.86935916  0.08323978  1
  O  O343  1  0.12275664  0.86600893  0.63664139  1
  O  O344  1  0.63062072  0.36483390  0.13831684  1
  O  O345  1  0.63547414  0.38737236  0.61987359  1
  O  O346  1  0.63609774  0.86716760  0.12391505  1
  O  O347  1  0.62279817  0.87804436  0.63490126  1
  O  O348  1  0.16865983  0.24575920  0.26085430  1
  O  O349  1  0.11722256  0.26228555  0.75635217  1
  O  O350  1  0.11808733  0.74253867  0.26163925  1
  O  O351  1  0.12044459  0.76287505  0.75871753  1
  O  O352  1  0.62416806  0.25704835  0.25706791  1
  O  O353  1  0.60246468  0.24525010  0.74828410  1
  O  O354  1  0.60888100  0.75566958  0.24145092  1
  O  O355  1  0.62463586  0.74703691  0.76717270  1
  O  O356  1  0.39114465  0.25528761  0.25950634  1
  O  O357  1  0.37948981  0.24413544  0.74847620  1
  O  O358  1  0.37843658  0.73849502  0.24357821  1
  O  O359  1  0.33611391  0.74747243  0.72159515  1
  O  O360  1  0.87273643  0.23782986  0.23675069  1
  O  O361  1  0.88762045  0.22454504  0.76245838  1
  O  O362  1  0.89269218  0.75855724  0.23011513  1
  O  O363  1  0.87269051  0.75742525  0.74633822  1
  O  O364  1  0.39429635  0.49357191  0.52230806  1
  O  O365  1  0.40231242  0.49258248  0.99752566  1
  O  O366  1  0.39482648  1.01302160  0.49960766  1
  O  O367  1  0.37003911  1.00660594  0.98327490  1
  O  O368  1  0.88321132  0.49601012  0.49151674  1
  O  O369  1  0.89043987  0.50505016  0.99256023  1
  O  O370  1  0.88348836  0.98825528  0.49025569  1
  O  O371  1  0.87604511  0.98842674  1.00315453  1
  O  O372  1  0.11573823  -0.00246361  -0.00450764  1
  O  O373  1  0.10977597  -0.00602836  0.49317305  1
  O  O374  1  0.12203315  0.51282101  0.00870701  1
  O  O375  1  0.10933235  0.51228546  0.49268825  1
  O  O376  1  0.60457237  0.00578423  -0.00324073  1
  O  O377  1  0.62262998  0.00963674  0.50845752  1
  O  O378  1  0.62561536  0.51259659  0.00372612  1
  O  O379  1  0.62828153  0.50983674  0.51492933  1
  O  O380  1  0.37111638  0.37242894  0.14091881  1
  O  O381  1  0.36031935  0.35828137  0.63359880  1
  O  O382  1  0.37148906  0.86556924  0.12814230  1
  O  O383  1  0.37695456  0.89113349  0.61238180  1
  O  O384  1  0.88295801  0.36184793  0.13480155  1
  O  O385  1  0.87976467  0.37076687  0.61016199  1
  O  O386  1  0.86313797  0.87068706  0.11571835  1
  O  O387  1  0.87292491  0.87653697  0.61067429  1
  O  O388  1  0.12061037  0.14334829  0.37964485  1
  O  O389  1  0.11173478  0.14226915  0.86019270  1
  O  O390  1  0.12976628  0.63554036  0.38158341  1
  O  O391  1  0.12248415  0.63749360  0.88734618  1
  O  O392  1  0.63633131  0.13650743  0.37231984  1
  O  O393  1  0.64127123  0.11698129  0.88673731  1
  O  O394  1  0.63090191  0.62524217  0.37948301  1
  O  O395  1  0.63698568  0.62904779  0.88269094  1
