# generated using pymatgen
data_V35Zn35O128
_symmetry_space_group_name_H-M   'P 1'
_cell_length_a   17.03705708
_cell_length_b   16.97744685
_cell_length_c   17.07599629
_cell_angle_alpha   89.57684936
_cell_angle_beta   90.15230750
_cell_angle_gamma   89.64763804
_symmetry_Int_Tables_number   1
_chemical_formula_structural   V35Zn35O128
_chemical_formula_sum   'V70 Zn70 O256'
_cell_volume   4938.91287818
_cell_formula_units_Z   2
loop_
 _symmetry_equiv_pos_site_id
 _symmetry_equiv_pos_as_xyz
  1  'x, y, z'
loop_
 _atom_site_type_symbol
 _atom_site_label
 _atom_site_symmetry_multiplicity
 _atom_site_fract_x
 _atom_site_fract_y
 _atom_site_fract_z
 _atom_site_occupancy
  V  V0  1  0.23753954  0.36625404  0.62897665  1
  V  V1  1  0.61883964  0.85792068  0.26469239  1
  V  V2  1  -0.02248082  0.36818356  0.87643780  1
  V  V3  1  0.38274454  0.46516749  0.35926539  1
  V  V4  1  0.25169983  0.13240938  0.88258932  1
  V  V5  1  0.48529788  0.74567609  0.75087476  1
  V  V6  1  0.61430772  0.61952075  0.50398376  1
  V  V7  1  0.73459967  0.62492856  0.37600760  1
  V  V8  1  0.62965278  0.38288646  0.23246785  1
  V  V9  1  0.49624485  0.60083147  0.12418925  1
  V  V10  1  0.24264144  -0.00822033  0.74083927  1
  V  V11  1  0.38164515  0.75865475  0.11528117  1
  V  V12  1  0.87079162  0.62763885  0.25019905  1
  V  V13  1  0.50024237  -0.00604027  -0.00154519  1
  V  V14  1  -0.00308601  0.24549059  0.73510633  1
  V  V15  1  0.12966393  0.73242626  0.86801897  1
  V  V16  1  0.50338588  0.26429603  0.75199730  1
  V  V17  1  0.50486582  0.86667107  0.87334868  1
  V  V18  1  0.24906980  0.50341297  0.76271310  1
  V  V19  1  0.62662525  0.27443119  0.38387221  1
  V  V20  1  0.38936794  0.36239577  0.52043056  1
  V  V21  1  0.73495082  0.63121407  0.88288404  1
  V  V22  1  0.37827621  -0.00699626  0.87245866  1
  V  V23  1  0.87915794  0.37747819  0.51710020  1
  V  V24  1  0.36684350  0.76460820  0.60628344  1
  V  V25  1  0.00850813  0.50540030  0.50320504  1
  V  V26  1  0.62615596  0.12274537  0.49244621  1
  V  V27  1  0.63061291  0.12085715  -0.00146945  1
  V  V28  1  0.40151362  0.50654787  0.87459252  1
  V  V29  1  0.08528899  0.12279961  0.02927285  1
  V  V30  1  0.87719972  0.61963743  0.75998345  1
  V  V31  1  0.61233510  0.62188213  0.00735690  1
  V  V32  1  0.87177079  0.01317131  0.37971502  1
  V  V33  1  0.21669762  0.48557633  0.25484324  1
  V  V34  1  0.88298431  -0.00169893  0.88070496  1
  V  V35  1  0.51097266  0.24774081  0.24395919  1
  V  V36  1  0.75290336  0.25220819  0.51011392  1
  V  V37  1  0.38133817  0.12800109  0.74927641  1
  V  V38  1  0.73574534  0.74573118  0.49481619  1
  V  V39  1  -0.01046068  0.26364700  0.25747162  1
  V  V40  1  0.22103521  0.87801387  0.12914347  1
  V  V41  1  0.62958354  0.26504395  0.86842552  1
  V  V42  1  0.87248605  0.49995164  0.38336472  1
  V  V43  1  0.37240665  0.62190591  0.24961712  1
  V  V44  1  0.74611050  0.50016492  0.23863818  1
  V  V45  1  0.75001784  0.12470017  0.86472333  1
  V  V46  1  0.50158716  0.12606718  0.62711763  1
  V  V47  1  0.85772833  0.37012685  0.01783468  1
  V  V48  1  0.18356844  0.41986471  0.07811616  1
  V  V49  1  0.48549504  0.61659664  0.62852709  1
  V  V50  1  0.01771309  0.87429287  0.88118784  1
  V  V51  1  0.12740203  0.13906312  0.52618040  1
  V  V52  1  0.87431687  0.86480617  0.48023311  1
  V  V53  1  0.73121024  0.38705690  0.63246226  1
  V  V54  1  0.12215011  0.37422017  0.76880331  1
  V  V55  1  0.62513469  0.85996377  0.75045106  1
  V  V56  1  0.87025193  0.74641678  0.63114398  1
  V  V57  1  -0.00010501  0.49473205  -0.00537804  1
  V  V58  1  0.23639256  0.74167495  0.00331374  1
  V  V59  1  0.61778941  -0.00235300  0.62578489  1
  V  V60  1  0.01633627  0.74757055  0.25813925  1
  V  V61  1  0.74391528  0.00363375  0.26176544  1
  V  V62  1  0.40129400  0.00936894  0.39954381  1
  V  V63  1  0.25209803  0.25724406  0.47754448  1
  V  V64  1  0.00901215  0.62888771  0.62255824  1
  V  V65  1  0.63924369  -0.02312082  0.11704281  1
  V  V66  1  0.74673155  0.86770335  0.62171783  1
  V  V67  1  0.01066401  0.61404509  0.12471958  1
  V  V68  1  0.86748578  0.74806497  0.11775159  1
  V  V69  1  0.49770604  0.49505486  0.49781278  1
  Zn  Zn70  1  0.88093482  0.12935546  0.74780094  1
  Zn  Zn71  1  0.87188415  0.88702014  0.01270066  1
  Zn  Zn72  1  0.75908001  -0.00407200  0.74349627  1
  Zn  Zn73  1  0.74735436  0.49378262  0.75914678  1
  Zn  Zn74  1  0.73895606  0.76322835  -0.00271406  1
  Zn  Zn75  1  0.34003787  0.10199249  0.26692346  1
  Zn  Zn76  1  0.15696682  0.15161753  0.23261931  1
  Zn  Zn77  1  0.19010521  0.19088466  0.70482694  1
  Zn  Zn78  1  0.19861024  0.68106385  0.18819824  1
  Zn  Zn79  1  0.18918539  0.69730410  0.68972398  1
  Zn  Zn80  1  0.64964362  0.16758045  0.20625061  1
  Zn  Zn81  1  0.68633265  0.19123577  0.68666553  1
  Zn  Zn82  1  0.68154570  0.68474037  0.17989151  1
  Zn  Zn83  1  0.67101907  0.65536336  0.70250594  1
  Zn  Zn84  1  0.29855525  0.28719077  0.27167129  1
  Zn  Zn85  1  0.32238453  0.31828392  0.81774751  1
  Zn  Zn86  1  0.29557074  0.90415075  0.30316214  1
  Zn  Zn87  1  0.30739762  0.81305073  0.81914885  1
  Zn  Zn88  1  0.80176465  0.32366682  0.32997550  1
  Zn  Zn89  1  0.81291937  0.30718355  0.80249303  1
  Zn  Zn90  1  0.79112718  0.80813631  0.30262511  1
  Zn  Zn91  1  0.81360333  0.81007536  0.81406804  1
  Zn  Zn92  1  0.19944480  0.53418041  0.43439895  1
  Zn  Zn93  1  0.33346165  0.39839532  0.99276859  1
  Zn  Zn94  1  0.22232239  1.07634466  0.39683034  1
  Zn  Zn95  1  0.19281145  0.94487866  0.95148116  1
  Zn  Zn96  1  0.69257610  0.44501316  0.44960744  1
  Zn  Zn97  1  0.69198980  0.45143171  0.93669071  1
  Zn  Zn98  1  0.67696612  0.93611272  0.43547418  1
  Zn  Zn99  1  0.69557181  0.93389921  0.92855906  1
  Zn  Zn100  1  0.22525951  0.06835315  0.07417394  1
  Zn  Zn101  1  0.31289134  0.06935264  0.56551176  1
  Zn  Zn102  1  0.31391465  0.56096804  0.05254915  1
  Zn  Zn103  1  0.28415993  0.57336021  0.60451905  1
  Zn  Zn104  1  0.80127401  0.06016933  0.05490910  1
  Zn  Zn105  1  0.79682053  0.04898930  0.54827004  1
  Zn  Zn106  1  0.81865852  0.56214310  0.05489090  1
  Zn  Zn107  1  0.80997104  0.56414004  0.56503845  1
  Zn  Zn108  1  0.44022580  0.42277028  0.17917842  1
  Zn  Zn109  1  0.42646987  0.44138524  0.69236005  1
  Zn  Zn110  1  0.44044603  0.93383411  0.18270775  1
  Zn  Zn111  1  0.43317242  0.93672208  0.68629279  1
  Zn  Zn112  1  0.92399669  0.44063792  0.18400252  1
  Zn  Zn113  1  0.94091016  0.44575184  0.68913287  1
  Zn  Zn114  1  0.91736645  0.91520555  0.21643922  1
  Zn  Zn115  1  0.95967763  0.95227178  0.71150999  1
  Zn  Zn116  1  0.05678648  0.05572088  0.39893841  1
  Zn  Zn117  1  0.06820876  0.06426561  0.81567068  1
  Zn  Zn118  1  0.05601719  0.58320838  0.32765354  1
  Zn  Zn119  1  0.06051908  0.55705827  0.80854894  1
  Zn  Zn120  1  0.52630319  0.03911268  0.28194026  1
  Zn  Zn121  1  0.56744426  0.05529235  0.80782370  1
  Zn  Zn122  1  0.55448394  0.56083497  0.31260588  1
  Zn  Zn123  1  0.56801245  0.55806335  0.80879986  1
  Zn  Zn124  1  0.44873868  0.19097356  0.43096149  1
  Zn  Zn125  1  0.45055275  0.18046962  0.92790295  1
  Zn  Zn126  1  0.32290728  0.67112532  0.44426693  1
  Zn  Zn127  1  0.42802436  0.68553398  0.93754087  1
  Zn  Zn128  1  0.93604721  0.19492623  0.44647102  1
  Zn  Zn129  1  0.93115501  0.19286418  0.94522819  1
  Zn  Zn130  1  0.93039714  0.68703310  0.43758158  1
  Zn  Zn131  1  0.95276607  0.68788815  0.94063899  1
  Zn  Zn132  1  0.17326128  0.28839922  -0.06225370  1
  Zn  Zn133  1  0.06606743  0.31754111  0.56122279  1
  Zn  Zn134  1  0.05029226  0.80809951  0.05924836  1
  Zn  Zn135  1  0.02579875  0.84450337  0.59074287  1
  Zn  Zn136  1  0.61149492  0.29605659  0.06779521  1
  Zn  Zn137  1  0.56659767  0.30849023  0.57187885  1
  Zn  Zn138  1  0.56072253  0.80439766  0.05872227  1
  Zn  Zn139  1  0.56466261  0.79628532  0.57511468  1
  O  O140  1  0.13210640  0.12595560  0.12506976  1
  O  O141  1  0.12831872  0.13316265  0.62437944  1
  O  O142  1  0.10738061  0.62691801  0.13062112  1
  O  O143  1  0.10480318  0.64659890  0.62390105  1
  O  O144  1  0.63337483  0.11769431  0.09963572  1
  O  O145  1  0.61917901  0.11365481  0.62866055  1
  O  O146  1  0.60803776  0.62214689  0.11863634  1
  O  O147  1  0.60425147  0.63413650  0.60844025  1
  O  O148  1  0.38460674  0.36784834  0.35926558  1
  O  O149  1  0.36779125  0.39551107  0.88205058  1
  O  O150  1  0.38383700  0.90660749  0.36895018  1
  O  O151  1  0.39012800  0.88505050  0.86853320  1
  O  O152  1  0.86453344  0.39405699  0.39518913  1
  O  O153  1  0.87951491  0.38297455  0.85936407  1
  O  O154  1  0.85796277  0.86447162  0.38066833  1
  O  O155  1  0.86804124  0.89659994  0.87003509  1
  O  O156  1  0.29200283  0.01337743  0.33952357  1
  O  O157  1  0.26741863  0.00591787  0.87068735  1
  O  O158  1  0.28558709  0.49630340  0.36688855  1
  O  O159  1  0.24155895  0.52097684  0.85628209  1
  O  O160  1  0.74853908  -0.00209458  0.36714561  1
  O  O161  1  0.75861556  0.01126148  0.86359741  1
  O  O162  1  0.75405376  0.51155553  0.37658086  1
  O  O163  1  0.75296851  0.52630768  0.87184064  1
  O  O164  1  0.28210939  0.45958607  0.09459096  1
  O  O165  1  0.27345746  0.46436006  0.64145301  1
  O  O166  1  0.24702886  0.97741203  0.13303437  1
  O  O167  1  0.25840904  1.00915157  0.64280975  1
  O  O168  1  0.75422723  0.50998948  0.14219202  1
  O  O169  1  0.74954986  0.48810704  0.62253164  1
  O  O170  1  0.74157599  0.99860786  0.13036468  1
  O  O171  1  0.74110987  0.98256626  0.62496682  1
  O  O172  1  -0.00922683  0.36989912  0.25266619  1
  O  O173  1  0.00551977  0.37414966  0.75590172  1
  O  O174  1  -0.00377927  0.84612298  0.25672973  1
  O  O175  1  -0.00847845  0.86847062  0.78438152  1
  O  O176  1  0.52555085  0.37004593  0.24429170  1
  O  O177  1  0.49661471  0.36183201  0.74279568  1
  O  O178  1  0.52336335  0.87239762  0.23471635  1
  O  O179  1  0.50705740  0.86456954  0.75409199  1
  O  O180  1  0.54498369  0.14899260  0.25742447  1
  O  O181  1  0.49744280  0.12522935  0.74473316  1
  O  O182  1  0.48944191  0.61505666  0.23228432  1
  O  O183  1  0.50419637  0.63210529  0.73307076  1
  O  O184  1  0.97346240  0.16204639  0.25050667  1
  O  O185  1  1.00576991  0.14322509  0.75630144  1
  O  O186  1  0.98725767  0.62330269  0.24104069  1
  O  O187  1  0.98891671  0.61766971  0.73008415  1
  O  O188  1  0.39799972  0.26543327  -0.00888159  1
  O  O189  1  0.37043055  0.26154831  0.48776042  1
  O  O190  1  0.36147046  0.74505652  0.01033805  1
  O  O191  1  0.36922189  0.75153235  0.50690251  1
  O  O192  1  0.86590308  0.27187370  -0.00809237  1
  O  O193  1  0.86845058  0.26974965  0.49942846  1
  O  O194  1  0.88213126  0.73793345  0.01733115  1
  O  O195  1  0.85536643  0.75073454  0.50217391  1
  O  O196  1  0.14469928  0.25141731  0.50487830  1
  O  O197  1  0.11245843  0.20920249  0.98671224  1
  O  O198  1  0.14237009  0.80861758  0.55481420  1
  O  O199  1  0.13209244  0.74870831  0.99470980  1
  O  O200  1  0.63145288  0.24867995  0.49576892  1
  O  O201  1  0.62010255  0.23197144  0.97934611  1
  O  O202  1  0.62956196  0.73912351  0.49977117  1
  O  O203  1  0.63022061  0.73085134  1.00860658  1
  O  O204  1  0.54397405  0.24994551  0.14692446  1
  O  O205  1  0.51464177  0.23727331  0.64508493  1
  O  O206  1  0.48304849  0.74260575  0.11566189  1
  O  O207  1  0.48432345  0.74078878  0.63054491  1
  O  O208  1  0.98930905  0.26386597  0.15509367  1
  O  O209  1  1.00345051  0.25702408  0.63632051  1
  O  O210  1  0.98827082  0.73259066  0.13685077  1
  O  O211  1  0.97744416  0.74062753  0.61201135  1
  O  O212  1  -0.01243720  0.25973190  0.36265550  1
  O  O213  1  -0.01203305  0.26563982  0.86655079  1
  O  O214  1  0.00017393  0.71812338  0.35578581  1
  O  O215  1  0.02439898  0.75983255  0.88622318  1
  O  O216  1  0.52494915  0.25493596  0.36826335  1
  O  O217  1  0.51910094  0.24728275  0.86144575  1
  O  O218  1  0.47638692  0.83135535  0.42649533  1
  O  O219  1  0.49315950  0.75967245  0.86800143  1
  O  O220  1  0.24941468  0.14893043  0.49981441  1
  O  O221  1  0.26698481  0.11974420  0.98113019  1
  O  O222  1  0.25995254  0.59961762  0.50178673  1
  O  O223  1  0.24511598  0.64154297  1.01111570  1
  O  O224  1  0.73464470  0.13964996  0.51857797  1
  O  O225  1  0.73790857  0.12063535  0.97876780  1
  O  O226  1  0.73530644  0.62630291  0.49547750  1
  O  O227  1  0.74546010  0.62552063  0.99076274  1
  O  O228  1  0.22049040  0.37629795  -0.01302882  1
  O  O229  1  0.26360835  0.35910761  0.51968723  1
  O  O230  1  0.24306972  0.86412361  0.01862542  1
  O  O231  1  0.18839838  0.85948436  0.52996835  1
  O  O232  1  0.75995381  0.38933029  -0.00097333  1
  O  O233  1  0.75902883  0.37407973  0.51607972  1
  O  O234  1  0.76105563  0.87276120  -0.00563510  1
  O  O235  1  0.74221462  0.86184120  0.50556666  1
  O  O236  1  0.15838794  0.48530027  0.17372612  1
  O  O237  1  0.12855487  0.48149721  0.75305734  1
  O  O238  1  0.05991774  1.00371799  0.20642400  1
  O  O239  1  0.14451478  1.00537838  0.75502672  1
  O  O240  1  0.63476473  0.49221899  0.25471713  1
  O  O241  1  0.64938144  0.54721238  0.73761382  1
  O  O242  1  0.62555620  0.98964307  0.22709549  1
  O  O243  1  0.62972182  0.98386490  0.73716726  1
  O  O244  1  0.42085750  0.02845491  0.23597629  1
  O  O245  1  0.37745443  0.00909023  0.75825109  1
  O  O246  1  0.39361273  0.49551063  0.25643632  1
  O  O247  1  0.35941028  0.49224551  0.76589284  1
  O  O248  1  0.85396218  -0.00449971  0.26541508  1
  O  O249  1  0.87770628  0.01217567  0.75974618  1
  O  O250  1  0.86136586  0.50666706  0.26125758  1
  O  O251  1  0.86813817  0.51767792  0.74431782  1
  O  O252  1  0.14206721  0.50371367  0.32566489  1
  O  O253  1  0.10818836  0.36706869  0.86804246  1
  O  O254  1  0.22112422  0.74755249  0.40963953  1
  O  O255  1  0.11694127  0.88634656  0.88630063  1
  O  O256  1  0.62721450  0.37443868  0.38545566  1
  O  O257  1  0.63699683  0.36207679  0.88110737  1
  O  O258  1  0.61947303  0.87203512  0.36450826  1
  O  O259  1  0.61958108  0.87784730  0.85790558  1
  O  O260  1  0.40674560  0.14014169  0.10418675  1
  O  O261  1  0.39215333  0.12244993  0.63665217  1
  O  O262  1  0.38990237  0.61895018  0.12054841  1
  O  O263  1  0.38573724  0.63604059  0.62231500  1
  O  O264  1  0.81756191  0.16612152  0.11994696  1
  O  O265  1  0.88647569  0.10568467  0.61294771  1
  O  O266  1  0.87830620  0.62803012  0.13649561  1
  O  O267  1  0.86967809  0.63703638  0.63150112  1
  O  O268  1  0.33858187  0.16397750  0.11063341  1
  O  O269  1  0.25683285  0.26686217  0.64764712  1
  O  O270  1  0.25256968  0.75499002  0.11472997  1
  O  O271  1  0.27187298  0.74793618  0.63435368  1
  O  O272  1  0.76312692  0.21576570  0.13049714  1
  O  O273  1  0.74148704  0.26696085  0.61754645  1
  O  O274  1  0.76496566  0.73696444  0.11956824  1
  O  O275  1  0.75304002  0.75118657  0.61408383  1
  O  O276  1  0.24662346  0.26820344  0.38212652  1
  O  O277  1  0.25952204  0.23856433  0.87315671  1
  O  O278  1  0.15253772  0.71562308  0.40876379  1
  O  O279  1  0.23962679  0.75636669  0.89198343  1
  O  O280  1  0.73944984  0.25831936  0.39787185  1
  O  O281  1  0.73853768  0.23689526  0.86182028  1
  O  O282  1  0.74870375  0.73384023  0.38399531  1
  O  O283  1  0.76650501  0.73420883  0.88372662  1
  O  O284  1  -0.01563414  0.12304863  0.01919951  1
  O  O285  1  0.03032300  0.14631554  0.48512493  1
  O  O286  1  -0.00330178  0.60574893  0.01281636  1
  O  O287  1  -0.01087230  0.61677929  0.51243911  1
  O  O288  1  0.52176072  0.10341251  -0.01958309  1
  O  O289  1  0.51962999  0.14201479  0.51561838  1
  O  O290  1  0.50710607  0.62823977  0.00844338  1
  O  O291  1  0.49966323  0.61017686  0.51082956  1
  O  O292  1  0.49549551  0.37573469  0.51111644  1
  O  O293  1  0.44047220  0.29103109  1.05381581  1
  O  O294  1  0.50328798  0.86479077  0.48472196  1
  O  O295  1  0.51666269  0.88389036  0.98287525  1
  O  O296  1  0.98775112  0.39035658  0.50974462  1
  O  O297  1  0.97623978  0.37801499  0.98204373  1
  O  O298  1  0.97218966  0.85645970  0.48704069  1
  O  O299  1  0.98316664  0.86919024  0.98492966  1
  O  O300  1  0.48697901  0.50341470  0.38784986  1
  O  O301  1  0.50079305  0.49119071  0.86317815  1
  O  O302  1  0.50306931  1.00882107  0.38938570  1
  O  O303  1  0.49937850  0.98731209  0.87486708  1
  O  O304  1  0.98261717  0.51758058  0.39446117  1
  O  O305  1  1.00648048  0.49079177  0.88932607  1
  O  O306  1  0.97024941  0.99305203  0.37119706  1
  O  O307  1  0.98916177  0.99754108  0.87401566  1
  O  O308  1  0.00041467  -0.00100445  0.16412417  1
  O  O309  1  -0.04593856  0.07344241  0.60071809  1
  O  O310  1  -0.00744212  0.51195101  0.13067319  1
  O  O311  1  -0.00130036  0.51562069  0.61393933  1
  O  O312  1  0.51935202  -0.01094385  0.10048217  1
  O  O313  1  0.51147584  0.00710701  0.62905407  1
  O  O314  1  0.49915671  0.50288952  0.11751502  1
  O  O315  1  0.48391040  0.51055342  0.61854809  1
  O  O316  1  0.25430021  0.39156363  0.25470817  1
  O  O317  1  0.23365928  0.37784007  0.75609757  1
  O  O318  1  0.24072897  0.85175654  0.22879201  1
  O  O319  1  0.25914573  0.89293341  0.75449373  1
  O  O320  1  0.74395009  0.39382602  0.25868100  1
  O  O321  1  0.75239006  0.37800343  0.73528714  1
  O  O322  1  0.72956031  0.88903052  0.25019648  1
  O  O323  1  0.74201858  0.86636141  0.73640516  1
  O  O324  1  0.26568509  0.18195194  0.23867757  1
  O  O325  1  0.26848447  0.11981451  0.75880212  1
  O  O326  1  0.26791331  0.59083754  0.22957223  1
  O  O327  1  0.23901776  0.59520440  0.71271380  1
  O  O328  1  0.73114190  0.10270864  0.25133573  1
  O  O329  1  0.75445867  0.12368461  0.75437010  1
  O  O330  1  0.74856029  0.61484005  0.25818277  1
  O  O331  1  0.77034204  0.64084812  0.76750541  1
  O  O332  1  0.38614375  0.11863969  0.37568009  1
  O  O333  1  0.37867249  0.11453006  0.86551873  1
  O  O334  1  0.37399341  0.63296387  0.34851088  1
  O  O335  1  0.39151878  0.60937557  0.86474749  1
  O  O336  1  0.87014741  0.11059488  0.40118731  1
  O  O337  1  0.86141731  0.12075664  0.87600060  1
  O  O338  1  0.85842107  0.61822531  0.36818486  1
  O  O339  1  0.89786687  0.63246248  0.85687596  1
  O  O340  1  0.16719925  0.33805135  0.12481133  1
  O  O341  1  0.13619636  0.37622748  0.63114477  1
  O  O342  1  0.12113780  0.87069161  0.12271730  1
  O  O343  1  0.03037026  0.94345598  0.63191166  1
  O  O344  1  0.64271855  0.37879699  0.13452965  1
  O  O345  1  0.63247875  0.38304961  0.62527313  1
  O  O346  1  0.63383083  0.87777006  0.11451544  1
  O  O347  1  0.62794850  0.87704338  0.62789460  1
  O  O348  1  0.09123119  0.25676906  0.26425870  1
  O  O349  1  0.11150752  0.26602226  0.74998021  1
  O  O350  1  0.11478766  0.73464492  0.24739248  1
  O  O351  1  0.13875666  0.75547921  0.77096095  1
  O  O352  1  0.64290503  0.27442948  0.27014045  1
  O  O353  1  0.61803716  0.25140367  0.76035898  1
  O  O354  1  0.63743817  0.75891723  0.25027049  1
  O  O355  1  0.61258344  0.75579135  0.73748785  1
  O  O356  1  0.41209782  0.25489615  0.24400284  1
  O  O357  1  0.39603890  0.24021605  0.76246491  1
  O  O358  1  0.36234447  0.72080119  0.22032124  1
  O  O359  1  0.38505363  0.75462969  0.75072493  1
  O  O360  1  0.88457188  0.27598800  0.26596183  1
  O  O361  1  0.88985710  0.24626205  0.74384317  1
  O  O362  1  0.86627432  0.73562081  0.24377081  1
  O  O363  1  0.87391480  0.74816794  0.73280006  1
  O  O364  1  0.38436814  0.46542110  0.48532477  1
  O  O365  1  0.38263917  0.50684628  0.97804005  1
  O  O366  1  0.37938113  1.01050347  0.49729144  1
  O  O367  1  0.40028011  1.00089583  0.98730612  1
  O  O368  1  0.87671331  0.49397331  0.50043189  1
  O  O369  1  0.89050790  0.48684216  1.00914991  1
  O  O370  1  0.85621483  0.97537383  0.48430300  1
  O  O371  1  0.87011524  1.00550525  0.98477825  1
  O  O372  1  0.12936159  0.03340909  -0.00348466  1
  O  O373  1  0.14466651  0.04534552  0.48150632  1
  O  O374  1  0.09353972  0.46731024  0.02631427  1
  O  O375  1  0.10564325  0.49848791  0.49373694  1
  O  O376  1  0.63018942  0.00246826  0.00259583  1
  O  O377  1  0.63463637  0.01464877  0.51114912  1
  O  O378  1  0.62683762  0.52272907  -0.00494578  1
  O  O379  1  0.60904290  0.50638343  0.49889024  1
  O  O380  1  0.40085663  0.35718747  0.08617878  1
  O  O381  1  0.38431154  0.35999746  0.61918850  1
  O  O382  1  0.37647067  0.85829355  0.12813616  1
  O  O383  1  0.38538935  0.86348130  0.61841775  1
  O  O384  1  0.86396661  0.37380149  0.11829829  1
  O  O385  1  0.87219974  0.38189871  0.61735900  1
  O  O386  1  0.88015389  0.85249762  0.12874763  1
  O  O387  1  0.85930014  0.85808502  0.60884926  1
  O  O388  1  0.13247195  0.10472088  0.33155048  1
  O  O389  1  0.15469824  0.12235606  0.86396953  1
  O  O390  1  0.15151641  0.63879350  0.37880067  1
  O  O391  1  0.11876141  0.63403325  0.86893126  1
  O  O392  1  0.63053411  0.13406534  0.39667311  1
  O  O393  1  0.63888514  0.12100553  0.87300227  1
  O  O394  1  0.62702881  0.61807266  0.38470857  1
  O  O395  1  0.63207834  0.63568190  0.88495114  1
