# generated using pymatgen
data_V35Zn35O128
_symmetry_space_group_name_H-M   'P 1'
_cell_length_a   16.84556676
_cell_length_b   16.88041707
_cell_length_c   16.91395155
_cell_angle_alpha   89.86281371
_cell_angle_beta   89.83798999
_cell_angle_gamma   89.71804575
_symmetry_Int_Tables_number   1
_chemical_formula_structural   V35Zn35O128
_chemical_formula_sum   'V70 Zn70 O256'
_cell_volume   4809.56342752
_cell_formula_units_Z   2
loop_
 _symmetry_equiv_pos_site_id
 _symmetry_equiv_pos_as_xyz
  1  'x, y, z'
loop_
 _atom_site_type_symbol
 _atom_site_label
 _atom_site_symmetry_multiplicity
 _atom_site_fract_x
 _atom_site_fract_y
 _atom_site_fract_z
 _atom_site_occupancy
  V  V0  1  0.23428381  0.37277519  0.62210422  1
  V  V1  1  0.87673860  0.75541781  0.13035790  1
  V  V2  1  0.00797038  0.50731840  -0.00356519  1
  V  V3  1  0.37616163  0.73561061  0.12519558  1
  V  V4  1  0.11697354  0.86562503  0.26227270  1
  V  V5  1  0.75670943  0.75042348  0.48144732  1
  V  V6  1  0.63809903  0.37121953  0.75108998  1
  V  V7  1  0.89096009  0.88737605  0.48404492  1
  V  V8  1  0.75321817  0.01475529  0.77554604  1
  V  V9  1  0.39064744  0.87281878  0.00269954  1
  V  V10  1  0.39128247  0.36623914  0.48882185  1
  V  V11  1  0.74388357  0.22814722  -0.00600566  1
  V  V12  1  0.37417374  0.00169696  0.36979538  1
  V  V13  1  0.86509779  0.88057573  -0.00061393  1
  V  V14  1  0.84640985  0.49102705  0.35327736  1
  V  V15  1  0.23984281  0.73725178  0.50014399  1
  V  V16  1  0.11926463  0.12017952  0.51419425  1
  V  V17  1  0.36109347  0.87240562  0.50774250  1
  V  V18  1  0.24838558  0.87569407  0.12445747  1
  V  V19  1  0.00468767  0.38494592  0.36806721  1
  V  V20  1  0.12152528  0.74538114  0.85851068  1
  V  V21  1  0.49942169  0.74306008  0.25044607  1
  V  V22  1  0.12590467  0.13062234  -0.00005990  1
  V  V23  1  0.35374264  -0.02730079  0.85151627  1
  V  V24  1  0.37575634  0.51592425  0.86297706  1
  V  V25  1  0.87875988  0.59369767  0.74940161  1
  V  V26  1  0.27278007  0.37273881  0.12288621  1
  V  V27  1  0.51445117  0.62168585  0.63621347  1
  V  V28  1  0.25538913  0.12884504  0.87116825  1
  V  V29  1  0.48426009  0.24266728  0.23600757  1
  V  V30  1  0.49232142  0.36102571  0.87204946  1
  V  V31  1  0.23466485  0.73904113  0.00311958  1
  V  V32  1  0.12937220  0.48705066  0.12627273  1
  V  V33  1  0.87719067  0.75743397  0.62996486  1
  V  V34  1  0.51049788  0.86791499  0.85277272  1
  V  V35  1  0.62497283  0.12185362  0.48031295  1
  V  V36  1  0.86869712  0.38266387  -0.00277982  1
  V  V37  1  0.62608948  0.37565892  0.22435542  1
  V  V38  1  0.49859235  -0.00432605  0.49754111  1
  V  V39  1  0.25392921  0.12986365  0.37808977  1
  V  V40  1  0.63300995  -0.00658560  0.62521520  1
  V  V41  1  0.85598190  0.12121092  0.25733229  1
  V  V42  1  0.38003906  0.74363013  0.64154223  1
  V  V43  1  0.64739403  0.86230343  0.25169387  1
  V  V44  1  0.50077891  0.85984856  0.37476614  1
  V  V45  1  0.61241477  0.26821292  0.36964234  1
  V  V46  1  0.12800106  0.25833724  0.86754684  1
  V  V47  1  0.63473465  0.51853428  0.11546426  1
  V  V48  1  0.74910944  0.73328022  0.00101955  1
  V  V49  1  -0.00440962  0.00202055  -0.00301152  1
  V  V50  1  0.49614226  0.13286164  0.62474284  1
  V  V51  1  0.25472861  0.00612543  0.24797675  1
  V  V52  1  0.61814399  0.02682844  0.11105459  1
  V  V53  1  0.27023991  0.25535535  0.00363808  1
  V  V54  1  0.86624918  0.38002088  0.49247606  1
  V  V55  1  0.75487397  0.24733160  0.48864185  1
  V  V56  1  0.00983206  0.62686697  0.13754525  1
  V  V57  1  0.00222738  0.87528257  0.87000324  1
  V  V58  1  0.37088495  0.61981370  0.27193212  1
  V  V59  1  0.25141160  0.49863207  0.25982512  1
  V  V60  1  0.00735781  0.37625832  0.87262082  1
  V  V61  1  0.00720054  0.25042912  0.24928562  1
  V  V62  1  0.22916858  0.50597637  0.74925822  1
  V  V63  1  -0.00147078  0.12800161  0.12607635  1
  V  V64  1  0.37869412  0.13638871  0.74508013  1
  V  V65  1  0.49717341  0.51112376  0.00166581  1
  V  V66  1  0.12787053  0.24951473  0.38028184  1
  V  V67  1  0.86325271  0.61864847  0.24778125  1
  V  V68  1  0.86609655  0.25552524  0.12342809  1
  V  V69  1  0.01022844  0.60962979  0.61633828  1
  Zn  Zn70  1  0.63083943  0.74623956  0.87727111  1
  Zn  Zn71  1  0.64092609  0.86192819  0.72846566  1
  Zn  Zn72  1  0.75326645  0.36035572  0.63515410  1
  Zn  Zn73  1  0.62747600  0.22344213  0.86087725  1
  Zn  Zn74  1  0.12530863  0.00129538  0.12459005  1
  Zn  Zn75  1  0.63418580  0.63475000  0.50529711  1
  Zn  Zn76  1  0.19269702  0.19207264  0.18752651  1
  Zn  Zn77  1  0.19748797  0.19686401  0.68630377  1
  Zn  Zn78  1  0.18775930  0.68407175  0.19302561  1
  Zn  Zn79  1  0.19103654  0.68855949  0.67764224  1
  Zn  Zn80  1  0.67708124  0.19234274  0.17974914  1
  Zn  Zn81  1  0.68241588  0.18706350  0.67730035  1
  Zn  Zn82  1  0.68809943  0.69235211  0.18611047  1
  Zn  Zn83  1  0.70392856  0.68097370  0.68572379  1
  Zn  Zn84  1  0.31799627  0.32251430  0.31931906  1
  Zn  Zn85  1  0.31517652  0.32351718  0.80453900  1
  Zn  Zn86  1  0.30395250  0.81062986  0.31836612  1
  Zn  Zn87  1  0.31193292  0.79260106  0.82510280  1
  Zn  Zn88  1  0.80324829  0.30149215  0.30761312  1
  Zn  Zn89  1  0.81776849  0.30209478  0.81978361  1
  Zn  Zn90  1  0.83658799  0.80829119  0.31826362  1
  Zn  Zn91  1  0.78122782  0.79334406  0.79734762  1
  Zn  Zn92  1  0.19673238  0.42243754  0.44056929  1
  Zn  Zn93  1  0.19596370  0.44327961  0.93823018  1
  Zn  Zn94  1  0.17587359  0.94177442  0.44163766  1
  Zn  Zn95  1  0.18672364  0.93377959  0.93305040  1
  Zn  Zn96  1  0.67767702  0.44358942  0.43699619  1
  Zn  Zn97  1  0.65299860  0.39820865  0.96263921  1
  Zn  Zn98  1  0.68969220  0.92322150  0.43622772  1
  Zn  Zn99  1  0.67810511  0.94805727  0.94799455  1
  Zn  Zn100  1  0.30879028  0.05080777  0.04378014  1
  Zn  Zn101  1  0.30313220  0.06387064  0.56614487  1
  Zn  Zn102  1  0.31703917  0.55810861  0.05403778  1
  Zn  Zn103  1  0.30838359  0.56398195  0.58294479  1
  Zn  Zn104  1  0.80608272  0.05587166  0.08184421  1
  Zn  Zn105  1  0.80681380  0.05614080  0.54363160  1
  Zn  Zn106  1  0.81862634  0.55830652  0.06524700  1
  Zn  Zn107  1  0.85726096  0.59528597  0.52436524  1
  Zn  Zn108  1  0.44620790  0.43667953  0.18875522  1
  Zn  Zn109  1  0.45429770  0.44121829  0.69189407  1
  Zn  Zn110  1  0.44391786  0.93556174  0.18476120  1
  Zn  Zn111  1  0.43824468  0.93763837  0.68369477  1
  Zn  Zn112  1  0.93993401  0.43489040  0.18317495  1
  Zn  Zn113  1  0.95826800  0.41942965  0.67130497  1
  Zn  Zn114  1  0.93691556  0.94326359  0.19387924  1
  Zn  Zn115  1  0.87314141  0.90445427  0.71397391  1
  Zn  Zn116  1  0.06829964  0.05363468  0.30984547  1
  Zn  Zn117  1  -0.04144656  0.05513464  0.79182099  1
  Zn  Zn118  1  0.00165733  0.59929469  0.38748907  1
  Zn  Zn119  1  0.05067471  0.57088271  0.80836272  1
  Zn  Zn120  1  0.55304173  0.05060095  0.28929780  1
  Zn  Zn121  1  0.55706564  0.04916079  0.81259790  1
  Zn  Zn122  1  0.54876920  0.54463851  0.29462128  1
  Zn  Zn123  1  0.55556100  0.54773061  0.79768814  1
  Zn  Zn124  1  0.43654995  0.18999447  0.43467377  1
  Zn  Zn125  1  0.46714541  0.15208011  0.92321067  1
  Zn  Zn126  1  0.43474976  0.67713758  0.45173455  1
  Zn  Zn127  1  0.44202327  0.69047470  0.93394187  1
  Zn  Zn128  1  0.95812735  0.13705952  0.42172084  1
  Zn  Zn129  1  0.93981723  0.19789059  0.94030910  1
  Zn  Zn130  1  0.98887332  0.73863045  0.47945037  1
  Zn  Zn131  1  0.93312637  0.68818693  0.93032797  1
  Zn  Zn132  1  0.06361386  0.31447451  0.05888572  1
  Zn  Zn133  1  0.04938486  0.30020499  0.55815051  1
  Zn  Zn134  1  0.05798212  0.81626114  0.06925093  1
  Zn  Zn135  1  0.06247262  0.83127044  0.58770463  1
  Zn  Zn136  1  0.54588365  0.30565455  0.05601639  1
  Zn  Zn137  1  0.56352487  0.31827685  0.56666229  1
  Zn  Zn138  1  0.57129860  0.80810371  0.07318603  1
  Zn  Zn139  1  0.56327049  0.79775314  0.55865552  1
  O  O140  1  0.11733134  0.12981049  0.11637204  1
  O  O141  1  0.14457390  0.13467908  0.61065298  1
  O  O142  1  0.11460215  0.61783535  0.12956057  1
  O  O143  1  0.10876507  0.63259337  0.61932903  1
  O  O144  1  0.61411585  0.12900079  0.11197642  1
  O  O145  1  0.61077947  0.11132421  0.61141989  1
  O  O146  1  0.62254644  0.61754496  0.12892659  1
  O  O147  1  0.62106244  0.63930106  0.62404356  1
  O  O148  1  0.37063688  0.39111861  0.39145290  1
  O  O149  1  0.38878017  0.38576322  0.86901250  1
  O  O150  1  0.37896877  0.88252287  0.38525451  1
  O  O151  1  0.39659036  0.85755440  0.89033013  1
  O  O152  1  0.87498675  0.38277104  0.36224572  1
  O  O153  1  0.89462347  0.36495944  0.89021386  1
  O  O154  1  0.88804644  0.88243484  0.38172451  1
  O  O155  1  0.88741933  0.87120115  0.89955934  1
  O  O156  1  0.25620837  0.00805106  0.36709983  1
  O  O157  1  0.25523068  0.02291714  0.89290703  1
  O  O158  1  0.24129616  0.49004018  0.35680752  1
  O  O159  1  0.26657128  0.49331278  0.86434730  1
  O  O160  1  0.71261234  -0.01178528  0.33966352  1
  O  O161  1  0.73697233  0.01440121  0.87423602  1
  O  O162  1  0.74864064  0.49289613  0.35360561  1
  O  O163  1  0.71187704  0.57553065  0.87223696  1
  O  O164  1  0.24462852  0.48665189  0.11441535  1
  O  O165  1  0.23752020  0.49307461  0.63919323  1
  O  O166  1  0.25441595  0.99434654  0.12943367  1
  O  O167  1  0.26697171  0.98928095  0.63956519  1
  O  O168  1  0.73429576  0.50262794  0.11835407  1
  O  O169  1  0.73248727  0.49062748  0.60745438  1
  O  O170  1  0.71757693  1.00608875  0.13074109  1
  O  O171  1  0.73261832  1.00388813  0.61479011  1
  O  O172  1  -0.00646749  0.36332314  0.25935674  1
  O  O173  1  0.00498465  0.38598096  0.77622996  1
  O  O174  1  0.01819239  0.88131086  0.24102380  1
  O  O175  1  -0.02030561  0.88602688  0.77454928  1
  O  O176  1  0.51423732  0.36420817  0.24522787  1
  O  O177  1  0.51236929  0.37343325  0.76374230  1
  O  O178  1  0.49077003  0.86005486  0.26539445  1
  O  O179  1  0.50976649  0.86815038  0.75047013  1
  O  O180  1  0.49828042  0.14345402  0.25399823  1
  O  O181  1  0.49045604  0.11482350  0.73247690  1
  O  O182  1  0.48344663  0.63116112  0.25710292  1
  O  O183  1  0.51500243  0.63533304  0.73947725  1
  O  O184  1  0.99585923  0.13307316  0.23788168  1
  O  O185  1  0.93573250  0.12208491  0.65086609  1
  O  O186  1  0.99192261  0.61848438  0.23607308  1
  O  O187  1  0.99096309  0.62146592  0.72699091  1
  O  O188  1  0.36609871  0.24543896  -0.00150606  1
  O  O189  1  0.37638215  0.26416474  0.49429948  1
  O  O190  1  0.36831200  0.75719117  0.00780348  1
  O  O191  1  0.36598291  0.76428102  0.50259616  1
  O  O192  1  0.86460175  0.25826925  0.00403790  1
  O  O193  1  0.85628184  0.25935140  0.48025074  1
  O  O194  1  0.87075769  0.75813360  0.01036120  1
  O  O195  1  0.86995321  0.76165979  0.50177294  1
  O  O196  1  0.12700709  0.25047905  0.48314024  1
  O  O197  1  0.13277559  0.24252879  0.99832501  1
  O  O198  1  0.14580099  0.77021131  0.52787424  1
  O  O199  1  0.13381276  0.75073350  1.00985644  1
  O  O200  1  0.62096508  0.23671620  0.48404055  1
  O  O201  1  0.64513399  0.26200777  1.00327863  1
  O  O202  1  0.65055341  0.75899482  0.49715072  1
  O  O203  1  0.64488017  0.75212980  1.00758474  1
  O  O204  1  0.49085100  0.25013003  0.13418656  1
  O  O205  1  0.50438507  0.23026899  0.61718775  1
  O  O206  1  0.48828861  0.75509097  0.14139393  1
  O  O207  1  0.48560454  0.75613534  0.63000531  1
  O  O208  1  0.99438706  0.24546072  0.12812280  1
  O  O209  1  0.97783629  0.30982246  0.64119334  1
  O  O210  1  0.99028016  0.73326596  0.11631428  1
  O  O211  1  0.98908770  0.74011277  0.60588780  1
  O  O212  1  0.01317127  0.24851500  0.36396573  1
  O  O213  1  0.01970995  0.26361882  0.88524069  1
  O  O214  1  0.02838133  0.70628209  0.37985658  1
  O  O215  1  0.01003210  0.76619036  0.88487457  1
  O  O216  1  0.51106514  0.24712264  0.36741534  1
  O  O217  1  0.48504009  0.26224669  0.88724248  1
  O  O218  1  0.48678996  0.75592949  0.37069362  1
  O  O219  1  0.51453797  0.76259830  0.88305812  1
  O  O220  1  0.24467462  0.12308124  0.48371775  1
  O  O221  1  0.24731603  0.13957512  0.99809095  1
  O  O222  1  0.25452292  0.63642764  0.50954264  1
  O  O223  1  0.25012436  0.64041386  1.00870745  1
  O  O224  1  0.73381552  0.13030242  0.49200445  1
  O  O225  1  0.75294753  0.12999102  1.00573682  1
  O  O226  1  0.75549747  0.64063812  0.49769243  1
  O  O227  1  0.76047004  0.63400304  1.00230533  1
  O  O228  1  0.25093499  0.36422919  0.01027578  1
  O  O229  1  0.26494455  0.38106008  0.51656793  1
  O  O230  1  0.25453293  0.86621856  0.00997976  1
  O  O231  1  0.26123735  0.88506152  0.50049218  1
  O  O232  1  0.76846177  0.38424837  -0.01215242  1
  O  O233  1  0.75162065  0.36378963  0.48496342  1
  O  O234  1  0.76345787  0.87939237  0.00149440  1
  O  O235  1  0.77030752  0.86777607  0.49120323  1
  O  O236  1  0.14657883  0.50367132  0.23041928  1
  O  O237  1  0.13130619  0.49816504  0.76851568  1
  O  O238  1  0.13940928  0.99264020  0.24439772  1
  O  O239  1  0.05871961  1.02992513  0.72660742  1
  O  O240  1  0.61474334  0.48707699  0.22676118  1
  O  O241  1  0.63398636  0.47356766  0.76188535  1
  O  O242  1  0.65470090  0.97724039  0.28311455  1
  O  O243  1  0.62891054  0.99611230  0.73438050  1
  O  O244  1  0.36690339  -0.00929114  0.25923880  1
  O  O245  1  0.37315931  0.00749586  0.75261343  1
  O  O246  1  0.37007051  0.51290288  0.24573319  1
  O  O247  1  0.38345239  0.50571121  0.76158228  1
  O  O248  1  0.86995926  0.02166007  0.23717693  1
  O  O249  1  0.86059327  0.01100380  0.75592758  1
  O  O250  1  0.87090977  0.50441535  0.24412926  1
  O  O251  1  0.88651127  0.49403440  0.73526003  1
  O  O252  1  0.11206495  0.36606229  0.37951597  1
  O  O253  1  0.12356575  0.36584454  0.88733972  1
  O  O254  1  0.12844078  0.88090426  0.36117415  1
  O  O255  1  0.10980669  0.87204922  0.87685233  1
  O  O256  1  0.61524387  0.36870423  0.37353094  1
  O  O257  1  0.61779954  0.35176587  0.86412504  1
  O  O258  1  0.60597302  0.86614975  0.36837352  1
  O  O259  1  0.61128342  0.88336387  0.87527851  1
  O  O260  1  0.40754020  0.10690511  0.08749918  1
  O  O261  1  0.38348068  0.12288334  0.63239848  1
  O  O262  1  0.37242405  0.63443900  0.12601932  1
  O  O263  1  0.39263993  0.63810491  0.62234483  1
  O  O264  1  0.88398935  0.13731454  0.12572443  1
  O  O265  1  0.87025453  0.14247172  0.62325389  1
  O  O266  1  0.88542065  0.62637456  0.13349410  1
  O  O267  1  0.88627338  0.63414961  0.63373231  1
  O  O268  1  0.25327290  0.26293611  0.11793928  1
  O  O269  1  0.26401147  0.27586772  0.63891026  1
  O  O270  1  0.25761644  0.75655798  0.11986890  1
  O  O271  1  0.27162963  0.74852185  0.61685502  1
  O  O272  1  0.76106020  0.25031510  0.11277017  1
  O  O273  1  0.74147081  0.24788019  0.59467098  1
  O  O274  1  0.76908505  0.74528517  0.11709844  1
  O  O275  1  0.77287531  0.74752559  0.61363209  1
  O  O276  1  0.23571888  0.24601503  0.35934379  1
  O  O277  1  0.24833331  0.25140368  0.88724040  1
  O  O278  1  0.24863598  0.75373768  0.39881232  1
  O  O279  1  0.23050320  0.75482635  0.89329100  1
  O  O280  1  0.72599467  0.24769096  0.37953469  1
  O  O281  1  0.75069644  0.23893840  0.89059261  1
  O  O282  1  0.76378851  0.74572784  0.38124011  1
  O  O283  1  0.75637467  0.75188090  0.89958789  1
  O  O284  1  0.00429958  0.12396759  0.00473818  1
  O  O285  1  0.01938663  0.15052966  0.51448231  1
  O  O286  1  -0.00891309  0.60909706  0.00922984  1
  O  O287  1  -0.02731402  0.61726642  0.50599417  1
  O  O288  1  0.46666971  0.10906753  0.03914020  1
  O  O289  1  0.50437920  0.11445479  0.50302846  1
  O  O290  1  0.50580875  0.61130160  -0.00871955  1
  O  O291  1  0.51671710  0.65082056  0.52011029  1
  O  O292  1  0.49446123  0.37224079  0.49767995  1
  O  O293  1  0.51634484  0.38755689  0.97920470  1
  O  O294  1  0.49355757  0.87760823  0.48721983  1
  O  O295  1  0.48969164  0.87080248  1.01668489  1
  O  O296  1  0.97556643  0.36422111  0.47325056  1
  O  O297  1  0.99633069  0.38619658  0.99699094  1
  O  O298  1  0.99409898  0.86073933  0.49524714  1
  O  O299  1  0.99613021  0.88814042  1.00141871  1
  O  O300  1  0.53495749  0.53276683  0.40564550  1
  O  O301  1  0.49248107  0.49579872  0.88021923  1
  O  O302  1  0.49213336  0.98812769  0.37774975  1
  O  O303  1  0.47518926  0.97256775  0.86177026  1
  O  O304  1  1.00055624  0.48493262  0.36509191  1
  O  O305  1  1.01410437  0.49148722  0.89224974  1
  O  O306  1  0.99388898  1.03542986  0.38653167  1
  O  O307  1  0.99343017  0.99622650  0.89020161  1
  O  O308  1  0.00235497  0.01455183  0.11617734  1
  O  O309  1  0.04469703  -0.01898921  0.66511544  1
  O  O310  1  0.01398672  0.50450473  0.12072013  1
  O  O311  1  0.00533164  0.50808484  0.61390790  1
  O  O312  1  0.53670215  0.00088283  0.18046641  1
  O  O313  1  0.50445632  0.00395439  0.61031230  1
  O  O314  1  0.50372861  0.49708229  0.10650149  1
  O  O315  1  0.51136818  0.52079477  0.62988089  1
  O  O316  1  0.26256273  0.38954747  0.23289354  1
  O  O317  1  0.25560055  0.39169866  0.73722385  1
  O  O318  1  0.24805519  0.88291002  0.24125339  1
  O  O319  1  0.28421486  0.90610321  0.81934616  1
  O  O320  1  0.72481423  0.36420658  0.24918460  1
  O  O321  1  0.74912319  0.36129590  0.75157113  1
  O  O322  1  0.74481357  0.84822637  0.25494473  1
  O  O323  1  0.75438798  0.90260453  0.75257675  1
  O  O324  1  0.24576681  0.11491091  0.25771169  1
  O  O325  1  0.26433449  0.13161106  0.76055699  1
  O  O326  1  0.26186863  0.61287120  0.24783604  1
  O  O327  1  0.24580286  0.60688349  0.74194064  1
  O  O328  1  0.75822280  0.13885632  0.24065306  1
  O  O329  1  0.73685284  0.11020533  0.74360118  1
  O  O330  1  0.76437030  0.62757294  0.24579329  1
  O  O331  1  0.77763351  0.61564473  0.74283150  1
  O  O332  1  0.36910100  0.11123066  0.38061289  1
  O  O333  1  0.37418030  0.11124681  0.86150658  1
  O  O334  1  0.37200934  0.62224506  0.37066521  1
  O  O335  1  0.37637560  0.61643593  0.87643688  1
  O  O336  1  0.86591008  0.13725884  0.35709188  1
  O  O337  1  0.90558572  0.15605577  0.83510404  1
  O  O338  1  0.87949316  0.59929977  0.35478560  1
  O  O339  1  0.89935940  0.61722041  0.84994144  1
  O  O340  1  0.12863081  0.38487541  0.12664107  1
  O  O341  1  0.13487140  0.36750657  0.60895445  1
  O  O342  1  0.13761211  0.87910593  0.12936414  1
  O  O343  1  0.09822950  0.92231364  0.65802009  1
  O  O344  1  0.62520613  0.37312560  0.12344363  1
  O  O345  1  0.63062058  0.36645413  0.64215107  1
  O  O346  1  0.62511175  0.87249112  0.15344500  1
  O  O347  1  0.61624364  0.89032533  0.61582169  1
  O  O348  1  0.11460342  0.24672779  0.25468791  1
  O  O349  1  0.13363755  0.24977939  0.76941518  1
  O  O350  1  0.13455318  0.76646693  0.24741057  1
  O  O351  1  0.13621335  0.75513571  0.76034095  1
  O  O352  1  0.61412280  0.25797060  0.25604356  1
  O  O353  1  0.62910744  0.25443868  0.75016135  1
  O  O354  1  0.61193581  0.75202891  0.25232972  1
  O  O355  1  0.66942424  0.75801854  0.76646426  1
  O  O356  1  0.38529209  0.25770910  0.25687129  1
  O  O357  1  0.38026550  0.23451391  0.75671947  1
  O  O358  1  0.37311523  0.73544287  0.24713326  1
  O  O359  1  0.36994726  0.75258042  0.74097787  1
  O  O360  1  0.88233639  0.24434761  0.23911980  1
  O  O361  1  0.89391269  0.21668190  0.78178933  1
  O  O362  1  0.87931130  0.73567753  0.23653606  1
  O  O363  1  0.87422072  0.76681441  0.73417695  1
  O  O364  1  0.38228499  0.47094298  0.55052631  1
  O  O365  1  0.38882210  0.49972896  0.98740413  1
  O  O366  1  0.38286645  0.99152619  0.49272669  1
  O  O367  1  0.36776905  0.97427281  0.97908381  1
  O  O368  1  0.86024682  0.48692906  0.46719817  1
  O  O369  1  0.89115100  0.48831284  1.00754616  1
  O  O370  1  0.88405287  0.98804050  0.50593372  1
  O  O371  1  0.88083712  0.98841524  1.01757522  1
  O  O372  1  0.11851076  0.01509660  -0.00002365  1
  O  O373  1  0.12007153  0.01941002  0.50135328  1
  O  O374  1  0.11854252  0.49896397  0.01195269  1
  O  O375  1  0.13041687  0.51879642  0.48653374  1
  O  O376  1  0.60045987  -0.00806904  0.01743499  1
  O  O377  1  0.61803382  0.00510084  0.49962060  1
  O  O378  1  0.61847459  0.49949786  0.00898370  1
  O  O379  1  0.67652526  0.49694454  0.55835421  1
  O  O380  1  0.37037398  0.38032634  0.11755249  1
  O  O381  1  0.37745999  0.40686874  0.60790566  1
  O  O382  1  0.36909885  0.87020873  0.11812542  1
  O  O383  1  0.38059148  0.86978145  0.61084776  1
  O  O384  1  0.88391691  0.36529080  0.10934748  1
  O  O385  1  0.86087712  0.39001027  0.59310209  1
  O  O386  1  0.88667523  0.85975728  0.12190781  1
  O  O387  1  0.88819727  0.86342472  0.61040912  1
  O  O388  1  0.13318608  0.13707845  0.38165246  1
  O  O389  1  0.13857914  0.14329389  0.88608475  1
  O  O390  1  0.12455809  0.57561842  0.43829009  1
  O  O391  1  0.10862802  0.64720483  0.87318174  1
  O  O392  1  0.61354628  0.11742792  0.38193604  1
  O  O393  1  0.57479437  0.12667640  0.89062525  1
  O  O394  1  0.61518586  0.54482500  0.42677070  1
  O  O395  1  0.64571050  0.60985856  0.87257232  1
