# generated using pymatgen
data_V35Zn35O128
_symmetry_space_group_name_H-M   'P 1'
_cell_length_a   16.87418527
_cell_length_b   16.88840299
_cell_length_c   16.90610579
_cell_angle_alpha   89.94942903
_cell_angle_beta   90.22753511
_cell_angle_gamma   89.94329128
_symmetry_Int_Tables_number   1
_chemical_formula_structural   V35Zn35O128
_chemical_formula_sum   'V70 Zn70 O256'
_cell_volume   4817.82666557
_cell_formula_units_Z   2
loop_
 _symmetry_equiv_pos_site_id
 _symmetry_equiv_pos_as_xyz
  1  'x, y, z'
loop_
 _atom_site_type_symbol
 _atom_site_label
 _atom_site_symmetry_multiplicity
 _atom_site_fract_x
 _atom_site_fract_y
 _atom_site_fract_z
 _atom_site_occupancy
  V  V0  1  0.25315503  0.87971401  0.61359837  1
  V  V1  1  0.61973680  0.36568087  0.24907411  1
  V  V2  1  0.12317555  0.10954685  0.00481578  1
  V  V3  1  0.88607875  0.62199478  0.76190083  1
  V  V4  1  0.25823582  0.75138783  -0.00171267  1
  V  V5  1  0.50614435  0.89458310  0.87692949  1
  V  V6  1  0.25058143  0.37606221  0.62016038  1
  V  V7  1  0.63448808  0.38091572  0.76087101  1
  V  V8  1  0.91031032  0.73770097  0.63007608  1
  V  V9  1  0.37786011  -0.00212304  0.38667073  1
  V  V10  1  0.12327329  0.50039202  0.12565466  1
  V  V11  1  0.76001752  0.11549977  0.87299900  1
  V  V12  1  0.50470059  0.12679886  0.60978992  1
  V  V13  1  0.48575206  0.24512572  0.75517431  1
  V  V14  1  0.74898204  0.49965998  0.25875965  1
  V  V15  1  0.11898913  -0.00047921  0.60696140  1
  V  V16  1  0.11706362  0.63386541  0.00582755  1
  V  V17  1  0.62965631  0.76406390  0.37106139  1
  V  V18  1  0.35886846  0.25726667  0.11815865  1
  V  V19  1  0.13208424  0.24173536  0.88953179  1
  V  V20  1  0.50212485  0.76392502  0.24078463  1
  V  V21  1  0.61225226  0.12470145  0.00150265  1
  V  V22  1  0.12791220  0.64203742  0.47576993  1
  V  V23  1  0.00368033  0.49989004  0.50351816  1
  V  V24  1  0.64544529  0.62224811  0.49135337  1
  V  V25  1  0.23638073  0.13525865  0.40219658  1
  V  V26  1  0.89264536  0.12242897  0.74276573  1
  V  V27  1  0.76775922  0.25194952  0.00699708  1
  V  V28  1  0.75120730  0.73727496  0.01079229  1
  V  V29  1  0.62011613  -0.00576297  0.13075207  1
  V  V30  1  0.12259629  0.37972135  0.27096879  1
  V  V31  1  0.38247100  0.89258600  -0.00320596  1
  V  V32  1  0.50759824  0.75480929  0.75372380  1
  V  V33  1  0.25622696  0.88024341  0.12406296  1
  V  V34  1  -0.00796284  0.36704051  0.88455635  1
  V  V35  1  -0.01283734  0.88491579  0.87737112  1
  V  V36  1  0.00637508  0.75482624  0.26699703  1
  V  V37  1  0.62271701  0.24769497  0.87513357  1
  V  V38  1  0.86910965  0.63532344  0.26417192  1
  V  V39  1  0.89588621  -0.01080924  0.37925482  1
  V  V40  1  0.00836387  0.13156317  0.60089338  1
  V  V41  1  0.62474960  0.49753074  0.61842737  1
  V  V42  1  0.12911281  0.87359988  0.26077951  1
  V  V43  1  -0.00882990  0.63556940  0.12673085  1
  V  V44  1  0.86642069  0.88193538  0.02740570  1
  V  V45  1  0.25970958  0.50939617  0.26333970  1
  V  V46  1  0.34398602  0.12448588  0.24950149  1
  V  V47  1  0.11634209  0.74696408  0.86608695  1
  V  V48  1  0.37305776  0.61960740  0.76068118  1
  V  V49  1  0.38652878  0.62517496  0.21505966  1
  V  V50  1  0.61764185  0.24772487  0.38513795  1
  V  V51  1  0.12181321  0.51805365  0.63920270  1
  V  V52  1  0.48806325  0.38196027  0.38828679  1
  V  V53  1  0.76823995  0.36848044  0.62201695  1
  V  V54  1  0.49857249  0.13719081  0.14295374  1
  V  V55  1  0.61655719  0.50863376  0.11904245  1
  V  V56  1  0.88195784  0.86817075  0.51890768  1
  V  V57  1  0.88114980  0.48677763  0.38225147  1
  V  V58  1  0.10865750  -0.00735799  0.12155287  1
  V  V59  1  0.77451005  0.25379870  0.49505516  1
  V  V60  1  0.36751312  0.24868632  0.60958994  1
  V  V61  1  0.74849111  0.12360822  0.37644453  1
  V  V62  1  0.48249804  0.38111296  0.89068771  1
  V  V63  1  0.74502022  -0.00925295  0.24920398  1
  V  V64  1  0.12489707  0.88597576  0.75152663  1
  V  V65  1  0.44794871  0.56933806  0.56956201  1
  V  V66  1  0.26056037  0.10727488  0.86123058  1
  V  V67  1  0.88917014  0.13354243  0.24264896  1
  V  V68  1  0.37868773  0.76290223  0.62015017  1
  V  V69  1  0.12020143  0.34969315  0.74337293  1
  Zn  Zn70  1  0.24774427  0.61542882  0.87189353  1
  Zn  Zn71  1  0.74269968  0.00032101  0.72415297  1
  Zn  Zn72  1  0.62985711  0.75883172  0.87956144  1
  Zn  Zn73  1  0.75851556  0.51095789  0.76120209  1
  Zn  Zn74  1  0.75504679  0.37308840  0.12335513  1
  Zn  Zn75  1  0.25402398  0.38229388  0.12039165  1
  Zn  Zn76  1  0.16416940  0.20143095  0.18165663  1
  Zn  Zn77  1  0.19313656  0.17885262  0.68240938  1
  Zn  Zn78  1  0.19123026  0.69355501  0.18989654  1
  Zn  Zn79  1  0.19678839  0.69806185  0.68848183  1
  Zn  Zn80  1  0.69563822  0.18533532  0.18914718  1
  Zn  Zn81  1  0.70791603  0.15749681  0.65691934  1
  Zn  Zn82  1  0.68301880  0.69136227  0.18824522  1
  Zn  Zn83  1  0.68331209  0.67348404  0.69213579  1
  Zn  Zn84  1  0.30507290  0.30789953  0.30757075  1
  Zn  Zn85  1  0.30056321  0.31559841  0.81386623  1
  Zn  Zn86  1  0.33013452  0.81599931  0.29814729  1
  Zn  Zn87  1  0.33166833  0.85041408  0.79014257  1
  Zn  Zn88  1  0.81363334  0.31176987  0.31044438  1
  Zn  Zn89  1  0.81303128  0.29992472  0.80858734  1
  Zn  Zn90  1  0.80904870  0.81172032  0.31487927  1
  Zn  Zn91  1  0.82227197  0.78473783  0.82255852  1
  Zn  Zn92  1  0.19618556  0.45517210  0.44573226  1
  Zn  Zn93  1  0.13865042  0.44688172  0.92804757  1
  Zn  Zn94  1  0.20452714  0.94691190  0.43349295  1
  Zn  Zn95  1  0.18806732  0.93493754  0.93643880  1
  Zn  Zn96  1  0.68884484  0.43375460  0.43716944  1
  Zn  Zn97  1  0.68283276  0.43098989  0.93992108  1
  Zn  Zn98  1  0.70145882  0.92709056  0.44105024  1
  Zn  Zn99  1  0.69324014  0.93683791  0.94879599  1
  Zn  Zn100  1  0.30694715  0.06942293  0.05851141  1
  Zn  Zn101  1  0.31420922  0.06377350  0.56733127  1
  Zn  Zn102  1  0.29843373  0.57384089  0.06986624  1
  Zn  Zn103  1  0.28781200  0.57230265  0.57749862  1
  Zn  Zn104  1  0.81200040  0.06528256  0.06366304  1
  Zn  Zn105  1  0.82575257  0.06061591  0.55691763  1
  Zn  Zn106  1  0.80431336  0.56154960  0.07454507  1
  Zn  Zn107  1  0.81611272  0.56077740  0.57174939  1
  Zn  Zn108  1  0.44052152  0.43327755  0.19242770  1
  Zn  Zn109  1  0.43807496  0.42791514  0.69617382  1
  Zn  Zn110  1  0.43536501  0.94921436  0.18849311  1
  Zn  Zn111  1  0.44672466  0.95015512  0.69292370  1
  Zn  Zn112  1  0.94468710  0.44748597  0.19697307  1
  Zn  Zn113  1  0.94494936  0.44053188  0.69583048  1
  Zn  Zn114  1  0.93558890  0.93969793  0.19986417  1
  Zn  Zn115  1  0.93848004  0.94208526  0.69676976  1
  Zn  Zn116  1  0.07371870  0.06064076  0.30932552  1
  Zn  Zn117  1  0.06815290  0.05929229  0.81507559  1
  Zn  Zn118  1  0.06243347  0.56217405  0.31321289  1
  Zn  Zn119  1  0.05174657  0.55813924  0.81657801  1
  Zn  Zn120  1  0.56160871  0.06190174  0.31782408  1
  Zn  Zn121  1  0.57337122  0.06034349  0.79867327  1
  Zn  Zn122  1  0.55833600  0.55769796  0.31497003  1
  Zn  Zn123  1  0.54275386  0.55341916  0.80248564  1
  Zn  Zn124  1  0.42880893  0.19064368  0.42991249  1
  Zn  Zn125  1  0.42931503  0.18688454  0.93883133  1
  Zn  Zn126  1  0.45196734  0.70375334  0.43648402  1
  Zn  Zn127  1  0.43536560  0.69817416  0.92792317  1
  Zn  Zn128  1  0.94004359  0.17960579  0.42370632  1
  Zn  Zn129  1  0.94510467  0.18337833  0.93144086  1
  Zn  Zn130  1  0.93987904  0.68565729  0.44674610  1
  Zn  Zn131  1  0.93189411  0.69821564  0.94376518  1
  Zn  Zn132  1  0.05330085  0.30366923  0.06863449  1
  Zn  Zn133  1  0.05575105  0.32015898  0.55825726  1
  Zn  Zn134  1  0.05216233  0.81485976  0.06195817  1
  Zn  Zn135  1  0.06357690  0.81925769  0.55201072  1
  Zn  Zn136  1  0.56028986  0.31357346  0.06435848  1
  Zn  Zn137  1  0.56513313  0.30765632  0.56735479  1
  Zn  Zn138  1  0.56748282  0.80733466  0.05955094  1
  Zn  Zn139  1  0.57537926  0.80431505  0.56347721  1
  O  O140  1  0.13536800  0.10069679  0.11404888  1
  O  O141  1  0.11956151  0.10781104  0.62559480  1
  O  O142  1  0.11868730  0.62733083  0.12180265  1
  O  O143  1  0.13048105  0.61777293  0.63613992  1
  O  O144  1  0.61310680  0.13170456  0.12021359  1
  O  O145  1  0.60056024  0.15877029  0.62081604  1
  O  O146  1  0.62393250  0.60716226  0.13739336  1
  O  O147  1  0.62963703  0.61150188  0.61040588  1
  O  O148  1  0.39170703  0.35986107  0.36510010  1
  O  O149  1  0.38388585  0.36720344  0.86979542  1
  O  O150  1  0.35716315  0.89888237  0.36643850  1
  O  O151  1  0.38444460  0.87257998  0.89241483  1
  O  O152  1  0.87834438  0.38805278  0.37362265  1
  O  O153  1  0.89355749  0.36311648  0.86255197  1
  O  O154  1  0.87616401  0.88877345  0.36644248  1
  O  O155  1  0.88910945  0.87397354  0.85419412  1
  O  O156  1  0.26224636  0.02544646  0.37723419  1
  O  O157  1  0.24501865  0.00604842  0.87270550  1
  O  O158  1  0.25784390  0.51149864  0.36221305  1
  O  O159  1  0.24619655  0.49558641  0.89489647  1
  O  O160  1  0.74088632  0.00859115  0.36687745  1
  O  O161  1  0.74665912  0.01672618  0.88507425  1
  O  O162  1  0.76379791  0.49514165  0.36882681  1
  O  O163  1  0.71077132  0.43627145  0.82977947  1
  O  O164  1  0.23783819  0.50305883  0.13168028  1
  O  O165  1  0.23045508  0.48758344  0.63035118  1
  O  O166  1  0.24226023  0.98211055  0.11821260  1
  O  O167  1  0.24012982  0.98696751  0.62259812  1
  O  O168  1  0.74069770  0.49428933  0.14397271  1
  O  O169  1  0.74452289  0.48062568  0.62686148  1
  O  O170  1  0.73609111  1.01274731  0.14277123  1
  O  O171  1  0.73821669  1.05201245  0.62283502  1
  O  O172  1  0.02193908  0.38602856  0.24989268  1
  O  O173  1  0.01640437  0.37246480  0.75606082  1
  O  O174  1  0.01418512  0.86309720  0.24863727  1
  O  O175  1  0.01605796  0.87499194  0.75830109  1
  O  O176  1  0.51703615  0.37243915  0.26091411  1
  O  O177  1  0.51194029  0.36416431  0.75968921  1
  O  O178  1  0.48545279  0.86313141  0.24574945  1
  O  O179  1  0.49885383  0.86788989  0.76756092  1
  O  O180  1  0.50182571  0.13417626  0.24218508  1
  O  O181  1  0.50670854  0.14464291  0.74834135  1
  O  O182  1  0.48290813  0.61886723  0.25223544  1
  O  O183  1  0.48697433  0.64343249  0.75831507  1
  O  O184  1  0.98830749  0.11530715  0.25570870  1
  O  O185  1  0.99371210  0.11917004  0.75183903  1
  O  O186  1  0.99376905  0.63808086  0.24800166  1
  O  O187  1  0.98810334  0.62391139  0.75144666  1
  O  O188  1  0.37188275  0.24098936  0.01977987  1
  O  O189  1  0.37456660  0.25709437  0.51199489  1
  O  O190  1  0.36076191  0.75095526  -0.00218098  1
  O  O191  1  0.39895852  0.75599206  0.52274558  1
  O  O192  1  0.86628802  0.24105039  -0.00490558  1
  O  O193  1  0.87351439  0.25632154  0.48325646  1
  O  O194  1  0.86140553  0.76775688  -0.00292653  1
  O  O195  1  0.88301229  0.75318187  0.52208282  1
  O  O196  1  0.08837737  0.26175295  0.44573254  1
  O  O197  1  0.13325843  0.23986185  0.99130591  1
  O  O198  1  0.11756264  0.74135647  0.49273383  1
  O  O199  1  0.12378927  0.74481392  0.99512513  1
  O  O200  1  0.63524445  0.25401610  0.48586546  1
  O  O201  1  0.62644791  0.23786531  0.99566500  1
  O  O202  1  0.62035990  0.73349624  0.48617371  1
  O  O203  1  0.64070232  0.74968559  0.99776214  1
  O  O204  1  0.49050866  0.23923730  0.12392971  1
  O  O205  1  0.48232252  0.25576439  0.63682747  1
  O  O206  1  0.51508864  0.74805747  0.14149352  1
  O  O207  1  0.49875067  0.77049115  0.64409841  1
  O  O208  1  1.05779630  0.22992218  0.14727417  1
  O  O209  1  1.01749551  0.23132517  0.61310408  1
  O  O210  1  1.00244602  0.73980612  0.13915140  1
  O  O211  1  1.00856891  0.74706046  0.63135495  1
  O  O212  1  0.03291271  0.25641186  0.39534862  1
  O  O213  1  0.01895108  0.25376397  0.87283461  1
  O  O214  1  -0.00204909  0.75009894  0.36492484  1
  O  O215  1  0.01334908  0.76016758  0.87978548  1
  O  O216  1  0.51543038  0.25148854  0.37604155  1
  O  O217  1  0.50086313  0.24969705  0.86828549  1
  O  O218  1  0.51375133  0.74553358  0.35717853  1
  O  O219  1  0.50615981  0.76341825  0.86801122  1
  O  O220  1  0.24321933  0.13057135  0.50339209  1
  O  O221  1  0.23263639  0.11664959  0.98614236  1
  O  O222  1  0.22605406  0.62544265  0.50394423  1
  O  O223  1  0.23872076  0.63954517  0.99857770  1
  O  O224  1  0.76477378  0.13995185  0.48430489  1
  O  O225  1  0.74450279  0.13559865  0.99252580  1
  O  O226  1  0.74469966  0.62252933  0.50090212  1
  O  O227  1  0.76819589  0.63587905  0.99960703  1
  O  O228  1  0.24974883  0.40324748  -0.00783048  1
  O  O229  1  0.24046433  0.37838735  0.52019387  1
  O  O230  1  0.26056301  0.86875374  0.00385316  1
  O  O231  1  0.24285771  0.87101634  0.51501733  1
  O  O232  1  0.74824153  0.35548885  0.00095105  1
  O  O233  1  0.75220321  0.36398306  0.50858847  1
  O  O234  1  0.76062553  0.87043598  0.01005553  1
  O  O235  1  0.78068075  0.86871673  0.49424675  1
  O  O236  1  0.14030804  0.50655160  0.24263469  1
  O  O237  1  0.11702560  0.49598536  0.73905568  1
  O  O238  1  0.12340950  0.98109717  0.23507304  1
  O  O239  1  0.12937857  0.98704329  0.74495406  1
  O  O240  1  0.63380475  0.48686513  0.25285167  1
  O  O241  1  0.61602250  0.49702948  0.73276917  1
  O  O242  1  0.63340456  1.00725715  0.24351111  1
  O  O243  1  0.63860241  0.98200499  0.75508821  1
  O  O244  1  0.37126541  0.02186405  0.24874738  1
  O  O245  1  0.35676447  -0.04235403  0.75677456  1
  O  O246  1  0.36721902  0.51299335  0.23906729  1
  O  O247  1  0.38664544  0.52123131  0.74215489  1
  O  O248  1  0.86215312  0.00630410  0.26122768  1
  O  O249  1  0.85839188  0.01537615  0.73908510  1
  O  O250  1  0.87230203  0.51020756  0.26505813  1
  O  O251  1  0.87674470  0.51345315  0.75046592  1
  O  O252  1  0.13083216  0.40169837  0.36858764  1
  O  O253  1  0.12774682  0.35176941  0.86209920  1
  O  O254  1  0.14301587  0.88122061  0.35756533  1
  O  O255  1  0.12064079  0.86632941  0.86650449  1
  O  O256  1  0.62294457  0.36447089  0.36864274  1
  O  O257  1  0.60479914  0.35806291  0.88018158  1
  O  O258  1  0.62519201  0.86358585  0.37945553  1
  O  O259  1  0.60827239  0.88168959  0.89333831  1
  O  O260  1  0.38133902  0.12787087  0.13245767  1
  O  O261  1  0.37974113  0.14401279  0.62531610  1
  O  O262  1  0.39155376  0.61955479  0.11424846  1
  O  O263  1  0.38343465  0.63695987  0.63039671  1
  O  O264  1  0.87164234  0.12127951  0.14373998  1
  O  O265  1  0.90299596  0.11737127  0.62820023  1
  O  O266  1  0.88905155  0.61776158  0.14152784  1
  O  O267  1  0.88558921  0.63538493  0.62582177  1
  O  O268  1  0.25384177  0.26041821  0.12272492  1
  O  O269  1  0.25914689  0.25876041  0.62865534  1
  O  O270  1  0.23948569  0.76306383  0.10579794  1
  O  O271  1  0.26977993  0.75971390  0.62402443  1
  O  O272  1  0.75257235  0.24933976  0.11208132  1
  O  O273  1  0.75641300  0.25208141  0.60179680  1
  O  O274  1  0.74660499  0.74602862  0.11310975  1
  O  O275  1  0.70796331  0.79662299  0.64475257  1
  O  O276  1  0.25524570  0.23409472  0.37908119  1
  O  O277  1  0.23548574  0.23540526  0.86683835  1
  O  O278  1  0.28758583  0.72833069  0.38118041  1
  O  O279  1  0.23046157  0.75258401  0.89276070  1
  O  O280  1  0.74552584  0.24686580  0.38321242  1
  O  O281  1  0.74008237  0.24223539  0.88650904  1
  O  O282  1  0.73021890  0.74599008  0.36242431  1
  O  O283  1  0.74214051  0.75597841  0.88929731  1
  O  O284  1  0.02338605  0.12602880  -0.00704536  1
  O  O285  1  0.00178596  0.12093307  0.50232254  1
  O  O286  1  0.00102852  0.63586328  0.01804470  1
  O  O287  1  0.01676526  0.61486924  0.49435365  1
  O  O288  1  0.51040989  0.12526273  0.00601833  1
  O  O289  1  0.49105249  0.13358191  0.50984801  1
  O  O290  1  0.52759739  0.62089947  -0.03312290  1
  O  O291  1  0.50425529  0.62065421  0.50221218  1
  O  O292  1  0.50392765  0.36665578  0.48786545  1
  O  O293  1  0.49339661  0.36725367  0.99046808  1
  O  O294  1  0.49630370  0.88981711  0.51602003  1
  O  O295  1  0.48784379  0.87240296  0.99684535  1
  O  O296  1  1.00711763  0.39900623  0.49550697  1
  O  O297  1  1.00347963  0.35886065  0.98678454  1
  O  O298  1  0.98134454  0.87035723  0.49162768  1
  O  O299  1  0.98027498  0.86805943  0.98667431  1
  O  O300  1  0.49817174  0.48177059  0.37590520  1
  O  O301  1  0.49891506  0.48030432  0.87499775  1
  O  O302  1  0.47927181  1.01058534  0.36998119  1
  O  O303  1  0.49968737  0.99338951  0.86746980  1
  O  O304  1  0.98784933  0.50568216  0.38219336  1
  O  O305  1  1.02749566  0.47004845  0.88351192  1
  O  O306  1  0.99369629  0.99604814  0.36812361  1
  O  O307  1  1.00599023  0.98347102  0.87557888  1
  O  O308  1  0.01005326  -0.00725689  0.12649319  1
  O  O309  1  0.01552372  0.00157428  0.62595062  1
  O  O310  1  0.01762700  0.52274035  0.14090438  1
  O  O311  1  0.01139412  0.49922768  0.61545524  1
  O  O312  1  0.51321681  0.01852023  0.13358762  1
  O  O313  1  0.49970388  0.02723022  0.63388482  1
  O  O314  1  0.51752822  0.48788453  0.12897242  1
  O  O315  1  0.50556769  0.49811596  0.62121197  1
  O  O316  1  0.24810528  0.39904446  0.24785412  1
  O  O317  1  0.22850553  0.37167259  0.74127127  1
  O  O318  1  0.23973137  0.85808692  0.23051351  1
  O  O319  1  0.22830772  0.85914102  0.73625219  1
  O  O320  1  0.74647630  0.38280608  0.24847024  1
  O  O321  1  0.74259800  0.34602007  0.72395493  1
  O  O322  1  0.75027422  0.89221225  0.25132065  1
  O  O323  1  0.73101420  0.84220797  0.70052831  1
  O  O324  1  0.24461571  0.12699469  0.23801692  1
  O  O325  1  0.24799691  0.11882093  0.76049125  1
  O  O326  1  0.27143257  0.62176945  0.23524253  1
  O  O327  1  0.26732755  0.63174986  0.75254322  1
  O  O328  1  0.75981955  0.12127615  0.26316733  1
  O  O329  1  0.73659350  0.12944169  0.77301654  1
  O  O330  1  0.76555942  0.61857518  0.24555084  1
  O  O331  1  0.76844938  0.62241154  0.74132603  1
  O  O332  1  0.36143077  0.12569970  0.36086711  1
  O  O333  1  0.35915909  0.12242187  0.88036365  1
  O  O334  1  0.33529819  0.67058398  0.39173476  1
  O  O335  1  0.37058459  0.62597269  0.86648762  1
  O  O336  1  0.86972765  0.10670871  0.36882190  1
  O  O337  1  0.86651440  0.12437823  0.86445963  1
  O  O338  1  0.87675199  0.62294229  0.36595975  1
  O  O339  1  0.87898441  0.63892445  0.86196608  1
  O  O340  1  0.12375496  0.39677935  0.12403907  1
  O  O341  1  0.12851261  0.37125921  0.63337279  1
  O  O342  1  0.13074343  0.88138444  0.12076274  1
  O  O343  1  0.12913337  0.88161366  0.63107047  1
  O  O344  1  0.62763455  0.37352776  0.14107711  1
  O  O345  1  0.62683982  0.38185324  0.63630262  1
  O  O346  1  0.61636179  0.89699593  0.12031980  1
  O  O347  1  0.62328768  0.92295530  0.53599250  1
  O  O348  1  0.14792441  0.28214748  0.26428324  1
  O  O349  1  0.12155258  0.24861641  0.74653937  1
  O  O350  1  0.11654300  0.75884710  0.25123948  1
  O  O351  1  0.12470192  0.74845727  0.76467044  1
  O  O352  1  0.63875645  0.26221906  0.26109690  1
  O  O353  1  0.61866837  0.26225679  0.76708022  1
  O  O354  1  0.61430027  0.74766790  0.25988664  1
  O  O355  1  0.61092501  0.73607150  0.75785268  1
  O  O356  1  0.36570415  0.23175576  0.23458205  1
  O  O357  1  0.38504289  0.25413286  0.75085473  1
  O  O358  1  0.38806877  0.73363858  0.24224683  1
  O  O359  1  0.38599631  0.74860419  0.74166856  1
  O  O360  1  0.88005356  0.23361448  0.26459478  1
  O  O361  1  0.86474379  0.21971738  0.74199089  1
  O  O362  1  0.88416458  0.74092868  0.25661933  1
  O  O363  1  0.87406923  0.74050001  0.73207323  1
  O  O364  1  0.37808112  0.51851244  0.52067925  1
  O  O365  1  0.28951622  0.46866145  0.96407959  1
  O  O366  1  0.37329431  1.00591044  0.48832235  1
  O  O367  1  0.37627768  0.99097868  1.00398915  1
  O  O368  1  0.88743693  0.50961001  0.49111914  1
  O  O369  1  0.87761041  0.46719248  1.04653812  1
  O  O370  1  0.87894461  0.98827748  0.48688961  1
  O  O371  1  0.86855634  0.98294931  1.00960916  1
  O  O372  1  0.12120170  -0.00107850  0.00795745  1
  O  O373  1  0.12346403  -0.01053367  0.50882612  1
  O  O374  1  0.12480569  0.52086094  0.01728715  1
  O  O375  1  0.11734639  0.51354795  0.51133266  1
  O  O376  1  0.63578820  0.01941774  0.01978686  1
  O  O377  1  0.54780177  -0.05336565  0.50542056  1
  O  O378  1  0.64021817  0.49528858  0.02049235  1
  O  O379  1  0.63194111  0.50589253  0.50835483  1
  O  O380  1  0.37500403  0.36034167  0.13243040  1
  O  O381  1  0.35740966  0.36921509  0.63552471  1
  O  O382  1  0.36305800  0.87966029  0.11604539  1
  O  O383  1  0.36446847  0.87215017  0.62856884  1
  O  O384  1  0.87746702  0.41128564  0.10449641  1
  O  O385  1  0.86641692  0.37818451  0.63068027  1
  O  O386  1  0.88018325  0.87189965  0.12642890  1
  O  O387  1  0.88615742  0.86204170  0.62481163  1
  O  O388  1  0.13798327  0.12104001  0.37615206  1
  O  O389  1  0.13149377  0.12818030  0.88091325  1
  O  O390  1  0.13032429  0.62891592  0.37493006  1
  O  O391  1  0.12157001  0.63322770  0.88423208  1
  O  O392  1  0.63460382  0.13957813  0.36819529  1
  O  O393  1  0.62486595  0.12883899  0.88971229  1
  O  O394  1  0.62652007  0.61425409  0.39018482  1
  O  O395  1  0.58348525  0.61639118  0.91615931  1
