# generated using pymatgen
data_V35Zn35O128
_symmetry_space_group_name_H-M   'P 1'
_cell_length_a   17.01282989
_cell_length_b   16.98017636
_cell_length_c   17.16239748
_cell_angle_alpha   90.11276087
_cell_angle_beta   90.18794125
_cell_angle_gamma   90.78029077
_symmetry_Int_Tables_number   1
_chemical_formula_structural   V35Zn35O128
_chemical_formula_sum   'V70 Zn70 O256'
_cell_volume   4957.39153616
_cell_formula_units_Z   2
loop_
 _symmetry_equiv_pos_site_id
 _symmetry_equiv_pos_as_xyz
  1  'x, y, z'
loop_
 _atom_site_type_symbol
 _atom_site_label
 _atom_site_symmetry_multiplicity
 _atom_site_fract_x
 _atom_site_fract_y
 _atom_site_fract_z
 _atom_site_occupancy
  V  V0  1  0.09464096  0.60469488  -0.02677407  1
  V  V1  1  0.25366148  0.25581952  0.49863604  1
  V  V2  1  0.36776882  0.49577793  0.88378830  1
  V  V3  1  0.25153356  0.76389360  0.50203253  1
  V  V4  1  0.62555693  0.63953858  0.00492683  1
  V  V5  1  0.37512413  0.76590034  0.62543282  1
  V  V6  1  0.37614457  0.24957375  0.12249869  1
  V  V7  1  0.39098161  0.50586575  0.37802572  1
  V  V8  1  0.51095870  -0.00251232  0.00607914  1
  V  V9  1  0.63269943  0.24851810  0.38352007  1
  V  V10  1  0.12739489  0.12429201  0.51656238  1
  V  V11  1  0.51272424  0.88112019  0.37214114  1
  V  V12  1  0.36679916  0.61050104  0.74523530  1
  V  V13  1  0.11591983  0.51222232  0.13037672  1
  V  V14  1  0.76204416  0.61791107  0.86250071  1
  V  V15  1  0.50722723  0.00849942  0.50481001  1
  V  V16  1  0.23703595  0.87648513  0.12290048  1
  V  V17  1  0.62402059  0.49892772  0.12453397  1
  V  V18  1  -0.00327111  0.25080617  0.75307377  1
  V  V19  1  -0.00068392  0.00118839  0.53297501  1
  V  V20  1  0.86978562  -0.00659604  0.86605931  1
  V  V21  1  -0.00694349  0.23207136  0.24992652  1
  V  V22  1  0.60154404  0.88192115  0.74830931  1
  V  V23  1  0.37615558  0.12510561  0.24603188  1
  V  V24  1  0.13294500  0.62385152  0.48985046  1
  V  V25  1  0.74636267  0.37279200  0.13014838  1
  V  V26  1  0.88633436  0.38142470  -0.00217102  1
  V  V27  1  0.39543475  0.37867487  0.00732749  1
  V  V28  1  0.39755657  0.25814075  0.62479340  1
  V  V29  1  0.73942703  0.24686042  0.00304242  1
  V  V30  1  0.75773515  0.12834446  0.40460495  1
  V  V31  1  0.37347544  0.62954107  0.25418845  1
  V  V32  1  0.87011049  0.36871869  0.49975871  1
  V  V33  1  0.50193226  0.62540848  0.12769784  1
  V  V34  1  0.49207359  0.75067391  0.77100631  1
  V  V35  1  0.37479947  0.87299561  -0.01082892  1
  V  V36  1  0.51213612  0.12063198  0.12574148  1
  V  V37  1  0.87775625  0.00339011  0.35464654  1
  V  V38  1  0.24559329  0.72402508  -0.00571780  1
  V  V39  1  0.39340679  0.38668291  0.49451230  1
  V  V40  1  0.86993657  0.12709788  0.74156270  1
  V  V41  1  0.12702120  0.49017045  0.62231876  1
  V  V42  1  0.86407951  0.25617892  0.62110330  1
  V  V43  1  0.12742432  0.25449219  0.36949539  1
  V  V44  1  0.24696211  0.37530844  0.62040923  1
  V  V45  1  0.37080432  -0.00610699  0.38075055  1
  V  V46  1  0.62091123  0.25492376  0.86063699  1
  V  V47  1  0.76452991  0.75665246  -0.00015383  1
  V  V48  1  0.25171001  0.49337703  0.25393559  1
  V  V49  1  0.25230630  0.12896280  0.37418670  1
  V  V50  1  0.12481782  0.85828192  0.26279166  1
  V  V51  1  0.51706965  0.76250312  0.24996075  1
  V  V52  1  0.87915435  0.50409566  0.37124099  1
  V  V53  1  0.51078354  0.38507115  0.86349988  1
  V  V54  1  0.00423243  0.37198484  0.36650604  1
  V  V55  1  0.24853369  0.37522278  0.12273796  1
  V  V56  1  0.72821885  0.86959883  0.14903021  1
  V  V57  1  0.87358579  0.23662248  0.12825236  1
  V  V58  1  0.73831385  0.12609924  0.87774342  1
  V  V59  1  0.00568458  0.49646193  0.49724212  1
  V  V60  1  0.24008922  0.00098132  0.24443456  1
  V  V61  1  0.37104009  0.75630390  0.12967228  1
  V  V62  1  0.38245086  0.02631007  0.87638458  1
  V  V63  1  0.74513480  0.63403048  0.38602279  1
  V  V64  1  -0.00108484  0.63590326  0.62677672  1
  V  V65  1  0.12020412  0.36930215  0.75566810  1
  V  V66  1  0.05046799  0.83681664  0.86266567  1
  V  V67  1  0.73056400  0.00162396  0.73340776  1
  V  V68  1  0.74927943  0.49848961  0.24659361  1
  V  V69  1  0.88164408  0.62922475  0.23085688  1
  Zn  Zn70  1  0.24891883  0.63072728  0.37235014  1
  Zn  Zn71  1  0.52830849  0.27651066  0.25362922  1
  Zn  Zn72  1  0.25313136  0.16258974  0.89506053  1
  Zn  Zn73  1  0.22589032  -0.01445832  0.73434806  1
  Zn  Zn74  1  -0.00493942  0.88397875  0.38160832  1
  Zn  Zn75  1  0.34709220  0.11482558  0.72345880  1
  Zn  Zn76  1  0.19211730  0.19780479  0.19511601  1
  Zn  Zn77  1  0.15574272  0.14681620  0.72912635  1
  Zn  Zn78  1  0.18851716  0.68835897  0.18663447  1
  Zn  Zn79  1  0.20593590  0.65944602  0.67191320  1
  Zn  Zn80  1  0.68883080  0.18721015  0.18992899  1
  Zn  Zn81  1  0.68972915  0.20074812  0.68945236  1
  Zn  Zn82  1  0.69970499  0.68872263  0.18508587  1
  Zn  Zn83  1  0.65633509  0.66986781  0.69790770  1
  Zn  Zn84  1  0.35741535  0.33182920  0.29576466  1
  Zn  Zn85  1  0.29309668  0.27874171  0.78786233  1
  Zn  Zn86  1  0.30554675  0.81437804  0.31485664  1
  Zn  Zn87  1  0.30781468  0.79826487  0.81363793  1
  Zn  Zn88  1  0.81528872  0.30751513  0.31252227  1
  Zn  Zn89  1  0.81775365  0.30992423  0.82111244  1
  Zn  Zn90  1  0.81742558  0.81198891  0.31670247  1
  Zn  Zn91  1  0.75163606  0.82700222  0.83976585  1
  Zn  Zn92  1  0.19510350  0.43794428  0.43182400  1
  Zn  Zn93  1  0.21872954  0.37541988  0.91939992  1
  Zn  Zn94  1  0.18354756  0.94080599  0.44278106  1
  Zn  Zn95  1  0.20955195  0.93533983  0.92460621  1
  Zn  Zn96  1  0.70158410  0.41987392  0.41020183  1
  Zn  Zn97  1  0.68943453  0.44048467  0.94610606  1
  Zn  Zn98  1  0.68185119  0.95933011  0.42331541  1
  Zn  Zn99  1  0.68027499  0.93873611  0.93015687  1
  Zn  Zn100  1  0.31559396  0.05624200  0.06170404  1
  Zn  Zn101  1  0.31835281  0.06989311  0.56135985  1
  Zn  Zn102  1  0.32223648  0.55101629  0.07021899  1
  Zn  Zn103  1  0.31529511  0.55923706  0.56132791  1
  Zn  Zn104  1  0.84985692  0.03046937  0.08164928  1
  Zn  Zn105  1  0.81422933  0.05643139  0.56814848  1
  Zn  Zn106  1  0.81151455  0.56156720  0.05300142  1
  Zn  Zn107  1  0.81921526  0.56712885  0.55651937  1
  Zn  Zn108  1  0.44327117  0.44058595  0.19225593  1
  Zn  Zn109  1  0.43470171  0.43245627  0.69200057  1
  Zn  Zn110  1  0.43311602  0.94133423  0.18977804  1
  Zn  Zn111  1  0.40949194  0.96175335  0.68253557  1
  Zn  Zn112  1  0.93088182  0.43027769  0.18614941  1
  Zn  Zn113  1  0.93583280  0.43829243  0.68357627  1
  Zn  Zn114  1  0.96731463  0.95229943  0.19794764  1
  Zn  Zn115  1  0.91242610  0.84445240  0.75542370  1
  Zn  Zn116  1  0.06510256  0.06285917  0.32270166  1
  Zn  Zn117  1  0.03495735  -0.00645094  0.74488701  1
  Zn  Zn118  1  0.06690387  0.55557834  0.30594884  1
  Zn  Zn119  1  0.02822981  0.54518438  0.79986883  1
  Zn  Zn120  1  0.54927276  0.09901763  0.33423472  1
  Zn  Zn121  1  0.54911119  0.06408183  0.81035311  1
  Zn  Zn122  1  0.56779920  0.56990677  0.30683465  1
  Zn  Zn123  1  0.53360682  0.58718931  0.83926433  1
  Zn  Zn124  1  0.44347171  0.19304218  0.44325206  1
  Zn  Zn125  1  0.45358633  0.19515318  0.94867580  1
  Zn  Zn126  1  0.42820111  0.70889315  0.43128405  1
  Zn  Zn127  1  0.42688726  0.68194823  0.94681884  1
  Zn  Zn128  1  0.94326003  0.18099477  0.44263011  1
  Zn  Zn129  1  0.91669450  0.19816951  0.92909070  1
  Zn  Zn130  1  0.96817656  0.70072008  0.34338069  1
  Zn  Zn131  1  0.93496181  0.68804426  0.92273551  1
  Zn  Zn132  1  0.05866468  0.31750560  0.07736445  1
  Zn  Zn133  1  0.05265843  0.30316296  0.56371443  1
  Zn  Zn134  1  -0.02208429  0.94906462  0.01349778  1
  Zn  Zn135  1  0.03225118  0.78952153  0.51650164  1
  Zn  Zn136  1  0.56552335  0.30762175  0.07085035  1
  Zn  Zn137  1  0.57852309  0.32190696  0.54876745  1
  Zn  Zn138  1  0.56121393  0.82042817  0.06646324  1
  Zn  Zn139  1  0.52851234  0.85415553  0.58372561  1
  O  O140  1  0.13037022  0.16468016  0.09632661  1
  O  O141  1  0.14032319  0.13870305  0.61188934  1
  O  O142  1  0.11771976  0.61264483  0.14108428  1
  O  O143  1  0.12599778  0.60664527  0.61122051  1
  O  O144  1  0.60957807  0.12523900  0.12974176  1
  O  O145  1  0.58926361  0.13837474  0.65668762  1
  O  O146  1  0.61872658  0.62267275  0.12569948  1
  O  O147  1  0.59415916  0.59907046  0.62591909  1
  O  O148  1  0.36894962  0.39013767  0.39192521  1
  O  O149  1  0.39895814  0.38397433  0.88932559  1
  O  O150  1  0.37781408  0.89291362  0.36383352  1
  O  O151  1  0.37220686  0.86719468  0.89012918  1
  O  O152  1  0.88421330  0.38124997  0.38033583  1
  O  O153  1  0.86546336  0.37211853  0.90014404  1
  O  O154  1  0.87204040  0.89941499  0.36916301  1
  O  O155  1  0.85366002  0.88746408  0.84362268  1
  O  O156  1  0.25764383  0.00892330  0.36871818  1
  O  O157  1  0.28824985  -0.00768905  0.85016677  1
  O  O158  1  0.26192854  0.50471066  0.36522369  1
  O  O159  1  0.27132926  0.47706873  0.88121045  1
  O  O160  1  0.76922576  0.01609329  0.38385306  1
  O  O161  1  0.74414847  0.01209182  0.86229592  1
  O  O162  1  0.76017722  0.50183923  0.36185844  1
  O  O163  1  0.75147016  0.52599451  0.90611127  1
  O  O164  1  0.24968711  0.49231835  0.13653332  1
  O  O165  1  0.24068428  0.48534835  0.61686716  1
  O  O166  1  0.25806501  0.98918033  0.13640792  1
  O  O167  1  0.30737586  1.01865177  0.66174145  1
  O  O168  1  0.74594518  0.49177632  0.13172200  1
  O  O169  1  0.73371973  0.49832128  0.61278633  1
  O  O170  1  0.78306933  0.94618017  0.11274829  1
  O  O171  1  0.73075232  1.02242177  0.63701669  1
  O  O172  1  -0.00656865  0.36591778  0.26529104  1
  O  O173  1  0.01218144  0.35958693  0.73759981  1
  O  O174  1  0.02069187  0.87727145  0.25690648  1
  O  O175  1  0.01852925  0.87792748  0.76969234  1
  O  O176  1  0.46538988  0.36333548  0.26550251  1
  O  O177  1  0.50593652  0.38147767  0.76615656  1
  O  O178  1  0.49663138  0.86916844  0.25387412  1
  O  O179  1  0.49721544  0.86763738  0.75579944  1
  O  O180  1  0.48724365  0.10975483  0.23512869  1
  O  O181  1  0.53439858  0.13533391  0.70843949  1
  O  O182  1  0.49280008  0.64440099  0.24702170  1
  O  O183  1  0.48130784  0.64023986  0.75689303  1
  O  O184  1  1.00169234  0.13399424  0.25506821  1
  O  O185  1  0.97259043  0.13585462  0.74778826  1
  O  O186  1  0.98494748  0.62086453  0.26451370  1
  O  O187  1  1.02322533  0.62966874  0.72244222  1
  O  O188  1  0.38403117  0.25854391  0.01792179  1
  O  O189  1  0.37442242  0.26805123  0.49839386  1
  O  O190  1  0.37512775  0.75676144  0.01760563  1
  O  O191  1  0.36553613  0.74909636  0.51480653  1
  O  O192  1  0.86053405  0.25567562  0.00990717  1
  O  O193  1  0.88632575  0.26296788  0.50421642  1
  O  O194  1  0.86303222  0.74707140  -0.00640656  1
  O  O195  1  0.76899565  0.82489025  0.51452898  1
  O  O196  1  0.13234573  0.24143216  0.49030912  1
  O  O197  1  0.12895375  0.22114476  1.04456822  1
  O  O198  1  0.14149657  0.73043341  0.50461902  1
  O  O199  1  0.14261322  0.70273788  0.99357396  1
  O  O200  1  0.62620217  0.24306811  0.48404118  1
  O  O201  1  0.63649946  0.25154500  1.00109001  1
  O  O202  1  0.58712596  0.71748565  0.50595608  1
  O  O203  1  0.62291356  0.74131323  1.01161854  1
  O  O204  1  0.49472461  0.23485816  0.13251932  1
  O  O205  1  0.49556583  0.27279853  0.61171606  1
  O  O206  1  0.49048452  0.75073679  0.14023184  1
  O  O207  1  0.47806684  0.75703538  0.62897149  1
  O  O208  1  0.99105673  0.25249513  0.14579554  1
  O  O209  1  0.97856036  0.25157513  0.63538407  1
  O  O210  1  1.00249323  0.74835168  0.11434885  1
  O  O211  1  1.00829838  0.73506095  0.60963533  1
  O  O212  1  0.00673314  0.25137659  0.36750096  1
  O  O213  1  -0.01862926  0.25247523  0.85128640  1
  O  O214  1  -0.01177178  0.77597911  0.41446768  1
  O  O215  1  0.01611227  0.74134391  0.86109987  1
  O  O216  1  0.52357425  0.21333163  0.36576226  1
  O  O217  1  0.51482593  0.26272813  0.88051213  1
  O  O218  1  0.49481201  0.76943620  0.35855824  1
  O  O219  1  0.48289709  0.74902899  0.86905109  1
  O  O220  1  0.24882511  0.13547301  0.49136987  1
  O  O221  1  0.23261451  0.09011655  0.98337145  1
  O  O222  1  0.23973814  0.61739477  0.49712525  1
  O  O223  1  0.27523351  0.63042690  1.00794185  1
  O  O224  1  0.75518186  0.12958853  0.50169728  1
  O  O225  1  0.75042373  0.13605776  0.98085178  1
  O  O226  1  0.75161510  0.61539072  0.48390311  1
  O  O227  1  0.73581142  0.64129928  1.01808508  1
  O  O228  1  0.27007605  0.38105872  0.02184172  1
  O  O229  1  0.25486763  0.36938848  0.50276639  1
  O  O230  1  0.25878734  0.86668792  0.01015600  1
  O  O231  1  0.24019452  0.86181091  0.50369297  1
  O  O232  1  0.75385968  0.36704218  0.01664372  1
  O  O233  1  0.77212711  0.37490514  0.48606068  1
  O  O234  1  0.74241104  0.85401768  -0.01981485  1
  O  O235  1  0.73419456  0.88825728  0.52296425  1
  O  O236  1  0.14314028  0.49891126  0.24431332  1
  O  O237  1  0.11557146  0.47659630  0.72916189  1
  O  O238  1  0.13785570  1.00134495  0.25564595  1
  O  O239  1  0.13481930  1.04067863  0.76300392  1
  O  O240  1  0.64113163  0.50816944  0.23942731  1
  O  O241  1  0.56191772  0.53817070  0.66627992  1
  O  O242  1  0.67809119  1.02640680  0.23654832  1
  O  O243  1  0.61844608  0.99209171  0.75360006  1
  O  O244  1  0.36249045  0.00957133  0.25790905  1
  O  O245  1  0.42407945  0.03730888  0.77509500  1
  O  O246  1  0.37146580  0.51438623  0.25776833  1
  O  O247  1  0.37977238  0.50446212  0.76463109  1
  O  O248  1  0.88246546  0.00878796  0.25729673  1
  O  O249  1  0.84726617  0.02069935  0.74794472  1
  O  O250  1  0.87021564  0.50678111  0.25301721  1
  O  O251  1  0.78742821  0.45693071  0.74349185  1
  O  O252  1  0.11884069  0.36320313  0.38112258  1
  O  O253  1  0.12559136  0.37854661  0.85246007  1
  O  O254  1  0.13178646  0.87992947  0.36223873  1
  O  O255  1  0.15019692  0.85446987  0.87149091  1
  O  O256  1  0.62440072  0.35114301  0.37541060  1
  O  O257  1  0.61822098  0.36959976  0.88680170  1
  O  O258  1  0.61100555  0.89145680  0.36418117  1
  O  O259  1  0.64236591  0.86539411  0.84591901  1
  O  O260  1  0.37151777  0.13253685  0.12971328  1
  O  O261  1  0.38128612  0.15534406  0.61818739  1
  O  O262  1  0.38384225  0.63213225  0.13764967  1
  O  O263  1  0.37185430  0.61425008  0.64368723  1
  O  O264  1  0.86066900  0.13840722  0.11758231  1
  O  O265  1  0.86029414  0.13797600  0.63893299  1
  O  O266  1  0.87601162  0.62231878  0.13378681  1
  O  O267  1  0.90045395  0.60929944  0.62001508  1
  O  O268  1  0.26325029  0.26814335  0.13649335  1
  O  O269  1  0.26509983  0.26215671  0.60458282  1
  O  O270  1  0.25465285  0.75427451  0.11505552  1
  O  O271  1  0.26244933  0.73722734  0.61096822  1
  O  O272  1  0.75275537  0.25408024  0.12277585  1
  O  O273  1  0.76223822  0.25746056  0.62610842  1
  O  O274  1  0.75048606  0.76755691  0.11352800  1
  O  O275  1  0.74874737  0.72078329  0.64026067  1
  O  O276  1  0.24604761  0.24469794  0.38197929  1
  O  O277  1  0.25886776  0.27440314  0.89284647  1
  O  O278  1  0.26447719  0.74632982  0.39697554  1
  O  O279  1  0.26702959  0.73883054  0.89909561  1
  O  O280  1  0.74833258  0.23546447  0.37319519  1
  O  O281  1  0.73595909  0.24946453  0.88318555  1
  O  O282  1  0.76290299  0.73225835  0.37698346  1
  O  O283  1  0.74277615  0.72520501  0.89386965  1
  O  O284  1  0.01306511  0.12822075  -0.03080208  1
  O  O285  1  0.01955992  0.11640334  0.50316825  1
  O  O286  1  -0.00120254  0.62034720  -0.00825895  1
  O  O287  1  0.02101275  0.60871882  0.50603334  1
  O  O288  1  0.49729317  0.11410803  0.01836522  1
  O  O289  1  0.48827318  0.10675272  0.50268462  1
  O  O290  1  0.50667042  0.63550540  0.02267276  1
  O  O291  1  0.53535487  0.66720679  0.48847229  1
  O  O292  1  0.49118107  0.38342368  0.49639976  1
  O  O293  1  0.49718907  0.37445856  1.00906148  1
  O  O294  1  0.49897592  0.88093079  0.47423786  1
  O  O295  1  0.48660885  0.88947208  1.01353473  1
  O  O296  1  0.99639580  0.37939752  0.48623793  1
  O  O297  1  0.98535664  0.36036080  1.00694364  1
  O  O298  1  1.02673330  0.90554087  0.50256940  1
  O  O299  1  1.00889438  0.87718749  0.94403283  1
  O  O300  1  0.48962653  0.51237662  0.36696155  1
  O  O301  1  0.50548365  0.48724533  0.88043737  1
  O  O302  1  0.48767094  0.99963063  0.37780234  1
  O  O303  1  0.49309518  1.01021736  0.89937637  1
  O  O304  1  0.99778560  0.49083631  0.37860589  1
  O  O305  1  0.93531129  0.48904826  0.77938806  1
  O  O306  1  0.98536505  1.00632424  0.38070352  1
  O  O307  1  0.96488480  1.00649300  0.84339999  1
  O  O308  1  -0.03804299  0.00220266  0.10333206  1
  O  O309  1  0.00936675  0.00107859  0.63046060  1
  O  O310  1  0.02080586  0.48463729  0.14189282  1
  O  O311  1  0.01285763  0.49290365  0.60790595  1
  O  O312  1  0.48909740  0.01016356  0.11583761  1
  O  O313  1  0.48843407  -0.02834267  0.59984248  1
  O  O314  1  0.51059897  0.51594145  0.14219498  1
  O  O315  1  0.50871821  0.49699446  0.62351567  1
  O  O316  1  0.26911041  0.38716786  0.23912264  1
  O  O317  1  0.22770327  0.35764485  0.72847480  1
  O  O318  1  0.24187652  0.88172611  0.24519728  1
  O  O319  1  0.24552186  0.86871916  0.74707977  1
  O  O320  1  0.76178612  0.38510358  0.24065439  1
  O  O321  1  0.74774321  0.39891070  0.76698717  1
  O  O322  1  0.74491178  0.86139154  0.24647907  1
  O  O323  1  0.74150772  0.90197167  0.73623491  1
  O  O324  1  0.25379868  0.12051905  0.25619609  1
  O  O325  1  0.26030923  0.16219506  0.77662223  1
  O  O326  1  0.26147442  0.61916808  0.25106403  1
  O  O327  1  0.26759214  0.62863162  0.75941873  1
  O  O328  1  0.73186699  0.07628737  0.22261282  1
  O  O329  1  0.74559260  0.12801427  0.75938488  1
  O  O330  1  0.76655699  0.61624726  0.25073537  1
  O  O331  1  0.71769106  0.61239645  0.77295224  1
  O  O332  1  0.36614065  0.12071318  0.36652803  1
  O  O333  1  0.37251566  0.12580878  0.89788546  1
  O  O334  1  0.37674677  0.62489009  0.36718344  1
  O  O335  1  0.38573075  0.60145533  0.87537752  1
  O  O336  1  0.86624154  0.12019321  0.38204133  1
  O  O337  1  0.85576942  0.12397812  0.86027719  1
  O  O338  1  0.86917603  0.60740409  0.37313669  1
  O  O339  1  0.86143906  0.63348634  0.85313604  1
  O  O340  1  0.14560614  0.38084794  0.12108091  1
  O  O341  1  0.13138016  0.37494793  0.61374169  1
  O  O342  1  0.13793936  0.87265583  0.14193428  1
  O  O343  1  0.14686224  0.88106594  0.65694816  1
  O  O344  1  0.63539295  0.38279208  0.12703565  1
  O  O345  1  0.64753741  0.39618352  0.60939796  1
  O  O346  1  0.62951736  0.88247912  0.13182353  1
  O  O347  1  0.61966976  0.86446568  0.65071861  1
  O  O348  1  0.11288755  0.24614563  0.26217786  1
  O  O349  1  0.10415153  0.24999403  0.74587773  1
  O  O350  1  0.13409450  0.75860669  0.25842411  1
  O  O351  1  0.18107121  0.83072895  0.69989856  1
  O  O352  1  0.63186659  0.23932697  0.26632325  1
  O  O353  1  0.63135406  0.26761307  0.76450324  1
  O  O354  1  0.61342441  0.74914624  0.24464363  1
  O  O355  1  0.59442448  0.75075391  0.75119083  1
  O  O356  1  0.37308531  0.23191257  0.24121281  1
  O  O357  1  0.38430369  0.27577412  0.72285336  1
  O  O358  1  0.36928562  0.74508517  0.24244822  1
  O  O359  1  0.37697181  0.74112919  0.74062269  1
  O  O360  1  0.88555875  0.24560669  0.24618229  1
  O  O361  1  0.87192764  0.24873475  0.74197844  1
  O  O362  1  0.87992011  0.72931980  0.25898344  1
  O  O363  1  0.79223173  0.75108102  0.69938715  1
  O  O364  1  0.37692662  0.49496657  0.49227487  1
  O  O365  1  0.38237060  0.49159467  0.99354379  1
  O  O366  1  0.37081712  1.00253035  0.48153139  1
  O  O367  1  0.37801483  0.99173955  0.98739391  1
  O  O368  1  0.88818080  0.48918476  0.48865581  1
  O  O369  1  0.87847249  0.47995484  1.01916406  1
  O  O370  1  0.89819240  1.00384881  0.51791703  1
  O  O371  1  0.87072573  0.99836009  0.96726236  1
  O  O372  1  0.17307479  0.03165957  -0.02261008  1
  O  O373  1  0.13386894  0.02133192  0.50362833  1
  O  O374  1  0.12782080  0.51659962  0.02409290  1
  O  O375  1  0.12295495  0.50007126  0.50088409  1
  O  O376  1  0.60927169  -0.00821381  -0.00039143  1
  O  O377  1  0.60634741  0.00195901  0.49537129  1
  O  O378  1  0.63006275  0.51353043  0.02291823  1
  O  O379  1  0.68069376  0.45818978  0.56938510  1
  O  O380  1  0.37678008  0.37074890  0.12139596  1
  O  O381  1  0.36946251  0.37932576  0.60779028  1
  O  O382  1  0.36431036  0.86638486  0.12640853  1
  O  O383  1  0.36491360  0.86281363  0.63418816  1
  O  O384  1  0.86458840  0.35979693  0.12146964  1
  O  O385  1  0.87934547  0.37628787  0.60491348  1
  O  O386  1  0.95297666  0.80040727  0.11736896  1
  O  O387  1  0.86335262  0.78229143  0.67399753  1
  O  O388  1  0.13885437  0.13381998  0.38115143  1
  O  O389  1  0.07257246  0.13731262  0.92656318  1
  O  O390  1  0.12697128  0.61643491  0.38750958  1
  O  O391  1  0.10060883  0.57912851  0.87825453  1
  O  O392  1  0.65530010  0.11938148  0.37396968  1
  O  O393  1  0.62330236  0.14433789  0.86479551  1
  O  O394  1  0.64670801  0.62188259  0.36588326  1
  O  O395  1  0.61689423  0.62105041  0.90663039  1
