# generated using pymatgen
data_V35Zn35O128
_symmetry_space_group_name_H-M   'P 1'
_cell_length_a   16.82925535
_cell_length_b   16.86997160
_cell_length_c   16.87146321
_cell_angle_alpha   90.10725962
_cell_angle_beta   89.83772394
_cell_angle_gamma   89.92363343
_symmetry_Int_Tables_number   1
_chemical_formula_structural   V35Zn35O128
_chemical_formula_sum   'V70 Zn70 O256'
_cell_volume   4789.92936078
_cell_formula_units_Z   2
loop_
 _symmetry_equiv_pos_site_id
 _symmetry_equiv_pos_as_xyz
  1  'x, y, z'
loop_
 _atom_site_type_symbol
 _atom_site_label
 _atom_site_symmetry_multiplicity
 _atom_site_fract_x
 _atom_site_fract_y
 _atom_site_fract_z
 _atom_site_occupancy
  V  V0  1  0.40738766  0.50013558  0.37590891  1
  V  V1  1  0.12227671  0.49179713  0.12731264  1
  V  V2  1  0.75186098  0.49713296  0.74585043  1
  V  V3  1  0.49764274  0.63498005  0.61972211  1
  V  V4  1  0.01366161  -0.00039906  0.01199720  1
  V  V5  1  0.75307316  0.37961697  0.11685679  1
  V  V6  1  0.62880063  0.12583834  -0.00917804  1
  V  V7  1  0.64002638  0.00821606  0.14069131  1
  V  V8  1  0.87989611  0.62522152  0.75260975  1
  V  V9  1  0.61361601  0.50455765  0.11540119  1
  V  V10  1  -0.00908881  0.48239875  0.48941232  1
  V  V11  1  0.38647005  0.63088650  0.24709470  1
  V  V12  1  0.38220379  0.37200463  -0.01755995  1
  V  V13  1  0.62431178  0.37981576  0.25181761  1
  V  V14  1  0.12131917  0.63838151  -0.00336706  1
  V  V15  1  0.00876414  0.62100289  0.61054572  1
  V  V16  1  0.87635905  0.75830470  0.62229636  1
  V  V17  1  0.37515695  0.00514382  0.87337633  1
  V  V18  1  0.24551107  0.37051402  0.12726525  1
  V  V19  1  0.50053797  0.11985948  0.12010772  1
  V  V20  1  0.86385900  0.87270614  -0.00294288  1
  V  V21  1  0.36824965  0.12253334  0.25862015  1
  V  V22  1  0.62081704  0.12470721  0.48711201  1
  V  V23  1  0.74975427  0.24771413  -0.01630787  1
  V  V24  1  0.87933059  0.48580826  0.87607486  1
  V  V25  1  0.24856172  0.50064364  0.71683026  1
  V  V26  1  0.51423842  0.75584765  0.75051505  1
  V  V27  1  0.37830510  0.63024023  0.76405192  1
  V  V28  1  0.62650520  0.62938626  0.49599256  1
  V  V29  1  0.75469493  0.63098986  0.35851099  1
  V  V30  1  0.25515171  0.76792931  0.53960366  1
  V  V31  1  0.24395469  0.24592033  -0.00195077  1
  V  V32  1  0.24268718  0.48723972  0.26596992  1
  V  V33  1  0.13016386  0.87331314  0.74193900  1
  V  V34  1  0.87025363  0.23779538  0.62777226  1
  V  V35  1  0.01306567  0.25087395  0.26861622  1
  V  V36  1  0.86809812  0.74797628  0.13743927  1
  V  V37  1  0.74872792  0.75775251  0.49980443  1
  V  V38  1  0.00758521  0.74744019  0.75891062  1
  V  V39  1  0.63137659  0.00031478  0.63718706  1
  V  V40  1  0.49630214  0.12671300  0.63751423  1
  V  V41  1  0.61911763  0.49640344  0.61962709  1
  V  V42  1  0.00655280  0.12319310  0.12835532  1
  V  V43  1  0.00106183  0.48516924  -0.00644707  1
  V  V44  1  0.01527576  0.86917362  0.89126093  1
  V  V45  1  0.61120292  0.37079645  0.75824177  1
  V  V46  1  0.50589837  0.87642235  0.87110875  1
  V  V47  1  0.22941467  0.12079613  0.87800899  1
  V  V48  1  0.86706008  0.49241385  0.35993054  1
  V  V49  1  0.49645555  0.50426302  -0.01687083  1
  V  V50  1  0.50397500  0.25797776  0.26190745  1
  V  V51  1  0.24168328  -0.00260536  0.74471510  1
  V  V52  1  -0.00521149  -0.01863386  0.50183772  1
  V  V53  1  0.37735218  0.25298732  0.12444779  1
  V  V54  1  0.02912129  0.11971137  0.61283366  1
  V  V55  1  0.38610085  0.37555984  0.49252851  1
  V  V56  1  0.37786486  0.88505194  0.01185871  1
  V  V57  1  0.75177192  0.25036161  0.48225707  1
  V  V58  1  0.74236217  0.63692967  0.88111933  1
  V  V59  1  0.38132536  0.25730246  0.64776113  1
  V  V60  1  0.25317867  0.61811368  0.87932947  1
  V  V61  1  0.00900768  0.85632431  0.34592987  1
  V  V62  1  0.27438028  0.75102400  0.00791070  1
  V  V63  1  -0.00701619  0.62920630  0.13306825  1
  V  V64  1  0.49329083  0.87448996  0.36336617  1
  V  V65  1  0.36330458  -0.00044735  0.39164979  1
  V  V66  1  0.11696756  0.27217252  0.86453149  1
  V  V67  1  0.21060910  0.64396093  0.37429039  1
  V  V68  1  0.86947883  0.23945097  0.12417886  1
  V  V69  1  0.74391411  0.86938220  0.13831216  1
  Zn  Zn70  1  0.86589681  -0.01425471  0.37713683  1
  Zn  Zn71  1  0.77977125  0.38858516  0.59814251  1
  Zn  Zn72  1  0.85920487  0.11064863  0.25979602  1
  Zn  Zn73  1  -0.03992543  0.19786162  0.78163766  1
  Zn  Zn74  1  0.24852467  0.28148040  0.52477369  1
  Zn  Zn75  1  0.74683094  0.88289959  0.63352413  1
  Zn  Zn76  1  0.17107299  0.12147045  0.21312444  1
  Zn  Zn77  1  0.19131106  0.18683474  0.69028416  1
  Zn  Zn78  1  0.22558509  0.65253050  0.16787077  1
  Zn  Zn79  1  0.18887114  0.68336292  0.68841481  1
  Zn  Zn80  1  0.68659721  0.19541457  0.18657719  1
  Zn  Zn81  1  0.66852721  0.21212165  0.65058075  1
  Zn  Zn82  1  0.67706787  0.69027742  0.05247077  1
  Zn  Zn83  1  0.68947369  0.68486554  0.68820734  1
  Zn  Zn84  1  0.31404878  0.31682097  0.31491914  1
  Zn  Zn85  1  0.29482586  0.32035532  0.80456929  1
  Zn  Zn86  1  0.30895872  0.81274063  0.31611385  1
  Zn  Zn87  1  0.31601531  0.80772210  0.82044644  1
  Zn  Zn88  1  0.80819137  0.31071061  0.30356919  1
  Zn  Zn89  1  0.80372423  0.31141078  0.80248953  1
  Zn  Zn90  1  0.79982664  0.83566486  0.32828827  1
  Zn  Zn91  1  0.82236576  0.81246120  0.81823311  1
  Zn  Zn92  1  0.20376852  0.48094671  0.50421736  1
  Zn  Zn93  1  0.19102945  0.43799523  0.94137127  1
  Zn  Zn94  1  0.18660378  0.91875516  0.44959048  1
  Zn  Zn95  1  0.19078588  0.93171211  0.94291254  1
  Zn  Zn96  1  0.69115798  0.44274205  0.43369670  1
  Zn  Zn97  1  0.68878766  0.43958137  0.93620151  1
  Zn  Zn98  1  0.67427043  0.94272825  0.43968515  1
  Zn  Zn99  1  0.67793304  0.94517597  0.94721078  1
  Zn  Zn100  1  0.30321012  0.06155342  0.06715125  1
  Zn  Zn101  1  0.31428701  0.06610853  0.57198199  1
  Zn  Zn102  1  0.31745114  0.55361598  0.05769707  1
  Zn  Zn103  1  0.32322602  0.58933350  0.54199267  1
  Zn  Zn104  1  0.81468365  0.05629878  0.05385412  1
  Zn  Zn105  1  0.80953519  0.06350672  0.55321591  1
  Zn  Zn106  1  0.81431460  0.56027605  0.05938552  1
  Zn  Zn107  1  0.81694243  0.56815194  0.55822571  1
  Zn  Zn108  1  0.43418306  0.44087167  0.18648594  1
  Zn  Zn109  1  0.43206429  0.44321348  0.68779253  1
  Zn  Zn110  1  0.44331439  0.94134956  0.20030796  1
  Zn  Zn111  1  0.44258126  0.94836708  0.69373167  1
  Zn  Zn112  1  0.93717950  0.42954265  0.18894988  1
  Zn  Zn113  1  0.93823627  0.43788618  0.67891524  1
  Zn  Zn114  1  0.93869190  0.93632034  0.19302157  1
  Zn  Zn115  1  0.94994073  0.93884353  0.68583192  1
  Zn  Zn116  1  0.09886368  0.01194703  0.36172015  1
  Zn  Zn117  1  0.03770214  0.06037350  0.81992043  1
  Zn  Zn118  1  0.05546687  0.55102587  0.31167204  1
  Zn  Zn119  1  0.06936440  0.55870761  0.81203738  1
  Zn  Zn120  1  0.55033914  0.06104346  0.31588178  1
  Zn  Zn121  1  0.56049953  0.06716429  0.80850242  1
  Zn  Zn122  1  0.57558127  0.57358840  0.29868026  1
  Zn  Zn123  1  0.56387411  0.56034650  0.80914671  1
  Zn  Zn124  1  0.43951876  0.18574005  0.44274561  1
  Zn  Zn125  1  0.43915473  0.18867295  0.93128027  1
  Zn  Zn126  1  0.42360315  0.69192068  0.43439409  1
  Zn  Zn127  1  0.48844564  0.70806890  0.96584221  1
  Zn  Zn128  1  0.93088936  0.17137457  0.43670838  1
  Zn  Zn129  1  0.93835623  0.18478311  0.94413921  1
  Zn  Zn130  1  0.93526550  0.69070603  0.42626357  1
  Zn  Zn131  1  0.93125836  0.68840754  0.94475083  1
  Zn  Zn132  1  0.06232084  0.30356389  0.06218833  1
  Zn  Zn133  1  0.02940973  0.29739969  0.53440614  1
  Zn  Zn134  1  0.06656413  0.81332350  0.08565066  1
  Zn  Zn135  1  0.07157815  0.79856231  0.55821824  1
  Zn  Zn136  1  0.56493998  0.31296807  0.05786437  1
  Zn  Zn137  1  0.55839399  0.31136324  0.55598106  1
  Zn  Zn138  1  0.56293436  0.83828897  0.05868644  1
  Zn  Zn139  1  0.56609932  0.83129028  0.54071141  1
  O  O140  1  0.10218799  0.14534869  0.11724386  1
  O  O141  1  0.12863928  0.13699039  0.60631771  1
  O  O142  1  0.11992671  0.61356177  0.11395243  1
  O  O143  1  0.10668470  0.62629916  0.63093980  1
  O  O144  1  0.61676281  0.12300237  0.12339141  1
  O  O145  1  0.61365026  0.11768592  0.62479111  1
  O  O146  1  0.63396407  0.60218145  0.11772389  1
  O  O147  1  0.62046196  0.61869534  0.61966169  1
  O  O148  1  0.37977999  0.38973978  0.38016759  1
  O  O149  1  0.36506006  0.36789355  0.88508838  1
  O  O150  1  0.37836919  0.88989499  0.36599171  1
  O  O151  1  0.38034315  0.88512389  0.88461620  1
  O  O152  1  0.85462515  0.39353604  0.36867649  1
  O  O153  1  0.87281869  0.38795695  0.86702879  1
  O  O154  1  0.90065102  0.86449617  0.37189664  1
  O  O155  1  0.89013448  0.86707012  0.89427418  1
  O  O156  1  0.26224530  -0.00776855  0.37791471  1
  O  O157  1  0.25170526  0.00837110  0.87649429  1
  O  O158  1  0.22584310  0.46760074  0.35963023  1
  O  O159  1  0.25357846  0.51598117  0.88477100  1
  O  O160  1  0.75910825  -0.06022045  0.37077735  1
  O  O161  1  0.76895137  0.01047629  0.87716964  1
  O  O162  1  0.75622735  0.52051522  0.37582877  1
  O  O163  1  0.76593055  0.50807308  0.86998573  1
  O  O164  1  0.23928554  0.48857802  0.12733384  1
  O  O165  1  0.25010551  0.52378055  0.61497368  1
  O  O166  1  0.22478890  1.04432538  0.14146881  1
  O  O167  1  0.25022624  1.00584948  0.64565130  1
  O  O168  1  0.74128503  0.48421000  0.10604336  1
  O  O169  1  0.74562302  0.50234333  0.62914834  1
  O  O170  1  0.74570780  0.99214448  0.12793080  1
  O  O171  1  0.73711908  1.00146595  0.62232682  1
  O  O172  1  0.00239289  0.34928032  0.23610329  1
  O  O173  1  0.04957909  0.38450322  0.70823395  1
  O  O174  1  0.00791774  0.86092006  0.24313854  1
  O  O175  1  0.01191547  0.86982175  0.76602243  1
  O  O176  1  0.50774831  0.36652965  0.24257885  1
  O  O177  1  0.51216880  0.38850554  0.74791267  1
  O  O178  1  0.51546896  0.87951761  0.26391136  1
  O  O179  1  0.49443882  0.86482476  0.75706893  1
  O  O180  1  0.49434930  0.14102063  0.23971276  1
  O  O181  1  0.49813389  0.13116346  0.73837291  1
  O  O182  1  0.48665199  0.61817994  0.23947609  1
  O  O183  1  0.49584586  0.63485628  0.74744746  1
  O  O184  1  0.98155708  0.14360935  0.23004211  1
  O  O185  1  1.01963425  0.11874742  0.72049390  1
  O  O186  1  1.00159970  0.61435255  0.22953207  1
  O  O187  1  0.99564353  0.62914582  0.74908668  1
  O  O188  1  0.36865092  0.25586357  0.00397953  1
  O  O189  1  0.37118134  0.26894728  0.48798015  1
  O  O190  1  0.37900079  0.76043518  0.00605607  1
  O  O191  1  0.33644219  0.70506285  0.50728791  1
  O  O192  1  0.85823374  0.24173749  0.00473019  1
  O  O193  1  0.85844853  0.24013302  0.50592914  1
  O  O194  1  0.88018055  0.76528154  0.01464005  1
  O  O195  1  0.86175083  0.73881935  0.51664574  1
  O  O196  1  0.13664798  0.29618101  0.48372941  1
  O  O197  1  0.13761853  0.25839975  0.98404072  1
  O  O198  1  0.15806701  0.73897405  0.51775937  1
  O  O199  1  0.12646732  0.73861531  1.00828242  1
  O  O200  1  0.63756539  0.23938579  0.51585335  1
  O  O201  1  0.63606902  0.23691264  1.00463517  1
  O  O202  1  0.63750540  0.73926387  0.51507657  1
  O  O203  1  0.58759400  0.74234762  1.01081441  1
  O  O204  1  0.49054798  0.24512338  0.12652407  1
  O  O205  1  0.49132240  0.24233401  0.62533859  1
  O  O206  1  0.53077546  0.75802031  0.17219036  1
  O  O207  1  0.50822447  0.74096693  0.63897210  1
  O  O208  1  0.97894436  0.23758188  0.10294061  1
  O  O209  1  0.98770806  0.22742524  0.61057003  1
  O  O210  1  0.99235507  0.73511771  0.12741623  1
  O  O211  1  0.99193472  0.74031207  0.63436649  1
  O  O212  1  -0.01052234  0.24479954  0.36781797  1
  O  O213  1  0.01469066  0.25687144  0.87756202  1
  O  O214  1  0.00913948  0.75860922  0.37706938  1
  O  O215  1  -0.00552812  0.75608772  0.86852713  1
  O  O216  1  0.49735084  0.25073664  0.35997062  1
  O  O217  1  0.50500174  0.24912236  0.86751760  1
  O  O218  1  0.47849794  0.77426649  0.38483142  1
  O  O219  1  0.49807625  0.76621414  0.86433345  1
  O  O220  1  0.24546813  0.14453712  0.49439756  1
  O  O221  1  0.25523388  0.13497318  0.98623839  1
  O  O222  1  0.23669306  0.58818831  0.45802809  1
  O  O223  1  0.24378937  0.63016917  1.00055624  1
  O  O224  1  0.73535615  0.13847786  0.50127284  1
  O  O225  1  0.74009823  0.13305214  1.00073173  1
  O  O226  1  0.73837548  0.63639541  0.50301592  1
  O  O227  1  0.75443908  0.62918682  0.98673669  1
  O  O228  1  0.26093188  0.36708297  0.00671500  1
  O  O229  1  0.27750014  0.39415121  0.51089211  1
  O  O230  1  0.26568325  0.86050878  -0.00305254  1
  O  O231  1  0.26322163  0.86581139  0.51140578  1
  O  O232  1  0.74064702  0.35872357  0.00566404  1
  O  O233  1  0.73706940  0.35978336  0.49607425  1
  O  O234  1  0.76093318  0.88305814  -0.00377124  1
  O  O235  1  0.74216871  0.85784559  0.51147744  1
  O  O236  1  0.12627562  0.49692012  0.23366014  1
  O  O237  1  0.15182322  0.51773304  0.74761810  1
  O  O238  1  0.10557059  1.04443584  0.26083687  1
  O  O239  1  0.13111507  0.98352898  0.76257751  1
  O  O240  1  0.61884170  0.48827854  0.22931407  1
  O  O241  1  0.63460019  0.49966881  0.73636935  1
  O  O242  1  0.62582025  1.01277390  0.23914899  1
  O  O243  1  0.62660856  1.00493337  0.73841332  1
  O  O244  1  0.37111708  0.02073394  0.24548764  1
  O  O245  1  0.35466617  -0.01269784  0.76448138  1
  O  O246  1  0.36435535  0.49762160  0.26486872  1
  O  O247  1  0.36244030  0.52021957  0.73880560  1
  O  O248  1  0.86902142  -0.00410844  0.25571506  1
  O  O249  1  0.85020433  -0.03774813  0.74817136  1
  O  O250  1  0.87814500  0.50095505  0.25824229  1
  O  O251  1  0.87617403  0.50483566  0.75760931  1
  O  O252  1  0.15442709  0.29448697  0.39981291  1
  O  O253  1  0.13393966  0.37192256  0.86767299  1
  O  O254  1  0.11114514  0.88326789  0.36685653  1
  O  O255  1  0.11755101  0.86208297  0.88024007  1
  O  O256  1  0.63258184  0.38773212  0.35034891  1
  O  O257  1  0.63155077  0.38401686  0.85640165  1
  O  O258  1  0.57630705  0.88168392  0.43211356  1
  O  O259  1  0.60517086  0.89251394  0.87911114  1
  O  O260  1  0.38589272  0.13260107  0.12986551  1
  O  O261  1  0.38807789  0.13906491  0.62033424  1
  O  O262  1  0.34480737  0.61309752  0.15089226  1
  O  O263  1  0.39696022  0.62337402  0.62997162  1
  O  O264  1  0.87036352  0.13281544  0.12262525  1
  O  O265  1  0.86464189  0.13591622  0.62900365  1
  O  O266  1  0.88593352  0.62993134  0.11603162  1
  O  O267  1  0.88223081  0.63234835  0.63859793  1
  O  O268  1  0.26057820  0.25451737  0.11312530  1
  O  O269  1  0.27297776  0.24098649  0.62859056  1
  O  O270  1  0.24974317  0.74417501  0.10649740  1
  O  O271  1  0.25907730  0.75959427  0.64142174  1
  O  O272  1  0.75718544  0.25667472  0.11298496  1
  O  O273  1  0.76435144  0.26242463  0.61933566  1
  O  O274  1  0.74926468  0.76500313  0.11142888  1
  O  O275  1  0.76310359  0.75586909  0.63091524  1
  O  O276  1  0.23156897  0.27225678  0.39283176  1
  O  O277  1  0.24201827  0.23694769  0.87633432  1
  O  O278  1  0.23826535  0.74183938  0.37288749  1
  O  O279  1  0.26077492  0.73352030  0.89534966  1
  O  O280  1  0.75093788  0.25025242  0.38258907  1
  O  O281  1  0.75349646  0.25091435  0.88423754  1
  O  O282  1  0.75231847  0.74531557  0.39391261  1
  O  O283  1  0.75197370  0.73655024  0.86348112  1
  O  O284  1  -0.00592049  0.10412059  0.01081404  1
  O  O285  1  -0.00049096  0.10992107  0.50881662  1
  O  O286  1  0.01153261  0.62114863  0.00434310  1
  O  O287  1  -0.00201146  0.63795560  0.51192711  1
  O  O288  1  0.50904685  0.13228557  0.01451256  1
  O  O289  1  0.51462950  0.13637786  0.51198359  1
  O  O290  1  0.47951212  0.60178894  0.00005852  1
  O  O291  1  0.51306556  0.63993298  0.51140870  1
  O  O292  1  0.48802621  0.38132064  0.50160322  1
  O  O293  1  0.48672322  0.37250609  0.99512399  1
  O  O294  1  0.44427592  0.85915970  0.54328779  1
  O  O295  1  0.48601967  0.88006472  0.98421635  1
  O  O296  1  0.97742411  0.38398445  0.48883893  1
  O  O297  1  1.00282323  0.38735546  1.00082819  1
  O  O298  1  1.00620334  0.88093776  0.51737424  1
  O  O299  1  1.00420133  0.87380122  1.00300821  1
  O  O300  1  0.50570229  0.50190195  0.36633912  1
  O  O301  1  0.50297847  0.49871582  0.88330936  1
  O  O302  1  0.47909326  0.99021420  0.37072514  1
  O  O303  1  0.48180647  0.99183186  0.85942882  1
  O  O304  1  0.97947202  0.50419922  0.37970003  1
  O  O305  1  0.99344012  0.50162419  0.88191859  1
  O  O306  1  0.98801580  0.97435458  0.38771564  1
  O  O307  1  1.00597384  0.97557956  0.89425982  1
  O  O308  1  0.00049825  0.00958978  0.12245021  1
  O  O309  1  0.00645867  0.00812325  0.61538535  1
  O  O310  1  0.00126841  0.50513196  0.11051021  1
  O  O311  1  -0.01470413  0.51463519  0.60575309  1
  O  O312  1  0.50974284  0.01680280  0.13141651  1
  O  O313  1  0.50517967  0.01667129  0.62772424  1
  O  O314  1  0.50827786  0.49234611  0.11338632  1
  O  O315  1  0.51433070  0.51713636  0.63032615  1
  O  O316  1  0.25432766  0.37431799  0.23346462  1
  O  O317  1  0.25795896  0.40093638  0.73257521  1
  O  O318  1  0.24470689  0.87812724  0.23111073  1
  O  O319  1  0.23708562  0.88031051  0.76461554  1
  O  O320  1  0.73458812  0.36626001  0.22819756  1
  O  O321  1  0.74515715  0.39213302  0.74392971  1
  O  O322  1  0.73417819  0.86229649  0.23489528  1
  O  O323  1  0.79310584  0.90466134  0.74914752  1
  O  O324  1  0.27283541  0.15193583  0.25778088  1
  O  O325  1  0.24104235  0.10781719  0.76667868  1
  O  O326  1  0.24390125  0.60702566  0.27364910  1
  O  O327  1  0.26286196  0.62604180  0.75966632  1
  O  O328  1  0.75022838  0.13841233  0.25433643  1
  O  O329  1  0.76604288  0.06715243  0.83061599  1
  O  O330  1  0.73097352  0.63891382  0.26564844  1
  O  O331  1  0.76056792  0.61502245  0.75532049  1
  O  O332  1  0.38275097  0.11553060  0.36644416  1
  O  O333  1  0.37053760  0.10799811  0.88000344  1
  O  O334  1  0.38097089  0.60778606  0.36207012  1
  O  O335  1  0.37477078  0.62242341  0.86410298  1
  O  O336  1  0.86649759  0.10350972  0.37492519  1
  O  O337  1  0.93585527  0.11493484  0.85616297  1
  O  O338  1  0.85973268  0.62875914  0.36577594  1
  O  O339  1  0.87039777  0.62143607  0.86539450  1
  O  O340  1  0.13403370  0.37970818  0.11292456  1
  O  O341  1  0.09044624  0.36690527  0.64722632  1
  O  O342  1  0.14929776  0.87871495  0.13880248  1
  O  O343  1  0.12220942  0.87272724  0.64411024  1
  O  O344  1  0.63247533  0.38092358  0.12501358  1
  O  O345  1  0.61993061  0.39316812  0.62584958  1
  O  O346  1  0.63476103  0.89729528  0.11890797  1
  O  O347  1  0.62003803  0.89504850  0.62093385  1
  O  O348  1  0.11047941  0.22843296  0.25579979  1
  O  O349  1  0.13178610  0.24772159  0.76678399  1
  O  O350  1  0.17620228  0.84775546  0.20813437  1
  O  O351  1  0.11585860  0.75726424  0.75087696  1
  O  O352  1  0.61066783  0.26372957  0.24124209  1
  O  O353  1  0.63205539  0.27303023  0.73847500  1
  O  O354  1  0.58857953  0.74229781  0.21407274  1
  O  O355  1  0.61416494  0.74738129  0.75225540  1
  O  O356  1  0.38682550  0.25100817  0.24380000  1
  O  O357  1  0.37668145  0.25948366  0.74672032  1
  O  O358  1  0.36734884  0.72947278  0.25726557  1
  O  O359  1  0.38549727  0.73692069  0.75346707  1
  O  O360  1  0.87546330  0.25183723  0.22865179  1
  O  O361  1  0.87506201  0.25350512  0.73616261  1
  O  O362  1  0.85871172  0.75493468  0.23528110  1
  O  O363  1  0.88648165  0.74412710  0.74324912  1
  O  O364  1  0.38605000  0.50315407  0.47997000  1
  O  O365  1  0.38325131  0.47989781  1.00189837  1
  O  O366  1  0.37008789  1.00931180  0.49168900  1
  O  O367  1  0.36175162  0.99169513  0.99092689  1
  O  O368  1  0.88040334  0.51210937  0.48355275  1
  O  O369  1  0.88836165  0.50268556  0.98574068  1
  O  O370  1  0.88708726  0.99459039  0.50292666  1
  O  O371  1  0.89114761  0.97766656  1.01150601  1
  O  O372  1  0.11441539  -0.01010332  0.00828692  1
  O  O373  1  0.10732862  0.00200488  0.47665155  1
  O  O374  1  0.11407649  0.50465047  0.00502949  1
  O  O375  1  0.09263000  0.49172814  0.49097346  1
  O  O376  1  0.63052918  0.02016370  0.01877713  1
  O  O377  1  0.62923929  0.02110010  0.51188648  1
  O  O378  1  0.60835510  0.49035089  0.00370562  1
  O  O379  1  0.63238505  0.51513006  0.51190058  1
  O  O380  1  0.36751440  0.36639976  0.11829867  1
  O  O381  1  0.38711936  0.36075678  0.61774935  1
  O  O382  1  0.39138904  0.88926934  0.11068633  1
  O  O383  1  0.40266799  0.87007673  0.60621836  1
  O  O384  1  0.85874045  0.36828689  0.12184795  1
  O  O385  1  0.88718298  0.35689626  0.62301596  1
  O  O386  1  0.85884095  0.86877395  0.12225435  1
  O  O387  1  0.88348873  0.85833984  0.62664877  1
  O  O388  1  0.19705315  0.12298814  0.44172773  1
  O  O389  1  0.12971316  0.12089631  0.88109227  1
  O  O390  1  0.11167982  0.63539020  0.36420190  1
  O  O391  1  0.13214540  0.62319151  0.89195820  1
  O  O392  1  0.61448589  0.12387810  0.38709613  1
  O  O393  1  0.61797918  0.11614526  0.89232940  1
  O  O394  1  0.63139413  0.62334858  0.39064964  1
  O  O395  1  0.64405575  0.61801687  0.86909130  1
