# generated using pymatgen
data_V35Zn35O128
_symmetry_space_group_name_H-M   'P 1'
_cell_length_a   16.95150818
_cell_length_b   16.91198969
_cell_length_c   16.94560896
_cell_angle_alpha   89.96294927
_cell_angle_beta   90.14198196
_cell_angle_gamma   89.69675315
_symmetry_Int_Tables_number   1
_chemical_formula_structural   V35Zn35O128
_chemical_formula_sum   'V70 Zn70 O256'
_cell_volume   4857.94639527
_cell_formula_units_Z   2
loop_
 _symmetry_equiv_pos_site_id
 _symmetry_equiv_pos_as_xyz
  1  'x, y, z'
loop_
 _atom_site_type_symbol
 _atom_site_label
 _atom_site_symmetry_multiplicity
 _atom_site_fract_x
 _atom_site_fract_y
 _atom_site_fract_z
 _atom_site_occupancy
  V  V0  1  0.12188384  0.63627717  0.50163538  1
  V  V1  1  0.87308440  0.37324501  0.51576428  1
  V  V2  1  0.26207213  0.49795256  0.73525355  1
  V  V3  1  -0.03476791  0.21337184  0.74657373  1
  V  V4  1  0.61840288  0.24609621  0.87109650  1
  V  V5  1  0.62411753  0.12191408  -0.00138221  1
  V  V6  1  0.90668800  0.23629075  0.15548008  1
  V  V7  1  0.38686433  0.88300987  0.49461992  1
  V  V8  1  0.61336657  0.53079736  0.61648086  1
  V  V9  1  0.49480013  0.11081363  0.61372908  1
  V  V10  1  0.37433792  0.11822742  0.75785802  1
  V  V11  1  0.64245604  0.63188597  -0.00930466  1
  V  V12  1  0.23322422  0.74364240  0.00556913  1
  V  V13  1  0.76124252  0.16572831  0.35495534  1
  V  V14  1  0.37794405  0.50196795  0.89074501  1
  V  V15  1  0.74707041  0.52881012  0.75620923  1
  V  V16  1  0.51124678  0.25932118  0.25774721  1
  V  V17  1  0.88181160  0.50518178  0.37005831  1
  V  V18  1  0.61550514  0.74591537  0.37991365  1
  V  V19  1  0.23905869  0.38110884  0.11593643  1
  V  V20  1  0.11212246  0.26090426  0.36825064  1
  V  V21  1  0.75218166  0.11042751  0.85982366  1
  V  V22  1  0.62881222  0.13269659  0.49190147  1
  V  V23  1  -0.00484378  0.50314430  0.50847070  1
  V  V24  1  0.11817346  0.13248063  0.01514675  1
  V  V25  1  0.22847618  0.49747329  0.24981126  1
  V  V26  1  0.23883762  0.13885142  0.87765342  1
  V  V27  1  0.64994417  0.48876503  0.12566026  1
  V  V28  1  0.48668124  0.00014722  -0.00488595  1
  V  V29  1  0.25591820  0.62428228  0.37344419  1
  V  V30  1  0.76376580  0.76281164  0.49554852  1
  V  V31  1  0.62159540  0.88105610  0.26228186  1
  V  V32  1  0.23998597  0.62804214  0.87632263  1
  V  V33  1  0.38367146  0.63496679  0.73706429  1
  V  V34  1  0.38316498  0.60802429  0.24927687  1
  V  V35  1  0.50289256  0.61472862  0.11399457  1
  V  V36  1  0.48973018  0.12340949  0.13564701  1
  V  V37  1  0.47956755  0.49571694  0.47105586  1
  V  V38  1  0.87712440  0.63868253  0.24244694  1
  V  V39  1  0.63456531  0.00232341  0.12953406  1
  V  V40  1  0.02070850  0.76175000  0.25805875  1
  V  V41  1  0.35633847  0.26051923  0.62938138  1
  V  V42  1  0.37601281  0.85408721  0.00137592  1
  V  V43  1  0.49537868  0.75203919  0.24073424  1
  V  V44  1  0.87922482  -0.01351254  0.86480324  1
  V  V45  1  0.89341738  0.75736800  0.62939452  1
  V  V46  1  0.01011239  0.49309921  -0.00987278  1
  V  V47  1  0.49613171  0.24969309  0.74247339  1
  V  V48  1  0.11934370  0.85887159  0.76235343  1
  V  V49  1  0.75423440  0.85996524  0.12436009  1
  V  V50  1  0.25493788  -0.00544543  0.76260567  1
  V  V51  1  0.62417523  0.37750555  0.73960626  1
  V  V52  1  0.24725368  0.12282351  0.37156334  1
  V  V53  1  0.12543145  0.49822253  0.62296099  1
  V  V54  1  0.51120186  0.75761373  0.74678061  1
  V  V55  1  0.12634647  0.13660264  0.51759346  1
  V  V56  1  0.75057778  0.62298116  0.38004842  1
  V  V57  1  0.73983355  0.88869396  0.61317121  1
  V  V58  1  0.12972076  0.37116091  0.76799210  1
  V  V59  1  0.25943542  0.86887076  0.62890226  1
  V  V60  1  0.37608910  0.26569902  0.11704492  1
  V  V61  1  0.29633540  0.30729094  0.45300135  1
  V  V62  1  0.11961525  -0.00208396  0.63192216  1
  V  V63  1  0.49455650  0.37781527  0.88592245  1
  V  V64  1  0.24535421  0.88719260  0.13363081  1
  V  V65  1  0.00038319  -0.00795212  0.00310717  1
  V  V66  1  0.75581148  0.25497335  -0.00499385  1
  V  V67  1  0.89651758  0.63433352  0.75245248  1
  V  V68  1  0.00357308  -0.01175645  0.48548276  1
  V  V69  1  0.26552410  0.74869679  0.49874122  1
  Zn  Zn70  1  0.86672683  0.46224775  0.88321953  1
  Zn  Zn71  1  0.03025682  0.63651625  0.12252372  1
  Zn  Zn72  1  0.50516741  0.86618845  0.88100723  1
  Zn  Zn73  1  0.36679682  0.00989635  0.38283221  1
  Zn  Zn74  1  0.75105106  0.39019716  0.62741183  1
  Zn  Zn75  1  0.63955071  0.88676697  0.77626893  1
  Zn  Zn76  1  0.18774056  0.19975578  0.18902749  1
  Zn  Zn77  1  0.18199233  0.18505909  0.69996060  1
  Zn  Zn78  1  0.18970032  0.69137909  0.18508035  1
  Zn  Zn79  1  0.19649560  0.68372747  0.68490857  1
  Zn  Zn80  1  0.69411272  0.19056225  0.18431712  1
  Zn  Zn81  1  0.68185441  0.05023884  0.67419450  1
  Zn  Zn82  1  0.68480348  0.67983694  0.19071904  1
  Zn  Zn83  1  0.68818979  0.70453391  0.68531586  1
  Zn  Zn84  1  0.33640898  0.32581776  0.27934253  1
  Zn  Zn85  1  0.31274596  0.31618070  0.81481519  1
  Zn  Zn86  1  0.31451550  0.81056013  0.31518787  1
  Zn  Zn87  1  0.31700399  0.81234661  0.82155617  1
  Zn  Zn88  1  0.87923369  0.30826376  0.33100808  1
  Zn  Zn89  1  0.80656897  0.29236218  0.80509625  1
  Zn  Zn90  1  0.80453753  0.80812841  0.29841838  1
  Zn  Zn91  1  0.95270588  0.80665888  0.83209148  1
  Zn  Zn92  1  0.17886160  0.44456190  0.42825063  1
  Zn  Zn93  1  0.19465206  0.44339604  0.93957693  1
  Zn  Zn94  1  0.19598988  0.94594714  0.45016009  1
  Zn  Zn95  1  0.18231777  0.93743437  0.94556714  1
  Zn  Zn96  1  0.69496649  0.44740140  0.45095787  1
  Zn  Zn97  1  0.67775239  0.44613860  0.93640541  1
  Zn  Zn98  1  0.58164482  0.94114364  0.49190017  1
  Zn  Zn99  1  0.69067484  0.93417511  0.94556127  1
  Zn  Zn100  1  0.30419205  0.06732284  0.06328961  1
  Zn  Zn101  1  0.30901493  0.06365513  0.57040987  1
  Zn  Zn102  1  0.30579825  0.56772543  0.07043498  1
  Zn  Zn103  1  0.32536537  0.55818818  0.55548682  1
  Zn  Zn104  1  0.82394370  0.06720884  0.05712987  1
  Zn  Zn105  1  0.81009350  0.04294709  0.50181112  1
  Zn  Zn106  1  0.82022204  0.56839672  0.05354890  1
  Zn  Zn107  1  0.80703972  0.57462488  0.57318860  1
  Zn  Zn108  1  0.45289501  0.43454898  0.18608228  1
  Zn  Zn109  1  0.44181911  0.43877079  0.68236438  1
  Zn  Zn110  1  0.43572354  0.93363491  0.17892323  1
  Zn  Zn111  1  0.43729727  0.93278625  0.68786242  1
  Zn  Zn112  1  0.82483720  0.40076789  0.06499267  1
  Zn  Zn113  1  0.93543115  0.38373408  0.71621107  1
  Zn  Zn114  1  0.94820825  0.92733615  0.17862381  1
  Zn  Zn115  1  0.93104443  0.93455733  0.68771869  1
  Zn  Zn116  1  0.03008482  0.11377707  0.34491392  1
  Zn  Zn117  1  0.05856680  0.05985970  0.81154615  1
  Zn  Zn118  1  0.05965067  0.57985463  0.31942453  1
  Zn  Zn119  1  0.05656403  0.53491992  0.80402494  1
  Zn  Zn120  1  0.57342462  0.06924289  0.32678209  1
  Zn  Zn121  1  0.55917613  0.05611212  0.80959419  1
  Zn  Zn122  1  0.57106803  0.55743032  0.30490162  1
  Zn  Zn123  1  0.55923676  0.56474793  0.81200601  1
  Zn  Zn124  1  0.43335187  0.19833232  0.43462766  1
  Zn  Zn125  1  0.43346159  0.18757312  0.93861858  1
  Zn  Zn126  1  0.44031710  0.67621369  0.44108034  1
  Zn  Zn127  1  0.44342578  0.68316236  0.92790392  1
  Zn  Zn128  1  0.93552769  0.17748528  0.46252305  1
  Zn  Zn129  1  0.94125905  0.18121022  0.93282136  1
  Zn  Zn130  1  0.94048649  0.69391993  0.43569359  1
  Zn  Zn131  1  0.95529156  0.64217218  0.93359774  1
  Zn  Zn132  1  0.06261564  0.31146960  0.05375439  1
  Zn  Zn133  1  0.05545601  0.31710525  0.58500806  1
  Zn  Zn134  1  0.05691747  0.81403729  0.06581840  1
  Zn  Zn135  1  0.07338222  0.81798287  0.56053829  1
  Zn  Zn136  1  0.56912910  0.30896163  0.06718148  1
  Zn  Zn137  1  0.55222200  0.31318079  0.55447500  1
  Zn  Zn138  1  0.56983639  0.81217630  0.06271180  1
  Zn  Zn139  1  0.56395078  0.79267902  0.56927629  1
  O  O140  1  0.13881365  0.12972211  0.11379197  1
  O  O141  1  0.13375752  0.10815738  0.62703559  1
  O  O142  1  0.13849210  0.61018415  0.12906993  1
  O  O143  1  0.14532441  0.61509755  0.60632541  1
  O  O144  1  0.61555873  0.11590766  0.11735350  1
  O  O145  1  0.60349989  0.11129064  0.60540648  1
  O  O146  1  0.61755512  0.61830049  0.11628270  1
  O  O147  1  0.62170783  0.62979971  0.62558241  1
  O  O148  1  0.36009244  0.34668297  0.38694532  1
  O  O149  1  0.38455147  0.38695987  0.87126426  1
  O  O150  1  0.36889435  0.87744541  0.39304571  1
  O  O151  1  0.37982552  0.87388779  0.89747650  1
  O  O152  1  0.87830495  0.40013300  0.39683446  1
  O  O153  1  0.87785302  0.37718235  0.81302705  1
  O  O154  1  0.85908159  0.90738639  0.35451861  1
  O  O155  1  0.87671796  0.88681133  0.87118567  1
  O  O156  1  0.24714434  0.01629264  0.37722041  1
  O  O157  1  0.24776485  0.00271246  0.86412695  1
  O  O158  1  0.24771990  0.50991683  0.35945661  1
  O  O159  1  0.26545817  0.50858538  0.86831584  1
  O  O160  1  0.81413284  -0.03428353  0.36526001  1
  O  O161  1  0.75819127  0.00572597  0.88256948  1
  O  O162  1  0.76344405  0.51640278  0.38583388  1
  O  O163  1  0.74717856  0.49098615  0.85288440  1
  O  O164  1  0.25522134  0.49194619  0.13998817  1
  O  O165  1  0.25284932  0.50265752  0.63227192  1
  O  O166  1  0.25363488  0.98825497  0.12495351  1
  O  O167  1  0.24384818  0.98888999  0.63733296  1
  O  O168  1  0.75307534  0.48538610  0.11760577  1
  O  O169  1  0.73046203  0.50883435  0.63945304  1
  O  O170  1  0.73354245  1.01012734  0.12468271  1
  O  O171  1  0.75704431  0.99109256  0.60312076  1
  O  O172  1  0.00674243  0.38964426  0.24283373  1
  O  O173  1  0.03695685  0.41886035  0.75839938  1
  O  O174  1  0.00149306  0.86198529  0.25174934  1
  O  O175  1  0.01497614  0.86979884  0.75370876  1
  O  O176  1  0.49854904  0.36086652  0.25662615  1
  O  O177  1  0.50619575  0.36676466  0.75387912  1
  O  O178  1  0.51006253  0.85940786  0.23738218  1
  O  O179  1  0.48750173  0.86288662  0.75838580  1
  O  O180  1  0.51050256  0.12691717  0.23434554  1
  O  O181  1  0.49160517  0.13075212  0.74191993  1
  O  O182  1  0.49432843  0.63040631  0.24517713  1
  O  O183  1  0.48979429  0.63545711  0.75236731  1
  O  O184  1  0.97700995  0.08440379  0.23999651  1
  O  O185  1  1.00512314  0.12118517  0.73006846  1
  O  O186  1  0.98848103  0.62854290  0.24379343  1
  O  O187  1  0.99352349  0.61451110  0.74769982  1
  O  O188  1  0.37674795  0.24405378  0.01789479  1
  O  O189  1  0.36355659  0.25222696  0.51796758  1
  O  O190  1  0.37937218  0.75363461  0.00100123  1
  O  O191  1  0.36955011  0.75727247  0.49702416  1
  O  O192  1  0.85469364  0.24203091  -0.01371778  1
  O  O193  1  0.89258091  0.27609930  0.50471493  1
  O  O194  1  0.81465670  0.75946454  -0.05402692  1
  O  O195  1  0.86873068  0.74437333  0.51141901  1
  O  O196  1  0.11304025  0.23713756  0.52583566  1
  O  O197  1  0.12008151  0.23189270  0.99335536  1
  O  O198  1  0.13952282  0.73890086  0.50392607  1
  O  O199  1  0.13602187  0.75006356  0.99887554  1
  O  O200  1  0.60817643  0.23211987  0.49809765  1
  O  O201  1  0.61741173  0.24073169  0.98224854  1
  O  O202  1  0.63293223  0.75421910  0.48189051  1
  O  O203  1  0.61794835  0.73178217  1.00238569  1
  O  O204  1  0.49601170  0.23745883  0.12309502  1
  O  O205  1  0.49013901  0.24312338  0.63425962  1
  O  O206  1  0.50904821  0.73568444  0.13835144  1
  O  O207  1  0.49473081  0.75213492  0.64442262  1
  O  O208  1  1.00106848  0.24484855  0.12131848  1
  O  O209  1  0.98802420  0.28427584  0.66922294  1
  O  O210  1  1.00804993  0.74729550  0.14260114  1
  O  O211  1  0.99070782  0.75959174  0.61355446  1
  O  O212  1  0.01104692  0.22666664  0.38271685  1
  O  O213  1  -0.01334885  0.23687952  0.84360989  1
  O  O214  1  0.00327904  0.74084830  0.35841764  1
  O  O215  1  -0.01181985  0.74472623  0.91621645  1
  O  O216  1  0.50290700  0.23170691  0.35529575  1
  O  O217  1  0.49743065  0.25824005  0.86538755  1
  O  O218  1  0.51285171  0.73831229  0.36875634  1
  O  O219  1  0.49611917  0.74911074  0.85629170  1
  O  O220  1  0.23172252  0.12095288  0.50310930  1
  O  O221  1  0.23730195  0.11667222  0.98247126  1
  O  O222  1  0.25670266  0.63472010  0.49281191  1
  O  O223  1  0.25459527  0.63217114  0.98832236  1
  O  O224  1  0.72501832  0.11747347  0.51493885  1
  O  O225  1  0.73278176  0.12768579  0.98718256  1
  O  O226  1  0.75551619  0.63914805  0.48586864  1
  O  O227  1  0.74327471  0.63117291  0.99848500  1
  O  O228  1  0.25598178  0.38903347  0.01764415  1
  O  O229  1  0.24579987  0.37978399  0.49808939  1
  O  O230  1  0.25970083  0.86043403  0.00081262  1
  O  O231  1  0.25488671  0.86316715  0.50604818  1
  O  O232  1  0.74474292  0.35870215  -0.01919730  1
  O  O233  1  0.76688530  0.38205781  0.50959809  1
  O  O234  1  0.75047000  0.88245447  0.02607197  1
  O  O235  1  0.76560953  0.86347798  0.49359640  1
  O  O236  1  0.13019321  0.50655191  0.25566429  1
  O  O237  1  0.14864959  0.51207130  0.73416573  1
  O  O238  1  0.12931255  0.94153221  0.28984334  1
  O  O239  1  0.13460115  0.98745774  0.74376598  1
  O  O240  1  0.63738799  0.51304853  0.22614585  1
  O  O241  1  0.62753087  0.49084034  0.74350798  1
  O  O242  1  0.61583124  0.99000725  0.24216029  1
  O  O243  1  0.60909276  0.98951718  0.73682656  1
  O  O244  1  0.41405681  0.00409307  0.26918132  1
  O  O245  1  0.36638110  0.00835817  0.74533321  1
  O  O246  1  0.38350476  0.50859158  0.25256332  1
  O  O247  1  0.36923085  0.50706771  0.74945764  1
  O  O248  1  0.92187368  0.03461325  0.24928288  1
  O  O249  1  0.87657933  -0.00074159  0.76321342  1
  O  O250  1  0.88102502  0.51099593  0.27211416  1
  O  O251  1  0.84956102  0.52963454  0.73567012  1
  O  O252  1  0.11168748  0.35940222  0.38991785  1
  O  O253  1  0.14186804  0.37427945  0.86725940  1
  O  O254  1  0.13425691  0.89647054  0.34725155  1
  O  O255  1  0.13831591  0.87153589  0.85962596  1
  O  O256  1  0.63597399  0.38010981  0.36469542  1
  O  O257  1  0.60949241  0.37011710  0.86485159  1
  O  O258  1  0.61692920  0.86571150  0.36478800  1
  O  O259  1  0.61963637  0.87502083  0.88522628  1
  O  O260  1  0.38735862  0.12568719  0.12396154  1
  O  O261  1  0.37646341  0.13533044  0.63822970  1
  O  O262  1  0.38694949  0.62087428  0.14029240  1
  O  O263  1  0.37116838  0.62223635  0.63899524  1
  O  O264  1  0.86362252  0.14865053  0.12231921  1
  O  O265  1  0.80007777  0.20752346  0.61315489  1
  O  O266  1  0.86002724  0.62293032  0.14634200  1
  O  O267  1  0.86129581  0.65089638  0.64023066  1
  O  O268  1  0.26699154  0.27053557  0.13804269  1
  O  O269  1  0.25875343  0.24889902  0.63912676  1
  O  O270  1  0.25417497  0.74874980  0.10691994  1
  O  O271  1  0.25165427  0.75672400  0.61004589  1
  O  O272  1  0.72684759  0.24534459  0.09100195  1
  O  O273  1  0.74041197  0.24964061  0.61526743  1
  O  O274  1  0.74227258  0.76025619  0.13204280  1
  O  O275  1  0.74240348  0.76209835  0.60200869  1
  O  O276  1  0.22904328  0.24781768  0.39536147  1
  O  O277  1  0.25391245  0.23763442  0.87089489  1
  O  O278  1  0.25390037  0.74087514  0.38816238  1
  O  O279  1  0.25546493  0.73381821  0.88452544  1
  O  O280  1  0.77412453  0.26506096  0.36075674  1
  O  O281  1  0.73413814  0.23380573  0.87688078  1
  O  O282  1  0.74712021  0.74769172  0.38323295  1
  O  O283  1  0.75712500  0.76348133  0.90328795  1
  O  O284  1  0.01228130  0.11957091  -0.00163629  1
  O  O285  1  0.01974656  0.10865530  0.50778751  1
  O  O286  1  -0.02467033  0.58623949  0.03578480  1
  O  O287  1  0.01830794  0.62694719  0.50033952  1
  O  O288  1  0.50613219  0.11625868  0.00513533  1
  O  O289  1  0.48109992  0.13244771  0.51630453  1
  O  O290  1  0.49435275  0.62664170  0.01496732  1
  O  O291  1  0.49401863  0.59770841  0.49891931  1
  O  O292  1  0.50634405  0.40040815  0.50517702  1
  O  O293  1  0.50405174  0.36839852  0.98294552  1
  O  O294  1  0.48929769  0.87064791  0.50413984  1
  O  O295  1  0.48937073  0.88490611  1.01062130  1
  O  O296  1  0.99264984  0.39831560  0.51419799  1
  O  O297  1  0.99586529  0.39771266  1.02241214  1
  O  O298  1  1.02774867  0.88866518  0.48565498  1
  O  O299  1  1.01540346  0.89195735  0.99223950  1
  O  O300  1  0.50755117  0.49644049  0.37236358  1
  O  O301  1  0.48899066  0.48743587  0.87032184  1
  O  O302  1  0.47279922  0.99933747  0.33123484  1
  O  O303  1  0.50231728  0.99949059  0.89461582  1
  O  O304  1  0.99064364  0.51613664  0.39487279  1
  O  O305  1  0.98270671  0.51392708  0.88934885  1
  O  O306  1  1.00560012  1.01068140  0.38677554  1
  O  O307  1  0.98498374  1.00760665  0.87856791  1
  O  O308  1  -0.00600524  -0.00301359  0.10441489  1
  O  O309  1  0.01999536  -0.01545056  0.62927808  1
  O  O310  1  -0.01119786  0.43170349  0.18655732  1
  O  O311  1  0.02123518  0.51520200  0.61555148  1
  O  O312  1  0.50547170  0.01071719  0.11704958  1
  O  O313  1  0.48257642  0.01192288  0.61947755  1
  O  O314  1  0.50664846  0.51320822  0.12660018  1
  O  O315  1  0.51583855  0.50684498  0.63416922  1
  O  O316  1  0.25049637  0.39321863  0.24610471  1
  O  O317  1  0.24604088  0.39402604  0.75426232  1
  O  O318  1  0.26491274  0.86551308  0.23132810  1
  O  O319  1  0.25386987  0.87767334  0.74551930  1
  O  O320  1  0.67115929  0.37544815  0.30051420  1
  O  O321  1  0.72707675  0.36377241  0.74476343  1
  O  O322  1  0.72441572  0.87159686  0.24568432  1
  O  O323  1  0.73191806  0.87434653  0.71108711  1
  O  O324  1  0.23909427  0.13760549  0.27350828  1
  O  O325  1  0.25652514  0.11525588  0.75924171  1
  O  O326  1  0.26467239  0.61466826  0.25253319  1
  O  O327  1  0.26403002  0.61728379  0.75959789  1
  O  O328  1  0.76359936  0.13823615  0.25795054  1
  O  O329  1  0.73106230  0.11171642  0.76228721  1
  O  O330  1  0.76424137  0.63749467  0.26950498  1
  O  O331  1  0.72903959  0.62692583  0.76113003  1
  O  O332  1  0.34959100  0.13322278  0.39102878  1
  O  O333  1  0.36708747  0.12858861  0.86325852  1
  O  O334  1  0.36721416  0.62999954  0.35955362  1
  O  O335  1  0.37546631  0.60947317  0.86450374  1
  O  O336  1  0.84323760  0.12371315  0.41196203  1
  O  O337  1  0.85241408  0.12063470  0.87336091  1
  O  O338  1  0.86861936  0.62198206  0.37274543  1
  O  O339  1  0.87271417  0.63144775  0.85108203  1
  O  O340  1  0.14122845  0.36820285  0.12203103  1
  O  O341  1  0.13091724  0.39624428  0.62890770  1
  O  O342  1  0.14696101  0.87125830  0.11777263  1
  O  O343  1  0.14036604  0.88137596  0.63449783  1
  O  O344  1  0.62105675  0.39210266  0.11922080  1
  O  O345  1  0.62008202  0.36966066  0.63716926  1
  O  O346  1  0.63000865  0.88887277  0.13158396  1
  O  O347  1  0.63593085  0.88708950  0.58012459  1
  O  O348  1  0.12199541  0.25338230  0.26952357  1
  O  O349  1  0.12709990  0.27323688  0.74504821  1
  O  O350  1  0.12231777  0.74695183  0.25674382  1
  O  O351  1  0.13643842  0.76105269  0.74273823  1
  O  O352  1  0.61000570  0.24851657  0.23461263  1
  O  O353  1  0.61018681  0.25801944  0.76049040  1
  O  O354  1  0.61575275  0.75648209  0.26099771  1
  O  O355  1  0.61445219  0.76669911  0.74661731  1
  O  O356  1  0.39557060  0.24589223  0.22778239  1
  O  O357  1  0.37943915  0.24311212  0.74560392  1
  O  O358  1  0.39435115  0.74534986  0.25635866  1
  O  O359  1  0.37122662  0.73592034  0.75162841  1
  O  O360  1  0.91385459  0.23378770  0.25931916  1
  O  O361  1  0.86255929  0.21409998  0.74167038  1
  O  O362  1  0.88406170  0.74144490  0.25473152  1
  O  O363  1  0.89421274  0.74639458  0.74099034  1
  O  O364  1  0.37693956  0.49276887  0.48202907  1
  O  O365  1  0.37246533  0.50738258  0.98814440  1
  O  O366  1  0.36878093  0.98663802  0.50117569  1
  O  O367  1  0.38696367  1.00508525  1.00314269  1
  O  O368  1  0.88844983  0.51233398  0.50832853  1
  O  O369  1  0.86569559  0.48124149  0.99485098  1
  O  O370  1  0.90675635  0.99284955  0.51610171  1
  O  O371  1  0.88891063  1.00709564  0.98630574  1
  O  O372  1  0.11212497  0.01657239  -0.01262321  1
  O  O373  1  0.12395192  0.00428074  0.51883856  1
  O  O374  1  0.10979950  0.50308703  -0.01179595  1
  O  O375  1  0.11896802  0.50858504  0.50631651  1
  O  O376  1  0.61587130  0.00540928  0.01432730  1
  O  O377  1  0.58638394  0.04010971  0.44540421  1
  O  O378  1  0.63215456  0.51519157  0.01543252  1
  O  O379  1  0.62734220  0.50723955  0.51746200  1
  O  O380  1  0.38149791  0.36875769  0.12148083  1
  O  O381  1  0.37389518  0.35898853  0.63810030  1
  O  O382  1  0.36575754  0.87833627  0.10746208  1
  O  O383  1  0.36457043  0.87720848  0.61207226  1
  O  O384  1  0.85810676  0.32589461  0.13940298  1
  O  O385  1  0.87134968  0.39057841  0.61939056  1
  O  O386  1  0.84745810  0.88379023  0.15570465  1
  O  O387  1  0.86198827  0.85986497  0.62881147  1
  O  O388  1  0.13371664  0.13964487  0.39689345  1
  O  O389  1  0.13964113  0.12771783  0.86056105  1
  O  O390  1  0.14193408  0.61986260  0.39348021  1
  O  O391  1  0.14417549  0.61297918  0.86429010  1
  O  O392  1  0.65920277  0.14176586  0.37649545  1
  O  O393  1  0.62252869  0.12764847  0.88002049  1
  O  O394  1  0.64122801  0.63711950  0.36576787  1
  O  O395  1  0.61783857  0.61273143  0.89377446  1
