# generated using pymatgen
data_V35Zn35O128
_symmetry_space_group_name_H-M   'P 1'
_cell_length_a   16.89125336
_cell_length_b   16.88698466
_cell_length_c   16.91723925
_cell_angle_alpha   89.99159332
_cell_angle_beta   89.84588594
_cell_angle_gamma   90.17429555
_symmetry_Int_Tables_number   1
_chemical_formula_structural   V35Zn35O128
_chemical_formula_sum   'V70 Zn70 O256'
_cell_volume   4825.47300691
_cell_formula_units_Z   2
loop_
 _symmetry_equiv_pos_site_id
 _symmetry_equiv_pos_as_xyz
  1  'x, y, z'
loop_
 _atom_site_type_symbol
 _atom_site_label
 _atom_site_symmetry_multiplicity
 _atom_site_fract_x
 _atom_site_fract_y
 _atom_site_fract_z
 _atom_site_occupancy
  V  V0  1  0.37526708  0.50382658  0.87843912  1
  V  V1  1  0.35813534  0.01305957  0.37482953  1
  V  V2  1  0.24700420  0.76556251  0.00909401  1
  V  V3  1  0.54581065  0.67691472  0.55758517  1
  V  V4  1  0.49854238  0.75700194  0.76919509  1
  V  V5  1  0.61721531  0.50860461  0.10666289  1
  V  V6  1  0.50780538  0.01191594  0.50538282  1
  V  V7  1  0.12210546  0.87818003  0.72070126  1
  V  V8  1  0.10582465  0.12535824  0.00790658  1
  V  V9  1  0.62853357  0.25555427  0.36666187  1
  V  V10  1  0.38110321  0.49630403  0.38118987  1
  V  V11  1  0.24686579  -0.00547112  0.73561169  1
  V  V12  1  0.09175259  0.79798957  0.91068745  1
  V  V13  1  0.87226259  0.75705964  0.12595131  1
  V  V14  1  0.75043604  0.62493922  0.86215764  1
  V  V15  1  0.50098303  0.37356102  0.87508888  1
  V  V16  1  0.73614660  0.00735843  0.23304432  1
  V  V17  1  0.60766755  0.13753928  -0.01500224  1
  V  V18  1  0.75344867  0.01183068  0.75497514  1
  V  V19  1  0.87510192  -0.00533553  0.88943081  1
  V  V20  1  0.00916719  0.35785322  0.37701193  1
  V  V21  1  0.26055566  0.36053699  0.62411696  1
  V  V22  1  0.00779016  0.37580444  0.87952751  1
  V  V23  1  0.25532253  0.24729469  0.47510093  1
  V  V24  1  0.12167630  0.61278908  -0.00733222  1
  V  V25  1  0.87030139  0.61822893  0.26384148  1
  V  V26  1  0.74875846  0.37522789  0.13551131  1
  V  V27  1  0.49411756  0.25144302  0.75186275  1
  V  V28  1  0.75630909  0.12588557  0.38471739  1
  V  V29  1  0.00602535  0.74508335  0.26841995  1
  V  V30  1  0.24580703  0.12599604  0.87858493  1
  V  V31  1  0.87503412  0.49273843  0.37490936  1
  V  V32  1  0.00496316  0.61525348  0.12336240  1
  V  V33  1  0.00439037  0.74213377  0.72888447  1
  V  V34  1  0.74857480  0.87120877  0.61662136  1
  V  V35  1  0.24968366  0.49517464  0.74971639  1
  V  V36  1  0.25826292  0.74437955  0.49690423  1
  V  V37  1  0.12936801  0.36328814  0.25395587  1
  V  V38  1  0.62468640  0.86054001  0.24892143  1
  V  V39  1  0.37374785  -0.01342923  0.88127287  1
  V  V40  1  0.24836032  0.24449078  -0.00132936  1
  V  V41  1  0.39006291  0.24008522  0.12937349  1
  V  V42  1  0.87634371  0.12550134  0.23095251  1
  V  V43  1  0.12693463  0.49384593  0.62856201  1
  V  V44  1  0.87799449  0.36473431  0.51445358  1
  V  V45  1  0.12221670  -0.00531603  0.12121709  1
  V  V46  1  0.36942434  0.75560159  0.62439575  1
  V  V47  1  0.13470565  0.74705071  0.37626551  1
  V  V48  1  0.36829813  0.12544242  0.25704862  1
  V  V49  1  0.63380317  0.37399635  0.74858663  1
  V  V50  1  0.62380594  0.88183830  0.75763849  1
  V  V51  1  0.48812725  0.45538091  0.50823736  1
  V  V52  1  0.13433081  0.61991572  0.49732696  1
  V  V53  1  0.00134438  -0.00344326  0.47413545  1
  V  V54  1  0.38062569  0.37822282  0.00184863  1
  V  V55  1  0.75192922  0.24931634  0.51702243  1
  V  V56  1  0.36935366  0.12843754  0.74503060  1
  V  V57  1  0.51196375  0.12421871  0.62920103  1
  V  V58  1  0.12009861  0.13056526  0.49072548  1
  V  V59  1  0.50411357  0.88184218  0.37158687  1
  V  V60  1  0.25712264  0.50988024  0.24964280  1
  V  V61  1  0.00907136  0.49653030  0.49852736  1
  V  V62  1  0.49767406  -0.01531834  0.00012907  1
  V  V63  1  0.24889424  0.37166604  0.12441512  1
  V  V64  1  0.62659216  0.49624416  0.62027978  1
  V  V65  1  -0.01417329  0.25203225  0.73889964  1
  V  V66  1  0.14308275  0.88090594  0.25199672  1
  V  V67  1  0.37628706  0.62845705  0.74492497  1
  V  V68  1  -0.00467652  0.24561115  0.23055436  1
  V  V69  1  0.36463203  0.88511013  0.50695307  1
  Zn  Zn70  1  0.87136791  0.40906755  -0.01269734  1
  Zn  Zn71  1  0.49847961  0.61321667  0.17729665  1
  Zn  Zn72  1  0.87001634  0.74779978  0.62229808  1
  Zn  Zn73  1  0.24143822  0.63831484  0.87312110  1
  Zn  Zn74  1  0.87034122  -0.01804120  0.37615095  1
  Zn  Zn75  1  0.11998857  0.49156410  0.12503330  1
  Zn  Zn76  1  0.18781590  0.18276718  0.18474137  1
  Zn  Zn77  1  0.17606430  0.17357432  0.68040874  1
  Zn  Zn78  1  0.19069463  0.68784102  0.18385229  1
  Zn  Zn79  1  0.18762581  0.68374026  0.68291348  1
  Zn  Zn80  1  0.69631879  0.19710693  0.18188463  1
  Zn  Zn81  1  0.68568074  0.19173852  0.69725780  1
  Zn  Zn82  1  0.68618324  0.67829024  0.19202346  1
  Zn  Zn83  1  0.67505193  0.69214417  0.67778818  1
  Zn  Zn84  1  0.33054836  0.32267560  0.30632808  1
  Zn  Zn85  1  0.31018108  0.31285346  0.81317727  1
  Zn  Zn86  1  0.31813034  0.81989105  0.32235405  1
  Zn  Zn87  1  0.29122382  0.81088068  0.82040470  1
  Zn  Zn88  1  0.81480019  0.31149022  0.31477639  1
  Zn  Zn89  1  0.82915443  0.31863264  0.79969151  1
  Zn  Zn90  1  0.81101689  0.81715378  0.29839298  1
  Zn  Zn91  1  0.82033464  0.81934819  0.80068859  1
  Zn  Zn92  1  0.19641307  0.42805113  0.43620311  1
  Zn  Zn93  1  0.18677516  0.43417984  0.93394884  1
  Zn  Zn94  1  0.17969470  0.93712477  0.44188316  1
  Zn  Zn95  1  0.18163968  0.94844085  0.93709398  1
  Zn  Zn96  1  0.68887295  0.43902929  0.44310148  1
  Zn  Zn97  1  0.68161085  0.44053625  0.94232178  1
  Zn  Zn98  1  0.68648175  0.94602616  0.43444211  1
  Zn  Zn99  1  0.67420189  0.94680673  0.92727764  1
  Zn  Zn100  1  0.31048320  0.05318877  0.07005491  1
  Zn  Zn101  1  0.30901017  0.07743848  0.55790856  1
  Zn  Zn102  1  0.30693051  0.56538139  0.06212682  1
  Zn  Zn103  1  0.31831786  0.55875653  0.56163685  1
  Zn  Zn104  1  0.82283158  0.06095916  0.04524800  1
  Zn  Zn105  1  0.81427264  0.04668700  0.56245886  1
  Zn  Zn106  1  0.82303212  0.53786510  0.09810374  1
  Zn  Zn107  1  0.83646411  0.55072197  0.60319686  1
  Zn  Zn108  1  0.43507499  0.43514611  0.20063839  1
  Zn  Zn109  1  0.43461039  0.43649086  0.68927743  1
  Zn  Zn110  1  0.52157739  1.01189939  0.20250742  1
  Zn  Zn111  1  0.43502691  0.94081930  0.69219624  1
  Zn  Zn112  1  0.93670991  0.42824908  0.18997009  1
  Zn  Zn113  1  0.94592998  0.43575669  0.70052980  1
  Zn  Zn114  1  0.94296173  0.93097625  0.21610449  1
  Zn  Zn115  1  0.92342208  0.93020116  0.69719616  1
  Zn  Zn116  1  0.06935293  0.06885140  0.30884883  1
  Zn  Zn117  1  0.06732748  0.05024383  0.82026124  1
  Zn  Zn118  1  0.07028956  0.55592134  0.31404573  1
  Zn  Zn119  1  0.05233388  0.56141858  0.80823618  1
  Zn  Zn120  1  0.54293670  0.10766298  0.33968778  1
  Zn  Zn121  1  0.55944602  0.06146989  0.81684885  1
  Zn  Zn122  1  0.58434938  0.55634022  0.35078322  1
  Zn  Zn123  1  0.55680574  0.56022383  0.80424856  1
  Zn  Zn124  1  0.43875435  0.20434707  0.44853588  1
  Zn  Zn125  1  0.43500925  0.18291069  0.93748288  1
  Zn  Zn126  1  0.46609778  0.67252187  0.36963323  1
  Zn  Zn127  1  0.42398971  0.69514118  0.94193507  1
  Zn  Zn128  1  0.93592879  0.18034549  0.43575820  1
  Zn  Zn129  1  0.93326915  0.17426330  0.90806613  1
  Zn  Zn130  1  0.92088432  0.66789867  0.46733232  1
  Zn  Zn131  1  0.90931037  0.85722245  0.98365159  1
  Zn  Zn132  1  0.05904400  0.31430826  0.04998517  1
  Zn  Zn133  1  0.07468566  0.30788541  0.56491354  1
  Zn  Zn134  1  0.06541622  0.80303993  0.08307602  1
  Zn  Zn135  1  0.06382808  0.81633889  0.55446576  1
  Zn  Zn136  1  0.56990280  0.31811653  0.06502301  1
  Zn  Zn137  1  0.57105317  0.30123125  0.56858307  1
  Zn  Zn138  1  0.51126770  0.85482804  0.09618346  1
  Zn  Zn139  1  0.56049873  0.84030603  0.56692040  1
  O  O140  1  0.12204516  0.11618788  0.11501273  1
  O  O141  1  0.13007258  0.11894975  0.59630855  1
  O  O142  1  0.11555596  0.62081596  0.12197483  1
  O  O143  1  0.13706437  0.60799608  0.60846904  1
  O  O144  1  0.65683463  0.12232764  0.09495272  1
  O  O145  1  0.61038949  0.12290503  0.63488795  1
  O  O146  1  0.61212904  0.61482816  0.13514523  1
  O  O147  1  0.60708332  0.61209333  0.61974790  1
  O  O148  1  0.40440585  0.40909935  0.31500256  1
  O  O149  1  0.37921204  0.38169891  0.88264628  1
  O  O150  1  0.38214083  0.89723112  0.38442439  1
  O  O151  1  0.36270383  0.88857453  0.86847914  1
  O  O152  1  0.89262444  0.37825489  0.37928824  1
  O  O153  1  0.88328073  0.37923747  0.87462479  1
  O  O154  1  0.89231318  0.88936433  0.31736760  1
  O  O155  1  0.87290640  0.88331672  0.87555196  1
  O  O156  1  0.26053559  0.00380578  0.38808132  1
  O  O157  1  0.25789926  0.00884215  0.87106441  1
  O  O158  1  0.26883950  0.47946174  0.35841384  1
  O  O159  1  0.25790381  0.49707945  0.86467011  1
  O  O160  1  0.75376278  0.01516293  0.36985656  1
  O  O161  1  0.75513742  -0.00477802  0.86456630  1
  O  O162  1  0.77863992  0.47853436  0.37423692  1
  O  O163  1  0.74147694  0.52041178  0.86930697  1
  O  O164  1  0.24597997  0.48754137  0.13097304  1
  O  O165  1  0.24854817  0.49033156  0.63017089  1
  O  O166  1  0.22667403  1.00471824  0.12843213  1
  O  O167  1  0.25787637  1.00684071  0.63846870  1
  O  O168  1  0.72126364  0.50457485  0.13544023  1
  O  O169  1  0.72427207  0.50818568  0.60580697  1
  O  O170  1  0.75639389  0.99905402  0.13773474  1
  O  O171  1  0.75769258  0.99030583  0.64381218  1
  O  O172  1  0.00770100  0.36191771  0.25506863  1
  O  O173  1  0.00179872  0.35931777  0.75918025  1
  O  O174  1  0.02599714  0.84615102  0.24980314  1
  O  O175  1  0.01760255  0.87604623  0.73427172  1
  O  O176  1  0.55593430  0.39011217  0.26016711  1
  O  O177  1  0.49720841  0.36654083  0.75703428  1
  O  O178  1  0.51288541  0.90017468  0.26602983  1
  O  O179  1  0.50684661  0.86624098  0.74488382  1
  O  O180  1  0.48143831  0.10999402  0.24389211  1
  O  O181  1  0.49174267  0.12877846  0.74569877  1
  O  O182  1  0.52441587  0.62117927  0.28671224  1
  O  O183  1  0.48607720  0.64069884  0.75731375  1
  O  O184  1  0.99121071  0.13747062  0.24903211  1
  O  O185  1  1.03144721  0.14622283  0.75643365  1
  O  O186  1  1.00650548  0.62964583  0.24952253  1
  O  O187  1  1.01808506  0.64292262  0.73889868  1
  O  O188  1  0.36860742  0.25563246  0.00971015  1
  O  O189  1  0.35284836  0.24339018  0.50616673  1
  O  O190  1  0.34533235  0.76315787  -0.01697915  1
  O  O191  1  0.36861051  0.76461590  0.50705473  1
  O  O192  1  0.77286671  0.25834963  -0.04117010  1
  O  O193  1  0.87330720  0.25886918  0.49841334  1
  O  O194  1  0.87685748  0.75384294  0.02518490  1
  O  O195  1  0.85519762  0.76766490  0.44074286  1
  O  O196  1  0.13739457  0.24287237  0.49544122  1
  O  O197  1  0.13754574  0.23438263  1.01036512  1
  O  O198  1  0.13709741  0.74220689  0.49589973  1
  O  O199  1  0.12572833  0.73293581  1.00167878  1
  O  O200  1  0.64862783  0.24873558  0.50002463  1
  O  O201  1  0.60489363  0.23813499  0.99297332  1
  O  O202  1  0.60786303  0.74331827  0.51631894  1
  O  O203  1  0.68524343  0.80077700  1.02151736  1
  O  O204  1  0.48753439  0.25545652  0.12048892  1
  O  O205  1  0.50091570  0.23503973  0.63757369  1
  O  O206  1  0.46583433  0.76078509  0.14995456  1
  O  O207  1  0.48635209  0.74430708  0.61923348  1
  O  O208  1  0.99680911  0.25636221  0.13254478  1
  O  O209  1  1.00622001  0.25800735  0.63934164  1
  O  O210  1  0.99415532  0.73192368  0.14282075  1
  O  O211  1  0.99848272  0.75256276  0.62369222  1
  O  O212  1  -0.00108001  0.25636274  0.36790047  1
  O  O213  1  -0.01376073  0.25880987  0.86242682  1
  O  O214  1  0.01645325  0.73865325  0.37174000  1
  O  O215  1  0.02773942  0.75372404  0.84980236  1
  O  O216  1  0.52774846  0.22236577  0.38345865  1
  O  O217  1  0.49166858  0.26161460  0.86581128  1
  O  O218  1  0.48587945  0.78401034  0.37654842  1
  O  O219  1  0.49208797  0.75389400  0.86814244  1
  O  O220  1  0.24226498  0.13948319  0.49160315  1
  O  O221  1  0.25425997  0.13143998  0.99522091  1
  O  O222  1  0.25097983  0.63413966  0.50181278  1
  O  O223  1  0.23551413  0.63167237  0.99838897  1
  O  O224  1  0.76881833  0.13385178  0.49250181  1
  O  O225  1  0.71214896  0.11775145  1.03021334  1
  O  O226  1  0.77934014  0.73780430  0.43960619  1
  O  O227  1  0.74976210  0.64335359  0.96277262  1
  O  O228  1  0.25754363  0.36446527  0.00589718  1
  O  O229  1  0.24510781  0.35671317  0.51415460  1
  O  O230  1  0.22077280  0.86419807  0.00303764  1
  O  O231  1  0.25971402  0.86829284  0.49616070  1
  O  O232  1  0.75737202  0.38744910  0.00306438  1
  O  O233  1  0.76818267  0.36242024  0.50102105  1
  O  O234  1  0.72986837  0.85500850  -0.00115276  1
  O  O235  1  0.73843033  0.88976989  0.51727982  1
  O  O236  1  0.13487487  0.47961128  0.24869219  1
  O  O237  1  0.13505670  0.50950942  0.73419245  1
  O  O238  1  0.13477520  0.98244456  0.26062330  1
  O  O239  1  0.13822730  0.99432227  0.74835611  1
  O  O240  1  0.60617277  0.44304133  0.26874333  1
  O  O241  1  0.61034544  0.48816925  0.73108035  1
  O  O242  1  0.63391933  1.01827602  0.24118814  1
  O  O243  1  0.63059096  0.98930674  0.75860324  1
  O  O244  1  0.36678654  0.01176309  0.27047168  1
  O  O245  1  0.36297655  0.00599999  0.75981871  1
  O  O246  1  0.35550651  0.52114955  0.22562946  1
  O  O247  1  0.36812273  0.50977595  0.75529282  1
  O  O248  1  0.86635412  0.02133058  0.24755116  1
  O  O249  1  0.86002798  -0.00114986  0.76682498  1
  O  O250  1  0.89266693  0.50739454  0.26660737  1
  O  O251  1  0.87381924  0.51699748  0.70219699  1
  O  O252  1  0.12189365  0.37214660  0.36430063  1
  O  O253  1  0.11061595  0.36417997  0.88940684  1
  O  O254  1  0.13361754  0.85690942  0.36751824  1
  O  O255  1  0.12394397  0.88225174  0.85858633  1
  O  O256  1  0.63386251  0.35350931  0.38788795  1
  O  O257  1  0.60950269  0.39205886  0.86185109  1
  O  O258  1  0.60930952  0.88593005  0.37509742  1
  O  O259  1  0.62825811  0.86593843  0.85696010  1
  O  O260  1  0.37362112  0.13541268  0.13094969  1
  O  O261  1  0.37748337  0.12248425  0.64208927  1
  O  O262  1  0.41074941  0.62182090  0.09274248  1
  O  O263  1  0.37080147  0.63443379  0.63667575  1
  O  O264  1  0.86821772  0.12800728  0.13177035  1
  O  O265  1  0.91446190  0.09403391  0.63496503  1
  O  O266  1  0.88834442  0.62392851  0.14661151  1
  O  O267  1  0.86313673  0.65110924  0.56484120  1
  O  O268  1  0.25906884  0.25589336  0.11742432  1
  O  O269  1  0.24072197  0.26336953  0.64467616  1
  O  O270  1  0.24893472  0.74588290  0.10989969  1
  O  O271  1  0.26229871  0.74886414  0.61534722  1
  O  O272  1  0.75192084  0.27512626  0.11857864  1
  O  O273  1  0.75341756  0.23920934  0.61589290  1
  O  O274  1  0.77391119  0.74332890  0.15271491  1
  O  O275  1  0.74744077  0.76393403  0.62878135  1
  O  O276  1  0.26170821  0.26623950  0.37672794  1
  O  O277  1  0.25548242  0.23965320  0.88627548  1
  O  O278  1  0.25002157  0.74912522  0.38714079  1
  O  O279  1  0.21599135  0.75317912  0.88484649  1
  O  O280  1  0.74908042  0.24192181  0.38344778  1
  O  O281  1  0.75635412  0.24575712  0.88848560  1
  O  O282  1  0.73938554  0.75843706  0.37551878  1
  O  O283  1  0.75469632  0.72978079  0.85088019  1
  O  O284  1  0.00985725  0.13894637  -0.00222673  1
  O  O285  1  0.00947508  0.11654372  0.49365866  1
  O  O286  1  0.01187468  0.62248683  0.01936624  1
  O  O287  1  0.01678137  0.60405321  0.49503580  1
  O  O288  1  0.50211682  0.11250563  -0.00160670  1
  O  O289  1  0.49127963  0.12170285  0.51978897  1
  O  O290  1  0.46206038  0.62662746  0.02740314  1
  O  O291  1  0.49473724  0.63478500  0.48292954  1
  O  O292  1  0.48611159  0.35562106  0.50908285  1
  O  O293  1  0.48750477  0.37114436  0.99050305  1
  O  O294  1  0.48885540  0.89629697  0.49583595  1
  O  O295  1  0.49982777  0.88364521  0.98557685  1
  O  O296  1  0.99957885  0.37365231  0.49419553  1
  O  O297  1  0.98498186  0.37144644  0.98774408  1
  O  O298  1  1.00719483  0.89888348  0.50289331  1
  O  O299  1  1.02655432  0.84572518  0.98169406  1
  O  O300  1  0.49371885  0.49000809  0.40564255  1
  O  O301  1  0.48278000  0.49222012  0.86616587  1
  O  O302  1  0.48824890  1.00967683  0.39415408  1
  O  O303  1  0.47928413  1.00146330  0.87767576  1
  O  O304  1  1.00558535  0.48254590  0.38450826  1
  O  O305  1  1.00259972  0.47720649  0.85990902  1
  O  O306  1  0.99843685  0.99931842  0.37160146  1
  O  O307  1  0.97419417  1.01293489  0.86950966  1
  O  O308  1  0.02341869  -0.00454513  0.15556277  1
  O  O309  1  -0.03384452  0.03928484  0.63999673  1
  O  O310  1  0.00207082  0.51088783  0.13654047  1
  O  O311  1  0.02147934  0.48762537  0.61443905  1
  O  O312  1  0.48041190  -0.02349216  0.10472613  1
  O  O313  1  0.49249161  0.01223211  0.61850693  1
  O  O314  1  0.51619269  0.49288248  0.14502973  1
  O  O315  1  0.49006921  0.49566650  0.60757549  1
  O  O316  1  0.24574860  0.37367024  0.23777519  1
  O  O317  1  0.25402843  0.38785222  0.74435257  1
  O  O318  1  0.24193176  0.86251646  0.24993858  1
  O  O319  1  0.24202538  0.88811692  0.74587758  1
  O  O320  1  0.76150958  0.37595582  0.23657772  1
  O  O321  1  0.73230906  0.36837754  0.75916637  1
  O  O322  1  0.72782237  0.89599658  0.26151817  1
  O  O323  1  0.73725100  0.87892688  0.74390552  1
  O  O324  1  0.26771660  0.13224249  0.24764428  1
  O  O325  1  0.25052627  0.11641250  0.75853729  1
  O  O326  1  0.22969030  0.60507389  0.25342154  1
  O  O327  1  0.25665094  0.61811667  0.75295313  1
  O  O328  1  0.75992015  0.12318950  0.25135294  1
  O  O329  1  0.74325009  0.11136296  0.75027450  1
  O  O330  1  0.77219807  0.62109958  0.25906542  1
  O  O331  1  0.73910769  0.62641506  0.75546684  1
  O  O332  1  0.37789713  0.12452207  0.36807722  1
  O  O333  1  0.36358543  0.11809659  0.86554938  1
  O  O334  1  0.37780624  0.59479571  0.36705933  1
  O  O335  1  0.36711471  0.61842150  0.86726295  1
  O  O336  1  0.86278425  0.13057499  0.36016340  1
  O  O337  1  0.85387106  0.09996458  0.92913045  1
  O  O338  1  0.88614982  0.60471066  0.37421087  1
  O  O339  1  0.85173561  0.61255976  0.85545921  1
  O  O340  1  0.13462031  0.36961284  0.12818437  1
  O  O341  1  0.14071827  0.38933725  0.62290724  1
  O  O342  1  0.12788049  0.88136996  0.14094101  1
  O  O343  1  0.13223558  0.88663556  0.62260562  1
  O  O344  1  0.63766472  0.39023939  0.11707163  1
  O  O345  1  0.62245496  0.38042392  0.63901837  1
  O  O346  1  0.61156546  0.87168096  0.14943603  1
  O  O347  1  0.63525812  0.87601030  0.64084751  1
  O  O348  1  0.11299402  0.25473499  0.24155165  1
  O  O349  1  0.09518457  0.20403827  0.76200594  1
  O  O350  1  0.12516226  0.74312091  0.26218150  1
  O  O351  1  0.12379947  0.76876404  0.72815452  1
  O  O352  1  0.63620056  0.24783716  0.26555729  1
  O  O353  1  0.61133837  0.26500645  0.74891286  1
  O  O354  1  0.63292234  0.76210794  0.25960867  1
  O  O355  1  0.60133872  0.75307761  0.74508247  1
  O  O356  1  0.38056987  0.24193746  0.23756237  1
  O  O357  1  0.38205254  0.24086944  0.75603621  1
  O  O358  1  0.37824175  0.74336348  0.25112781  1
  O  O359  1  0.37881808  0.74996265  0.74439625  1
  O  O360  1  0.88768055  0.24388872  0.24870410  1
  O  O361  1  0.88370602  0.23760284  0.74264390  1
  O  O362  1  0.89318692  0.73060546  0.26271790  1
  O  O363  1  0.90095147  0.75712981  0.74416015  1
  O  O364  1  0.37355058  0.48306747  0.48937310  1
  O  O365  1  0.36213413  0.48733394  0.99053860  1
  O  O366  1  0.37550166  1.00109233  0.49779398  1
  O  O367  1  0.37643474  1.00209220  0.98747836  1
  O  O368  1  0.89093075  0.48463738  0.49305291  1
  O  O369  1  0.85668235  0.52370663  0.99284025  1
  O  O370  1  0.89326052  1.00887780  0.48957710  1
  O  O371  1  0.86679058  0.96646842  0.99494996  1
  O  O372  1  0.11402588  0.00893772  0.01313691  1
  O  O373  1  0.11111690  0.01159183  0.49055312  1
  O  O374  1  0.13290208  0.50897348  0.00697388  1
  O  O375  1  0.13013317  0.50029390  0.50318049  1
  O  O376  1  0.60183031  0.00387207  -0.00738009  1
  O  O377  1  0.60606455  0.00621747  0.49977727  1
  O  O378  1  0.61198636  0.50685512  0.00641131  1
  O  O379  1  0.59906306  0.46908216  0.51790684  1
  O  O380  1  0.36916814  0.36585592  0.12099083  1
  O  O381  1  0.36011959  0.37187999  0.62953488  1
  O  O382  1  0.39823450  0.78748803  0.18702363  1
  O  O383  1  0.38085172  0.86913465  0.61675350  1
  O  O384  1  0.85492730  0.41493760  0.11336479  1
  O  O385  1  0.88518970  0.37544608  0.61143845  1
  O  O386  1  0.89066782  0.85605431  0.14212029  1
  O  O387  1  0.85761445  0.86865253  0.62735325  1
  O  O388  1  0.12687591  0.12771651  0.38556973  1
  O  O389  1  0.13724980  0.10917634  0.89787307  1
  O  O390  1  0.13095643  0.62876984  0.38839693  1
  O  O391  1  0.11860804  0.61311279  0.88997007  1
  O  O392  1  0.65090551  0.13194429  0.37612215  1
  O  O393  1  0.62411339  0.12470493  0.88530428  1
  O  O394  1  0.66838182  0.55144154  0.41820805  1
  O  O395  1  0.64196692  0.62087835  0.86228046  1
