# generated using pymatgen
data_V35Zn35O128
_symmetry_space_group_name_H-M   'P 1'
_cell_length_a   17.01519618
_cell_length_b   16.96288065
_cell_length_c   16.84947646
_cell_angle_alpha   90.00284340
_cell_angle_beta   90.05439963
_cell_angle_gamma   89.84350468
_symmetry_Int_Tables_number   1
_chemical_formula_structural   V35Zn35O128
_chemical_formula_sum   'V70 Zn70 O256'
_cell_volume   4863.18915604
_cell_formula_units_Z   2
loop_
 _symmetry_equiv_pos_site_id
 _symmetry_equiv_pos_as_xyz
  1  'x, y, z'
loop_
 _atom_site_type_symbol
 _atom_site_label
 _atom_site_symmetry_multiplicity
 _atom_site_fract_x
 _atom_site_fract_y
 _atom_site_fract_z
 _atom_site_occupancy
  V  V0  1  0.86296972  0.49999313  0.87455188  1
  V  V1  1  0.75394995  0.86532132  0.11315611  1
  V  V2  1  0.49570133  0.50462066  -0.00566980  1
  V  V3  1  0.88141970  0.63126388  0.74874595  1
  V  V4  1  0.35903378  0.50195342  0.87145924  1
  V  V5  1  0.87314270  0.51327768  0.34676034  1
  V  V6  1  0.50827742  0.38027601  0.36767954  1
  V  V7  1  0.12051987  0.39959373  0.27033467  1
  V  V8  1  0.75144170  0.75525973  0.50319611  1
  V  V9  1  0.75469780  0.63144159  0.35885063  1
  V  V10  1  -0.00460253  0.74209562  0.22126864  1
  V  V11  1  0.62951273  0.87310247  0.24544109  1
  V  V12  1  0.36159039  0.75124029  0.12309465  1
  V  V13  1  0.88784790  0.88162053  0.49582249  1
  V  V14  1  0.74183157  0.00319336  0.74501473  1
  V  V15  1  0.62505274  0.22730210  0.37375772  1
  V  V16  1  0.51042629  0.11507344  0.61761070  1
  V  V17  1  0.87508929  0.00189721  0.88388677  1
  V  V18  1  0.15113404  0.23584996  0.37827505  1
  V  V19  1  0.10359243  0.61768898  0.50428740  1
  V  V20  1  0.24975753  0.88486036  0.11417750  1
  V  V21  1  0.62405658  0.01215464  0.10838232  1
  V  V22  1  0.51249970  0.25802031  0.72243623  1
  V  V23  1  0.50464294  0.61686105  0.62157785  1
  V  V24  1  0.72838671  0.25210646  0.01048167  1
  V  V25  1  0.73532455  0.38248363  0.61859276  1
  V  V26  1  0.87867440  0.86044561  -0.00381333  1
  V  V27  1  0.24707322  0.74658593  0.48231693  1
  V  V28  1  0.36438616  0.36971625  0.00143866  1
  V  V29  1  0.86189672  0.36327311  0.00012041  1
  V  V30  1  0.36336896  0.14324713  0.73965639  1
  V  V31  1  0.63343728  0.75063006  0.87615277  1
  V  V32  1  0.00690596  0.49198380  0.00750451  1
  V  V33  1  0.10287304  0.75670718  0.37371087  1
  V  V34  1  0.87447058  0.39987501  0.50320630  1
  V  V35  1  0.11242080  0.00848486  0.59455714  1
  V  V36  1  0.73103691  0.13734711  0.87173985  1
  V  V37  1  0.88449802  0.24677168  0.61946673  1
  V  V38  1  0.12021587  0.88667248  0.24538569  1
  V  V39  1  0.49818805  0.74843515  0.25023786  1
  V  V40  1  0.50852494  0.36934741  0.86662219  1
  V  V41  1  0.36975890  0.88569734  0.50079995  1
  V  V42  1  0.75436057  0.00282839  0.25660448  1
  V  V43  1  0.38606962  0.11091567  0.24389564  1
  V  V44  1  0.64044546  0.50255382  0.12858520  1
  V  V45  1  0.02201405  0.13281169  0.12010142  1
  V  V46  1  0.73230854  0.50546122  0.74327944  1
  V  V47  1  0.62907297  0.61693706  0.50190267  1
  V  V48  1  0.49783367  0.75090057  0.75325886  1
  V  V49  1  0.36440877  0.61408157  0.74746489  1
  V  V50  1  0.50130267  0.62631754  0.12114219  1
  V  V51  1  -0.00379139  0.36021608  0.86037446  1
  V  V52  1  0.23652459  0.38166957  0.15778717  1
  V  V53  1  0.26515114  0.11083461  0.38224831  1
  V  V54  1  0.11601522  0.49279443  0.64299822  1
  V  V55  1  0.74243976  0.88222907  0.62435844  1
  V  V56  1  0.36666864  0.74908227  0.61786621  1
  V  V57  1  0.36546202  0.61071126  0.26012881  1
  V  V58  1  0.89215163  0.00091328  0.36733604  1
  V  V59  1  0.61385470  0.87937207  0.74936464  1
  V  V60  1  0.87764814  0.15175339  0.23476952  1
  V  V61  1  0.49547042  0.88145103  0.37233409  1
  V  V62  1  0.38818398  0.26048002  0.14238664  1
  V  V63  1  0.74530391  0.21994190  0.50024118  1
  V  V64  1  0.52002288  -0.00134104  0.50393076  1
  V  V65  1  0.37903681  0.34225155  0.50322033  1
  V  V66  1  -0.01108883  0.37325909  0.36751458  1
  V  V67  1  0.88547316  0.12872923  0.74489601  1
  V  V68  1  0.62766962  0.75328887  0.37517819  1
  V  V69  1  0.64015785  0.62843743  -0.00736831  1
  Zn  Zn70  1  0.88377226  0.75349939  0.63113824  1
  Zn  Zn71  1  0.21248623  0.94519910  0.71597048  1
  Zn  Zn72  1  0.50907982  0.49635317  0.49956504  1
  Zn  Zn73  1  0.49507829  -0.04340786  -0.03790168  1
  Zn  Zn74  1  0.24035355  0.00898056  0.24204066  1
  Zn  Zn75  1  0.63758776  0.36706624  0.23504951  1
  Zn  Zn76  1  0.19335257  0.20137452  0.19761199  1
  Zn  Zn77  1  0.17680011  0.11410540  0.70790329  1
  Zn  Zn78  1  0.18944760  0.69020348  0.20020833  1
  Zn  Zn79  1  0.18313690  0.67763172  0.67354642  1
  Zn  Zn80  1  0.68785714  0.18518146  0.19139358  1
  Zn  Zn81  1  0.68705279  0.19175533  0.68289964  1
  Zn  Zn82  1  0.81960509  0.68457922  0.17267730  1
  Zn  Zn83  1  0.68890145  0.68970793  0.68785064  1
  Zn  Zn84  1  0.31478397  0.32081551  0.32686219  1
  Zn  Zn85  1  0.34290398  0.29057808  0.82159065  1
  Zn  Zn86  1  0.31201689  0.81914734  0.30515655  1
  Zn  Zn87  1  0.29606221  0.78759364  0.79003170  1
  Zn  Zn88  1  0.79532168  0.31716229  0.31756033  1
  Zn  Zn89  1  0.80531940  0.31592983  0.80327742  1
  Zn  Zn90  1  0.82166177  0.81670963  0.30744173  1
  Zn  Zn91  1  0.80917130  0.81539815  0.81588857  1
  Zn  Zn92  1  0.24296629  0.39302360  0.57753545  1
  Zn  Zn93  1  0.17886260  0.42826917  0.93135427  1
  Zn  Zn94  1  0.19241308  0.93207215  0.42819038  1
  Zn  Zn95  1  0.26310742  0.90317785  0.90456059  1
  Zn  Zn96  1  0.69879143  0.43241824  0.40971660  1
  Zn  Zn97  1  0.68682268  0.44099309  0.93667443  1
  Zn  Zn98  1  0.69380504  0.94094599  0.43346559  1
  Zn  Zn99  1  0.68808360  0.93941808  0.93104393  1
  Zn  Zn100  1  0.31770424  0.07213697  0.07225475  1
  Zn  Zn101  1  0.31643599  0.06710194  0.57737051  1
  Zn  Zn102  1  0.31931223  0.55399990  0.07867663  1
  Zn  Zn103  1  0.29268319  0.57687351  0.56973613  1
  Zn  Zn104  1  0.79570303  0.06803638  0.06352867  1
  Zn  Zn105  1  0.93866814  0.06799831  0.55703813  1
  Zn  Zn106  1  0.86099081  0.50409140  0.12820706  1
  Zn  Zn107  1  0.81072190  0.57287010  0.57086327  1
  Zn  Zn108  1  0.44835747  0.43783266  0.18897107  1
  Zn  Zn109  1  0.42970673  0.42962477  0.67905892  1
  Zn  Zn110  1  0.44758012  0.93212981  0.15008964  1
  Zn  Zn111  1  0.40438308  0.94317931  0.79879104  1
  Zn  Zn112  1  0.98047736  0.35688556  0.14499222  1
  Zn  Zn113  1  0.93096976  0.43863754  0.68807909  1
  Zn  Zn114  1  0.94383698  0.94566289  0.17385157  1
  Zn  Zn115  1  0.93382945  0.93894868  0.68694174  1
  Zn  Zn116  1  0.06252314  0.06930240  0.41802780  1
  Zn  Zn117  1  0.08053519  0.02964316  0.85585051  1
  Zn  Zn118  1  0.05443925  0.57255719  0.32061516  1
  Zn  Zn119  1  0.04617615  0.54450126  0.80997591  1
  Zn  Zn120  1  0.55849319  0.05588745  0.30000947  1
  Zn  Zn121  1  0.55249272  0.06743098  0.80805024  1
  Zn  Zn122  1  0.56404414  0.56439385  0.31334357  1
  Zn  Zn123  1  0.55445021  0.56497565  0.81338173  1
  Zn  Zn124  1  0.44599514  0.17886415  0.42667700  1
  Zn  Zn125  1  0.42851372  0.18810343  0.93232685  1
  Zn  Zn126  1  0.44108343  0.68688401  0.43763592  1
  Zn  Zn127  1  0.42848852  0.69631274  0.93080962  1
  Zn  Zn128  1  0.91879256  0.19159070  0.42290894  1
  Zn  Zn129  1  0.92022764  0.17860549  0.93886068  1
  Zn  Zn130  1  0.93276569  0.69201735  0.43479641  1
  Zn  Zn131  1  0.88033958  0.64478093  0.99362851  1
  Zn  Zn132  1  0.04565516  0.25644135  0.00050229  1
  Zn  Zn133  1  0.06240524  0.32150523  0.55108659  1
  Zn  Zn134  1  0.05988396  0.83050230  0.06107147  1
  Zn  Zn135  1  0.07570372  0.83188285  0.57271062  1
  Zn  Zn136  1  0.55893271  0.32015427  0.05934898  1
  Zn  Zn137  1  0.56936961  0.31320454  0.53643946  1
  Zn  Zn138  1  0.56298005  0.81134953  0.06108008  1
  Zn  Zn139  1  0.55679609  0.81064686  0.56628922  1
  O  O140  1  0.12162761  0.13699573  0.13531964  1
  O  O141  1  0.10525935  0.10755130  0.61786762  1
  O  O142  1  0.16012101  0.62837837  0.09081113  1
  O  O143  1  0.11788459  0.60909643  0.61480517  1
  O  O144  1  0.64202277  0.11026921  0.11752018  1
  O  O145  1  0.60958506  0.12429437  0.62801136  1
  O  O146  1  0.61213096  0.61981337  0.10419037  1
  O  O147  1  0.61553380  0.63550519  0.61349443  1
  O  O148  1  0.40383489  0.36022997  0.38561506  1
  O  O149  1  0.38196051  0.38214445  0.88400592  1
  O  O150  1  0.38749925  0.86672177  0.38585828  1
  O  O151  1  0.35622342  0.79450712  0.89214259  1
  O  O152  1  0.87174415  0.39907713  0.38285091  1
  O  O153  1  0.87193693  0.37721968  0.87319021  1
  O  O154  1  0.87124620  0.88323248  0.38725871  1
  O  O155  1  0.86053577  0.89042020  0.88664713  1
  O  O156  1  0.25205704  0.00804272  0.36443473  1
  O  O157  1  0.38342667  -0.12650781  0.90393724  1
  O  O158  1  0.31135674  0.50715508  0.41433528  1
  O  O159  1  0.26063440  0.49394221  0.87764564  1
  O  O160  1  0.76038725  -0.00514899  0.36078547  1
  O  O161  1  0.75276366  0.01023404  0.86291178  1
  O  O162  1  0.76720448  0.52391090  0.38396771  1
  O  O163  1  0.75382264  0.48490630  0.85190185  1
  O  O164  1  0.25672160  0.47528135  0.12724510  1
  O  O165  1  0.22598832  0.50113175  0.61199243  1
  O  O166  1  0.25754218  0.98881143  0.12396432  1
  O  O167  1  0.22647913  1.01793947  0.62454072  1
  O  O168  1  0.73723596  0.50313485  0.11745037  1
  O  O169  1  0.74927104  0.49231240  0.62986159  1
  O  O170  1  0.73823919  0.98834899  0.13282944  1
  O  O171  1  0.74809092  0.98763980  0.63656555  1
  O  O172  1  0.00975088  0.38530485  0.25738489  1
  O  O173  1  -0.01968340  0.36385754  0.76031415  1
  O  O174  1  0.01564650  0.86432438  0.22613895  1
  O  O175  1  -0.00658109  0.84148019  0.72286171  1
  O  O176  1  0.51702886  0.37962431  0.26394774  1
  O  O177  1  0.49733095  0.37028560  0.75553084  1
  O  O178  1  0.50790798  0.86709236  0.25412452  1
  O  O179  1  0.50407205  0.86078117  0.74346549  1
  O  O180  1  0.48435924  0.12804649  0.25341493  1
  O  O181  1  0.49696501  0.14153989  0.73518152  1
  O  O182  1  0.50090826  0.63512470  0.24131431  1
  O  O183  1  0.49341580  0.63136775  0.73804430  1
  O  O184  1  0.97893886  0.15597064  0.22579614  1
  O  O185  1  0.97961969  0.12749790  0.75835820  1
  O  O186  1  1.00517160  0.64481077  0.24616694  1
  O  O187  1  0.97980758  0.62555842  0.76439851  1
  O  O188  1  0.37652172  0.26780481  0.00797796  1
  O  O189  1  0.38925084  0.24368304  0.50423178  1
  O  O190  1  0.37702760  0.73651281  0.02635959  1
  O  O191  1  0.36049979  0.74464989  0.49936518  1
  O  O192  1  0.85534411  0.25964505  -0.00710153  1
  O  O193  1  0.85862791  0.25008664  0.50786130  1
  O  O194  1  0.87555628  0.76203992  -0.01281353  1
  O  O195  1  0.86331169  0.76336732  0.49856670  1
  O  O196  1  0.11350452  0.25892655  0.46893840  1
  O  O197  1  0.15953033  0.25614470  0.97438305  1
  O  O198  1  0.13555207  0.77191201  0.48837469  1
  O  O199  1  0.10814995  0.82136053  0.93975161  1
  O  O200  1  0.63739363  0.23278833  0.49191683  1
  O  O201  1  0.62952149  0.25677309  0.99607637  1
  O  O202  1  0.63094301  0.75010075  0.48979188  1
  O  O203  1  0.61570656  0.74082160  0.98673989  1
  O  O204  1  0.48691879  0.26145762  0.12570308  1
  O  O205  1  0.51405306  0.24653417  0.61955818  1
  O  O206  1  0.49633978  0.74212685  0.13474585  1
  O  O207  1  0.48899128  0.73750415  0.62696467  1
  O  O208  1  1.01462061  0.25600003  0.11058630  1
  O  O209  1  0.98099922  0.25993152  0.61308841  1
  O  O210  1  1.01348136  0.74258098  0.12159059  1
  O  O211  1  0.99941325  0.78917096  0.66111504  1
  O  O212  1  -0.03055259  0.27614324  0.36262328  1
  O  O213  1  -0.00732377  0.25887765  0.88934910  1
  O  O214  1  0.00352822  0.76319217  0.36820280  1
  O  O215  1  0.10492289  0.66742398  0.92789787  1
  O  O216  1  0.52130823  0.25181091  0.38043002  1
  O  O217  1  0.49744686  0.26856938  0.87703488  1
  O  O218  1  0.50986339  0.75965815  0.37080732  1
  O  O219  1  0.50765978  0.74153576  0.85820109  1
  O  O220  1  0.27084777  0.11462077  0.48123107  1
  O  O221  1  0.24971702  0.11347060  0.98685131  1
  O  O222  1  0.22531229  0.64532887  0.49931556  1
  O  O223  1  0.21725736  0.62021877  1.04215678  1
  O  O224  1  0.75615453  0.12553826  0.50768035  1
  O  O225  1  0.74923763  0.14214514  0.98201213  1
  O  O226  1  0.74537559  0.64212461  0.49990835  1
  O  O227  1  0.73524332  0.62779557  0.99539583  1
  O  O228  1  0.26564398  0.38045355  -0.00541020  1
  O  O229  1  0.28284131  0.36348771  0.47295804  1
  O  O230  1  0.25054394  0.87921924  0.01360057  1
  O  O231  1  0.26577320  0.86646105  0.49125752  1
  O  O232  1  0.74987573  0.35977282  -0.01358084  1
  O  O233  1  0.76381301  0.38440113  0.50454145  1
  O  O234  1  0.75273589  0.87727657  0.00769339  1
  O  O235  1  0.74882154  0.86976991  0.50622551  1
  O  O236  1  0.12604464  0.49839209  0.27050947  1
  O  O237  1  0.12596417  0.49972656  0.74377146  1
  O  O238  1  0.11991652  0.98452714  0.24829030  1
  O  O239  1  0.15061042  1.02650998  0.77373805  1
  O  O240  1  0.62306639  0.51614481  0.22818315  1
  O  O241  1  0.63370069  0.50840772  0.75032881  1
  O  O242  1  0.64149557  0.98692842  0.25469816  1
  O  O243  1  0.62982968  0.98742570  0.75610391  1
  O  O244  1  0.38163137  0.01187157  0.22564073  1
  O  O245  1  0.36186586  0.04378244  0.75611151  1
  O  O246  1  0.38436012  0.51211976  0.24728274  1
  O  O247  1  0.37826499  0.50882436  0.75257109  1
  O  O248  1  0.86489678  -0.01712005  0.25575445  1
  O  O249  1  0.86383679  0.01027567  0.75191488  1
  O  O250  1  0.86552015  0.50418411  0.24952918  1
  O  O251  1  0.86557249  0.51021997  0.75420362  1
  O  O252  1  0.09600398  0.38248147  0.37642904  1
  O  O253  1  0.09501063  0.38107011  0.87073286  1
  O  O254  1  0.12871336  0.86514147  0.35662946  1
  O  O255  1  0.13130520  0.88136622  0.89975555  1
  O  O256  1  0.60701724  0.36230981  0.40446681  1
  O  O257  1  0.60465407  0.38667913  0.87772762  1
  O  O258  1  0.62024562  0.86945577  0.36735229  1
  O  O259  1  0.62459074  0.86087634  0.86607267  1
  O  O260  1  0.36645459  0.15181659  0.13936909  1
  O  O261  1  0.39877681  0.12793365  0.62804861  1
  O  O262  1  0.38260339  0.63280096  0.13952891  1
  O  O263  1  0.38093046  0.62854487  0.62766697  1
  O  O264  1  0.85978045  0.12615265  0.13686654  1
  O  O265  1  0.87773798  0.13508399  0.63153966  1
  O  O266  1  0.86302314  0.61421007  0.10163642  1
  O  O267  1  0.87719303  0.63473931  0.64031751  1
  O  O268  1  0.26318396  0.27953577  0.13828396  1
  O  O269  1  0.18417926  0.30687498  0.74620909  1
  O  O270  1  0.25881105  0.75469597  0.13094575  1
  O  O271  1  0.25962538  0.74740058  0.61528344  1
  O  O272  1  0.73707039  0.25098445  0.10996093  1
  O  O273  1  0.75134872  0.26158693  0.61117471  1
  O  O274  1  0.75220419  0.76722016  0.12571356  1
  O  O275  1  0.75139526  0.76162638  0.61678095  1
  O  O276  1  0.25455155  0.23516555  0.37860800  1
  O  O277  1  0.18548144  0.23191006  0.90063877  1
  O  O278  1  0.24647421  0.75224115  0.38060737  1
  O  O279  1  0.18676318  0.75217017  0.81627566  1
  O  O280  1  0.74318220  0.24267861  0.39372135  1
  O  O281  1  0.74381915  0.23802772  0.86299571  1
  O  O282  1  0.74519024  0.75090243  0.38191222  1
  O  O283  1  0.73135491  0.74731309  0.87126941  1
  O  O284  1  -0.00023800  0.14152611  0.01339056  1
  O  O285  1  -0.00932364  0.12867816  0.47931925  1
  O  O286  1  -0.01452799  0.58958186  -0.00714806  1
  O  O287  1  0.00898176  0.65575797  0.50903190  1
  O  O288  1  0.46499995  0.10829984  0.00547026  1
  O  O289  1  0.49895353  0.10582059  0.50256755  1
  O  O290  1  0.49128443  0.61790121  0.00361243  1
  O  O291  1  0.51166328  0.62349582  0.50326226  1
  O  O292  1  0.48458920  0.38352343  0.50364016  1
  O  O293  1  0.48975511  0.38966921  0.99009100  1
  O  O294  1  0.49505241  0.88308968  0.49359426  1
  O  O295  1  0.48424375  0.88734246  1.04612421  1
  O  O296  1  0.97721016  0.37416927  0.48502053  1
  O  O297  1  0.97282327  0.37891210  0.98410827  1
  O  O298  1  0.98399372  0.86515292  0.50507084  1
  O  O299  1  0.97572996  0.88328100  1.00677598  1
  O  O300  1  0.51052718  0.48645976  0.38013539  1
  O  O301  1  0.48666304  0.49524870  0.87888865  1
  O  O302  1  0.50632928  0.98778983  0.38418872  1
  O  O303  1  0.48817197  0.99228302  0.85831027  1
  O  O304  1  0.97600907  0.49996572  0.36687657  1
  O  O305  1  0.97719156  0.48300423  0.87852417  1
  O  O306  1  0.98975402  0.99395234  0.36043844  1
  O  O307  1  0.97435487  1.00432317  0.87292432  1
  O  O308  1  -0.00104850  0.03344190  0.12978910  1
  O  O309  1  0.00429135  -0.00713215  0.61516667  1
  O  O310  1  -0.01737432  0.47371837  0.10739638  1
  O  O311  1  0.01536385  0.48810166  0.63019193  1
  O  O312  1  0.53263629  0.00652499  0.14991242  1
  O  O313  1  0.50595986  0.00717573  0.61129485  1
  O  O314  1  0.50021198  0.51164354  0.11181993  1
  O  O315  1  0.49176708  0.51342835  0.61945216  1
  O  O316  1  0.23892754  0.38582007  0.26580102  1
  O  O317  1  0.23420132  0.34237545  0.78740559  1
  O  O318  1  0.23754471  0.87932001  0.24125204  1
  O  O319  1  0.28505805  0.90186314  0.79021697  1
  O  O320  1  0.72409841  0.39901483  0.29862928  1
  O  O321  1  0.75031030  0.38439995  0.72625899  1
  O  O322  1  0.74477483  0.87816455  0.24060517  1
  O  O323  1  0.74041915  0.88199637  0.74437310  1
  O  O324  1  0.26473514  0.12457973  0.25546385  1
  O  O325  1  0.27029968  0.17212459  0.71039012  1
  O  O326  1  0.26580652  0.62389219  0.24978782  1
  O  O327  1  0.26656667  0.62529769  0.73846876  1
  O  O328  1  0.75658580  0.10417291  0.24645684  1
  O  O329  1  0.74775083  0.11789807  0.75281943  1
  O  O330  1  0.75194034  0.64399130  0.26055927  1
  O  O331  1  0.75399197  0.60964817  0.74060303  1
  O  O332  1  0.37144507  0.12395082  0.35756647  1
  O  O333  1  0.35448010  0.17645523  0.84758190  1
  O  O334  1  0.38784453  0.63043412  0.35732996  1
  O  O335  1  0.37616285  0.61856500  0.85588545  1
  O  O336  1  0.87900116  0.10784783  0.34640686  1
  O  O337  1  0.85823398  0.11801207  0.86032924  1
  O  O338  1  0.87059590  0.62206869  0.37050185  1
  O  O339  1  0.86394580  0.60431789  0.87297466  1
  O  O340  1  0.13321570  0.37863740  0.15841119  1
  O  O341  1  0.13283494  0.38653597  0.61076927  1
  O  O342  1  0.14221269  0.86668797  0.13098766  1
  O  O343  1  0.13081389  0.90732072  0.63712256  1
  O  O344  1  0.61663284  0.39756587  0.12357943  1
  O  O345  1  0.63830541  0.37755208  0.60632493  1
  O  O346  1  0.63666520  0.87721491  0.13187143  1
  O  O347  1  0.63081101  0.86536093  0.63726007  1
  O  O348  1  0.13057258  0.26863188  0.28057911  1
  O  O349  1  0.13868090  0.19307657  0.85550544  1
  O  O350  1  0.11384224  0.75267632  0.25959861  1
  O  O351  1  0.13467391  0.74533101  0.75840153  1
  O  O352  1  0.64242755  0.25314142  0.26985435  1
  O  O353  1  0.61072953  0.25340098  0.74631349  1
  O  O354  1  0.61622904  0.75985531  0.26145396  1
  O  O355  1  0.61751547  0.75419580  0.75757694  1
  O  O356  1  0.38044216  0.26571004  0.24362423  1
  O  O357  1  0.40227855  0.25616580  0.72930217  1
  O  O358  1  0.38594644  0.74543960  0.24507634  1
  O  O359  1  0.38088771  0.73568159  0.73569429  1
  O  O360  1  0.84791254  0.24692023  0.24764385  1
  O  O361  1  0.86248140  0.23837638  0.73078108  1
  O  O362  1  0.89037826  0.75696732  0.23744899  1
  O  O363  1  0.86165842  0.73436239  0.75745902  1
  O  O364  1  0.35390699  0.52245952  0.47370563  1
  O  O365  1  0.37900647  0.49765062  0.99253311  1
  O  O366  1  0.37786684  0.98490039  0.50749798  1
  O  O367  1  0.41362627  1.04423693  1.00739010  1
  O  O368  1  0.87802047  0.49839280  0.51156971  1
  O  O369  1  0.85391980  0.48259229  0.97823121  1
  O  O370  1  0.88000811  0.99076376  0.48217800  1
  O  O371  1  0.85991863  1.00962294  0.98422016  1
  O  O372  1  0.21364261  0.05466693  -0.05393412  1
  O  O373  1  0.11867650  -0.00489212  0.49006398  1
  O  O374  1  0.10639867  0.48403045  0.00012943  1
  O  O375  1  0.09923999  0.52380243  0.48468391  1
  O  O376  1  0.61609912  -0.00859190  0.00621458  1
  O  O377  1  0.61774237  -0.00699764  0.49991637  1
  O  O378  1  0.61652148  0.51380642  -0.00101668  1
  O  O379  1  0.63426245  0.51722867  0.49006824  1
  O  O380  1  0.37795487  0.37511612  0.11554149  1
  O  O381  1  0.36071503  0.37983430  0.60401335  1
  O  O382  1  0.35788500  0.86039330  0.13849957  1
  O  O383  1  0.38224036  0.85674022  0.60301111  1
  O  O384  1  0.86491015  0.38074850  0.10173586  1
  O  O385  1  0.86774689  0.36750978  0.61177729  1
  O  O386  1  0.86138806  0.88544108  0.10840590  1
  O  O387  1  0.86148823  0.87626482  0.61064565  1
  O  O388  1  0.14738652  0.13014065  0.37011772  1
  O  O389  1  0.13481182  0.04981896  0.96130042  1
  O  O390  1  0.11408342  0.65084612  0.38773657  1
  O  O391  1  0.12753030  0.61309970  0.88399820  1
  O  O392  1  0.62122448  0.12848149  0.36636896  1
  O  O393  1  0.63347879  0.12157138  0.86844810  1
  O  O394  1  0.63411228  0.63724748  0.38048704  1
  O  O395  1  0.61848444  0.63414668  0.88394679  1
