# generated using pymatgen
data_V35Zn35O128
_symmetry_space_group_name_H-M   'P 1'
_cell_length_a   16.87052663
_cell_length_b   16.96868453
_cell_length_c   16.92046218
_cell_angle_alpha   90.23486849
_cell_angle_beta   89.83929176
_cell_angle_gamma   89.38958171
_symmetry_Int_Tables_number   1
_chemical_formula_structural   V35Zn35O128
_chemical_formula_sum   'V70 Zn70 O256'
_cell_volume   4843.49636691
_cell_formula_units_Z   2
loop_
 _symmetry_equiv_pos_site_id
 _symmetry_equiv_pos_as_xyz
  1  'x, y, z'
loop_
 _atom_site_type_symbol
 _atom_site_label
 _atom_site_symmetry_multiplicity
 _atom_site_fract_x
 _atom_site_fract_y
 _atom_site_fract_z
 _atom_site_occupancy
  V  V0  1  0.50457815  0.13471179  0.62468499  1
  V  V1  1  0.13897377  0.38179576  0.74787797  1
  V  V2  1  0.62717226  -0.01364114  0.62426250  1
  V  V3  1  0.85280643  0.37159672  0.50398050  1
  V  V4  1  0.62429367  0.01040858  0.11803596  1
  V  V5  1  0.11506604  -0.00581351  0.63913523  1
  V  V6  1  0.62089920  0.12105083  -0.00340191  1
  V  V7  1  0.12132355  0.37374906  0.24779534  1
  V  V8  1  -0.00007625  0.25427688  0.74899665  1
  V  V9  1  0.61763320  0.74709953  0.86402009  1
  V  V10  1  0.63434319  0.87088578  0.23066817  1
  V  V11  1  0.13989771  0.12299044  0.51306080  1
  V  V12  1  0.00631315  0.37443563  0.38753842  1
  V  V13  1  0.28040403  0.87577563  0.63691405  1
  V  V14  1  0.72541512  0.72161185  0.49636958  1
  V  V15  1  0.75952984  0.01068152  0.25562941  1
  V  V16  1  -0.02178555  0.62510828  0.11083405  1
  V  V17  1  0.88709433  0.87299612  0.00261772  1
  V  V18  1  -0.01505969  0.74838220  0.25243323  1
  V  V19  1  0.51882685  0.87952943  0.37007149  1
  V  V20  1  0.43978277  0.68169583  0.69259611  1
  V  V21  1  0.13408504  0.23715908  0.37985815  1
  V  V22  1  0.36693632  0.52742569  0.86739236  1
  V  V23  1  0.11411377  0.01257406  0.12207672  1
  V  V24  1  0.85891476  0.25376310  0.62151987  1
  V  V25  1  0.75129863  0.48516062  0.74790814  1
  V  V26  1  0.25304794  0.00223552  0.75267577  1
  V  V27  1  0.25157639  0.11963760  0.87875849  1
  V  V28  1  0.50825608  0.88716416  0.86840665  1
  V  V29  1  0.60767451  0.25646847  0.88059134  1
  V  V30  1  0.25889404  0.51167391  0.25368005  1
  V  V31  1  0.24492770  0.37328772  0.12876084  1
  V  V32  1  0.37687516  0.74605919  0.11623540  1
  V  V33  1  0.87262595  0.49500357  0.89353317  1
  V  V34  1  0.24716546  0.23921936  0.00662016  1
  V  V35  1  0.49145392  0.74848245  0.24287497  1
  V  V36  1  0.74823283  -0.01231938  0.74924615  1
  V  V37  1  0.85627995  0.87439704  0.49639944  1
  V  V38  1  0.75826516  0.25115868  -0.00175219  1
  V  V39  1  0.75692542  0.52317362  0.25212024  1
  V  V40  1  0.38864221  0.89028795  -0.00183584  1
  V  V41  1  0.38709453  0.37272329  0.00123312  1
  V  V42  1  0.74449728  0.62565743  0.87732075  1
  V  V43  1  0.37833289  0.38668417  0.49980503  1
  V  V44  1  0.61441977  0.50179993  0.62068940  1
  V  V45  1  0.75137958  0.75384838  0.01491939  1
  V  V46  1  -0.00286549  0.01970792  -0.00931105  1
  V  V47  1  0.12540978  0.24689482  0.88198936  1
  V  V48  1  0.25753287  0.25122820  0.50623172  1
  V  V49  1  -0.00244998  0.01611645  0.46371793  1
  V  V50  1  0.60412977  0.37617242  0.75800992  1
  V  V51  1  0.51527483  0.23933541  0.26146310  1
  V  V52  1  0.37565660  0.26088870  0.63852043  1
  V  V53  1  0.24460464  0.75850728  0.48063797  1
  V  V54  1  0.88050382  0.24015983  0.13297539  1
  V  V55  1  0.24073484  0.87442236  0.10707342  1
  V  V56  1  0.00121972  0.22869267  0.25279334  1
  V  V57  1  0.38948372  0.12444761  0.75744970  1
  V  V58  1  0.87810207  0.62886611  0.74317760  1
  V  V59  1  0.12480690  0.72448183  0.88320712  1
  V  V60  1  0.87614107  0.50604534  0.37917007  1
  V  V61  1  0.63765528  0.14085661  0.49339807  1
  V  V62  1  0.38136359  0.22974608  0.13621882  1
  V  V63  1  0.06702523  0.84960149  0.75994286  1
  V  V64  1  0.38296357  0.88038526  0.48697943  1
  V  V65  1  0.85888935  0.13056560  0.75996876  1
  V  V66  1  0.61514306  0.61776945  0.01702565  1
  V  V67  1  0.12535558  0.86273630  0.25201802  1
  V  V68  1  -0.00200417  0.38036183  0.89194050  1
  V  V69  1  0.74550977  0.37463886  0.14021069  1
  Zn  Zn70  1  0.49975561  0.01004614  0.49306522  1
  Zn  Zn71  1  -0.00158219  0.13161203  0.62575739  1
  Zn  Zn72  1  0.50197848  0.37246664  0.38002178  1
  Zn  Zn73  1  0.44522508  0.57717241  0.17853124  1
  Zn  Zn74  1  0.36480302  0.10541665  0.27413738  1
  Zn  Zn75  1  0.10751849  0.49640115  0.61552078  1
  Zn  Zn76  1  0.19103547  0.18003462  0.19302581  1
  Zn  Zn77  1  0.19309936  0.18939285  0.69399721  1
  Zn  Zn78  1  0.19454879  0.69356284  0.18256317  1
  Zn  Zn79  1  0.25204880  0.70294653  0.72847513  1
  Zn  Zn80  1  0.69360377  0.18181184  0.18460935  1
  Zn  Zn81  1  0.68030552  0.20011582  0.69030202  1
  Zn  Zn82  1  0.68730229  0.68505060  0.19654924  1
  Zn  Zn83  1  0.69309052  0.68302488  0.68218732  1
  Zn  Zn84  1  0.31674838  0.30842290  0.31845577  1
  Zn  Zn85  1  0.31630639  0.31237713  0.82104798  1
  Zn  Zn86  1  0.30392609  0.92815124  0.30314394  1
  Zn  Zn87  1  0.31885600  0.80951536  0.82848583  1
  Zn  Zn88  1  0.82882411  0.32744506  0.30416631  1
  Zn  Zn89  1  0.81473447  0.31265877  0.81766290  1
  Zn  Zn90  1  0.81015530  0.82340221  0.32377195  1
  Zn  Zn91  1  0.86375280  0.83243111  0.80665365  1
  Zn  Zn92  1  0.20373686  0.42734141  0.43018221  1
  Zn  Zn93  1  0.19053440  0.43964960  0.94336708  1
  Zn  Zn94  1  0.17754008  0.91990907  0.45563853  1
  Zn  Zn95  1  0.17406792  0.93099946  0.93253946  1
  Zn  Zn96  1  0.66630852  0.47137497  0.41684907  1
  Zn  Zn97  1  0.68728817  0.43222790  0.94695372  1
  Zn  Zn98  1  0.69004346  0.94593817  0.44185574  1
  Zn  Zn99  1  0.71978284  0.91650641  0.91524594  1
  Zn  Zn100  1  0.30758174  0.05404449  0.06967024  1
  Zn  Zn101  1  0.31286825  0.05454528  0.44350056  1
  Zn  Zn102  1  0.50227093  0.49285989  0.01762796  1
  Zn  Zn103  1  0.30809496  0.58194787  0.56004827  1
  Zn  Zn104  1  0.81043321  0.05714164  0.06731136  1
  Zn  Zn105  1  0.82002517  0.05816170  0.55732356  1
  Zn  Zn106  1  0.80289346  0.56483191  0.06569920  1
  Zn  Zn107  1  0.80545827  0.55887008  0.56286341  1
  Zn  Zn108  1  0.42452529  0.41718454  0.18694820  1
  Zn  Zn109  1  0.43139290  0.45550005  0.69288671  1
  Zn  Zn110  1  0.44262969  0.93971176  0.17910721  1
  Zn  Zn111  1  0.44827646  0.94522019  0.69194746  1
  Zn  Zn112  1  0.91765563  0.44707472  0.16196573  1
  Zn  Zn113  1  0.93956606  0.43956744  0.68885861  1
  Zn  Zn114  1  0.93754531  0.93216972  0.18062426  1
  Zn  Zn115  1  0.92209891  0.94488870  0.67293130  1
  Zn  Zn116  1  0.16967777  0.04557698  0.30969396  1
  Zn  Zn117  1  0.05732954  0.06860872  0.81505818  1
  Zn  Zn118  1  0.02809600  0.53637882  0.26414350  1
  Zn  Zn119  1  0.06008793  0.56279507  0.81604365  1
  Zn  Zn120  1  0.56776173  0.06195481  0.31049635  1
  Zn  Zn121  1  0.58246966  0.06279149  0.81807065  1
  Zn  Zn122  1  0.58153607  0.43419292  0.22963175  1
  Zn  Zn123  1  0.55051616  0.55562361  0.82695575  1
  Zn  Zn124  1  0.44321778  0.19510930  0.44035677  1
  Zn  Zn125  1  0.43526572  0.18280654  0.94641106  1
  Zn  Zn126  1  0.41957243  0.71518907  0.42159849  1
  Zn  Zn127  1  0.43705394  0.68752351  0.94059105  1
  Zn  Zn128  1  0.93683914  0.17980084  0.44336912  1
  Zn  Zn129  1  0.93435552  0.19217907  0.93867119  1
  Zn  Zn130  1  0.89654136  0.71375854  0.41996969  1
  Zn  Zn131  1  0.93766936  0.68900180  0.93061045  1
  Zn  Zn132  1  0.05987150  0.30301358  0.06633091  1
  Zn  Zn133  1  0.06939714  0.31229375  0.57077246  1
  Zn  Zn134  1  0.06054661  0.79471783  0.05402653  1
  Zn  Zn135  1  0.04570481  0.82274590  0.43105949  1
  Zn  Zn136  1  0.56772961  0.30548831  0.07623740  1
  Zn  Zn137  1  0.56537588  0.32133060  0.56726717  1
  Zn  Zn138  1  0.56642960  0.81020941  0.05549611  1
  Zn  Zn139  1  0.56247420  0.79620447  0.56197847  1
  O  O140  1  0.12447170  0.11111384  0.12580777  1
  O  O141  1  0.13013153  0.12068028  0.62460043  1
  O  O142  1  0.12721703  0.62004396  0.10427446  1
  O  O143  1  0.07249601  0.66690612  0.61796882  1
  O  O144  1  0.62431905  0.11898554  0.11370403  1
  O  O145  1  0.61201053  0.13256354  0.62823397  1
  O  O146  1  0.63070910  0.62337381  0.11528171  1
  O  O147  1  0.62932092  0.59991968  0.63516362  1
  O  O148  1  0.37602488  0.37434033  0.39466180  1
  O  O149  1  0.37555386  0.36171382  0.90088617  1
  O  O150  1  0.37884003  0.88108572  0.38537494  1
  O  O151  1  0.39135563  0.87075768  0.88974229  1
  O  O152  1  0.89016076  0.37015089  0.39138512  1
  O  O153  1  0.88737257  0.38203873  0.87777074  1
  O  O154  1  0.86964059  0.89186290  0.39663474  1
  O  O155  1  0.83938744  0.88651703  0.90370771  1
  O  O156  1  0.23919940  -0.01284797  0.38496302  1
  O  O157  1  0.24024162  0.01212176  0.86825551  1
  O  O158  1  0.25431081  0.48974468  0.35206787  1
  O  O159  1  0.27395203  0.49600779  0.89872105  1
  O  O160  1  0.73966120  -0.00272318  0.35538696  1
  O  O161  1  0.72883041  0.00662216  0.84811645  1
  O  O162  1  0.76469467  0.50091302  0.36425026  1
  O  O163  1  0.75909351  0.49973686  0.87674941  1
  O  O164  1  0.24468525  0.47175143  0.13893910  1
  O  O165  1  0.20713263  0.55985030  0.64157034  1
  O  O166  1  0.22923130  0.98442620  0.11360025  1
  O  O167  1  0.23381165  0.97989985  0.63837752  1
  O  O168  1  0.77572430  0.48402553  0.14263589  1
  O  O169  1  0.74321263  0.49335182  0.64662438  1
  O  O170  1  0.73569515  1.00174112  0.13554816  1
  O  O171  1  0.73184432  1.00873139  0.63305556  1
  O  O172  1  0.01614398  0.36374862  0.26071017  1
  O  O173  1  0.00396692  0.36497252  0.76273982  1
  O  O174  1  0.01394313  0.85692975  0.22879538  1
  O  O175  1  -0.03797348  0.87138354  0.75049340  1
  O  O176  1  0.49284694  0.35187916  0.25109906  1
  O  O177  1  0.50595092  0.38413200  0.76221692  1
  O  O178  1  0.51524962  0.87689919  0.25622525  1
  O  O179  1  0.49411141  0.87574867  0.76961461  1
  O  O180  1  0.49291600  0.13699799  0.26049011  1
  O  O181  1  0.49380355  0.12156247  0.75339549  1
  O  O182  1  0.50145284  0.64913426  0.24838264  1
  O  O183  1  0.49789919  0.62578240  0.75422771  1
  O  O184  1  1.00470887  0.13407840  0.25584078  1
  O  O185  1  0.98974415  0.14301411  0.75348729  1
  O  O186  1  1.00056309  0.64401621  0.24729374  1
  O  O187  1  0.97726543  0.61120153  0.75510609  1
  O  O188  1  0.36649851  0.24884481  0.01594652  1
  O  O189  1  0.37297647  0.25825246  0.51710182  1
  O  O190  1  0.38440229  0.76525577  0.01182362  1
  O  O191  1  0.36378261  0.77054414  0.50233504  1
  O  O192  1  0.86619546  0.24968829  0.01474240  1
  O  O193  1  0.88246010  0.25820865  0.51391517  1
  O  O194  1  0.85927970  0.75784525  -0.00986234  1
  O  O195  1  0.89764970  0.78258558  0.51631276  1
  O  O196  1  0.13777979  0.24318904  0.50176638  1
  O  O197  1  0.13376201  0.25044205  0.99295534  1
  O  O198  1  0.14570784  0.80450217  0.48761278  1
  O  O199  1  0.13946069  0.75403494  0.97920352  1
  O  O200  1  0.62157139  0.24061575  0.50808106  1
  O  O201  1  0.63134500  0.24442275  0.99582338  1
  O  O202  1  0.62609058  0.74185216  0.48334964  1
  O  O203  1  0.63241848  0.73375523  0.99616708  1
  O  O204  1  0.48568656  0.24402363  0.13702932  1
  O  O205  1  0.49062291  0.24274854  0.62902127  1
  O  O206  1  0.49052530  0.76547020  0.13141063  1
  O  O207  1  0.49868691  0.74288966  0.63638485  1
  O  O208  1  0.99196903  0.24861937  0.13929600  1
  O  O209  1  0.99726870  0.25284961  0.63783645  1
  O  O210  1  1.00723588  0.72936987  0.13127101  1
  O  O211  1  1.01101353  0.70189633  0.60274914  1
  O  O212  1  0.00658266  0.25261039  0.36970944  1
  O  O213  1  0.00589710  0.26092889  0.87372219  1
  O  O214  1  -0.00809568  0.75161650  0.36253527  1
  O  O215  1  0.01948497  0.74566981  0.87570257  1
  O  O216  1  0.50415281  0.25569731  0.36684584  1
  O  O217  1  0.50940018  0.25067476  0.88445994  1
  O  O218  1  0.49244415  0.76867561  0.35446324  1
  O  O219  1  0.51459915  0.75218762  0.87963421  1
  O  O220  1  0.24664683  0.13366955  0.50589383  1
  O  O221  1  0.25823809  0.13020128  0.99104327  1
  O  O222  1  0.24263435  0.66176939  0.51322229  1
  O  O223  1  0.16574612  0.57614974  1.04805128  1
  O  O224  1  0.73641854  0.12358430  0.51046299  1
  O  O225  1  0.74268247  0.14568864  1.01187286  1
  O  O226  1  0.73908588  0.61917512  0.49307186  1
  O  O227  1  0.73926035  0.62569579  0.99344643  1
  O  O228  1  0.24799450  0.35963914  0.01637110  1
  O  O229  1  0.26087865  0.35983054  0.50552857  1
  O  O230  1  0.25900613  0.87793280  0.00139675  1
  O  O231  1  0.27119856  0.87860785  0.52038727  1
  O  O232  1  0.74205861  0.36048186  0.02161165  1
  O  O233  1  0.75821780  0.36325481  0.48991338  1
  O  O234  1  0.73188722  0.85314681  0.00988548  1
  O  O235  1  0.75182219  0.86799226  0.50065561  1
  O  O236  1  0.13188176  0.47578627  0.25436925  1
  O  O237  1  0.11776834  0.48001037  0.75999319  1
  O  O238  1  0.11571735  0.98109798  0.22498952  1
  O  O239  1  0.13887906  1.02239816  0.74316196  1
  O  O240  1  0.65815980  0.51987730  0.24221579  1
  O  O241  1  0.63189045  0.48657586  0.76199560  1
  O  O242  1  0.63151409  0.99204114  0.23715304  1
  O  O243  1  0.63272901  1.00029608  0.73463956  1
  O  O244  1  0.37142931  -0.00480904  0.24393270  1
  O  O245  1  0.36938844  0.01997417  0.74570642  1
  O  O246  1  0.36186713  0.50563113  0.23480223  1
  O  O247  1  0.36519772  0.50510654  0.76715855  1
  O  O248  1  0.85766445  -0.01415688  0.24146846  1
  O  O249  1  0.85767326  0.02385529  0.73928754  1
  O  O250  1  0.87401728  0.48908460  0.27144290  1
  O  O251  1  0.86076971  0.49674739  0.76050730  1
  O  O252  1  0.12056657  0.36095411  0.36943670  1
  O  O253  1  0.11585599  0.36905910  0.87478266  1
  O  O254  1  0.11996416  0.88100440  0.35123718  1
  O  O255  1  0.11648445  0.88399589  0.84219706  1
  O  O256  1  0.58382980  0.43991185  0.35012149  1
  O  O257  1  0.62408145  0.36409870  0.87639896  1
  O  O258  1  0.61973019  0.87371388  0.36913519  1
  O  O259  1  0.61877759  0.85706301  0.88113633  1
  O  O260  1  0.37038205  0.13032282  0.12576919  1
  O  O261  1  0.39228226  0.13786553  0.64367925  1
  O  O262  1  0.37588292  0.64672698  0.11835170  1
  O  O263  1  0.38613062  0.61981954  0.63167014  1
  O  O264  1  0.86896492  0.14209199  0.12653387  1
  O  O265  1  0.87734843  0.14355814  0.63182255  1
  O  O266  1  0.87857393  0.62813615  0.12184872  1
  O  O267  1  0.86162814  0.61566720  0.64411166  1
  O  O268  1  0.25244427  0.24485073  0.11931419  1
  O  O269  1  0.26770358  0.24442941  0.62221503  1
  O  O270  1  0.26553529  0.76419313  0.12348828  1
  O  O271  1  0.24325200  0.78314286  0.63965407  1
  O  O272  1  0.76046270  0.25887258  0.12909264  1
  O  O273  1  0.76045235  0.25541630  0.62765250  1
  O  O274  1  0.74973317  0.73688194  0.11244762  1
  O  O275  1  0.74251070  0.73923408  0.59705509  1
  O  O276  1  0.24270308  0.25471277  0.39052180  1
  O  O277  1  0.24412548  0.24178236  0.88704644  1
  O  O278  1  0.26038844  0.75273720  0.38505535  1
  O  O279  1  0.22153678  0.74807670  0.83381895  1
  O  O280  1  0.76958271  0.23253634  0.36885069  1
  O  O281  1  0.75124114  0.25957697  0.89664890  1
  O  O282  1  0.78318751  0.74214608  0.40344854  1
  O  O283  1  0.73706799  0.73271128  0.88766882  1
  O  O284  1  -0.00391248  0.11939598  0.00048514  1
  O  O285  1  0.02598437  0.12531134  0.50751432  1
  O  O286  1  -0.01034946  0.62227773  0.01068932  1
  O  O287  1  0.05785283  0.60418688  0.48137259  1
  O  O288  1  0.52019541  0.12467157  -0.00328566  1
  O  O289  1  0.50519870  0.12791950  0.51770236  1
  O  O290  1  0.51216425  0.62633859  0.00823328  1
  O  O291  1  0.49457860  0.63315666  0.49077148  1
  O  O292  1  0.48328883  0.37533806  0.50421279  1
  O  O293  1  0.49021969  0.36540313  1.01595787  1
  O  O294  1  0.49500541  0.86565634  0.48414129  1
  O  O295  1  0.49426513  0.87893008  0.99456260  1
  O  O296  1  1.01215545  0.36959511  0.48739668  1
  O  O297  1  1.00569086  0.37161954  0.99096097  1
  O  O298  1  0.99587035  0.91497230  0.48558872  1
  O  O299  1  0.98786595  0.86572523  0.99312492  1
  O  O300  1  0.44061752  0.55336075  0.37679287  1
  O  O301  1  0.47120758  0.50740272  0.89698490  1
  O  O302  1  0.50723574  0.98356272  0.37659355  1
  O  O303  1  0.51952345  0.98583356  0.87619520  1
  O  O304  1  0.99410545  0.47847019  0.36743226  1
  O  O305  1  0.98731305  0.48717318  0.87812999  1
  O  O306  1  1.03187287  1.02197754  0.37376112  1
  O  O307  1  1.00243325  1.00591059  0.88967208  1
  O  O308  1  0.00861953  -0.00413030  0.11198244  1
  O  O309  1  0.01256467  0.01533553  0.64287312  1
  O  O310  1  -0.00212625  0.52129291  0.14920161  1
  O  O311  1  -0.00220268  0.49750811  0.61672046  1
  O  O312  1  0.52412696  -0.00438449  0.12187989  1
  O  O313  1  0.51230593  0.01766724  0.62900127  1
  O  O314  1  0.50489976  0.48740225  0.14156171  1
  O  O315  1  0.51344749  0.49405008  0.62697590  1
  O  O316  1  0.23921038  0.36021988  0.24261053  1
  O  O317  1  0.23756581  0.37032949  0.76284627  1
  O  O318  1  0.23237039  0.87479220  0.22927260  1
  O  O319  1  0.27766668  0.89448599  0.74895792  1
  O  O320  1  0.74751146  0.37703004  0.24576759  1
  O  O321  1  0.74458504  0.38398577  0.76243691  1
  O  O322  1  0.73431371  0.87251694  0.25183989  1
  O  O323  1  0.77232694  0.89157418  0.74605428  1
  O  O324  1  0.24669360  0.11488718  0.26204575  1
  O  O325  1  0.26275319  0.12124733  0.76005898  1
  O  O326  1  0.23625638  0.60753225  0.24345819  1
  O  O327  1  0.19434587  0.60546928  0.70542613  1
  O  O328  1  0.75216578  0.11179309  0.24904272  1
  O  O329  1  0.75779492  0.13858192  0.74980483  1
  O  O330  1  0.76932714  0.62211197  0.24785089  1
  O  O331  1  0.75193027  0.60697085  0.76542922  1
  O  O332  1  0.37839189  0.12346591  0.38678417  1
  O  O333  1  0.36782593  0.13421423  0.86526522  1
  O  O334  1  0.38605416  0.60339079  0.39136684  1
  O  O335  1  0.36233726  0.62849620  0.88109467  1
  O  O336  1  0.81469717  0.17442579  0.38030070  1
  O  O337  1  0.87234747  0.13946124  0.85859381  1
  O  O338  1  0.89523576  0.60058655  0.39409902  1
  O  O339  1  0.86619274  0.60685529  0.87434000  1
  O  O340  1  0.13196672  0.35743361  0.13950523  1
  O  O341  1  0.13035425  0.37720851  0.64225110  1
  O  O342  1  0.13674797  0.86416091  0.11490435  1
  O  O343  1  0.10455675  0.89362353  0.66439940  1
  O  O344  1  0.63937774  0.37352151  0.13728133  1
  O  O345  1  0.62100658  0.37740995  0.65266450  1
  O  O346  1  0.62699786  0.88313339  0.12858771  1
  O  O347  1  0.61397986  0.88918614  0.61556123  1
  O  O348  1  0.11767123  0.24869876  0.26120397  1
  O  O349  1  0.12012490  0.25945196  0.76097679  1
  O  O350  1  0.12327195  0.75858952  0.24642093  1
  O  O351  1  0.09361327  0.75642184  0.74612474  1
  O  O352  1  0.61378041  0.24046302  0.24452488  1
  O  O353  1  0.62547509  0.26390499  0.77011639  1
  O  O354  1  0.61453394  0.76551114  0.23632439  1
  O  O355  1  0.63529780  0.74066430  0.76649053  1
  O  O356  1  0.37024382  0.24023153  0.24091450  1
  O  O357  1  0.37084676  0.24251575  0.74472980  1
  O  O358  1  0.38877217  0.76344583  0.23169762  1
  O  O359  1  0.36474218  0.73528496  0.74760451  1
  O  O360  1  0.89126271  0.24800090  0.24726734  1
  O  O361  1  0.87818100  0.25074851  0.74025328  1
  O  O362  1  0.88604239  0.76541381  0.24972621  1
  O  O363  1  0.86236382  0.72651491  0.76506861  1
  O  O364  1  0.35413460  0.48250961  0.51959992  1
  O  O365  1  0.37619722  0.47052267  1.01953616  1
  O  O366  1  0.38523083  0.98476034  0.50767156  1
  O  O367  1  0.37657488  0.98961856  1.00210888  1
  O  O368  1  0.86394298  0.48037391  0.49080436  1
  O  O369  1  0.86798798  0.49599547  0.99155473  1
  O  O370  1  0.90188134  1.06459046  0.46246088  1
  O  O371  1  0.89049840  0.99365755  1.00754360  1
  O  O372  1  0.10795073  -0.00707233  0.00710960  1
  O  O373  1  0.12131101  0.00488802  0.52405099  1
  O  O374  1  0.12519235  0.51524093  0.02154505  1
  O  O375  1  0.14811817  0.50175926  0.50087774  1
  O  O376  1  0.64344356  0.01671281  0.00606823  1
  O  O377  1  0.62082403  0.01395630  0.51465313  1
  O  O378  1  0.62113143  0.51254947  -0.00353344  1
  O  O379  1  0.63746067  0.47908976  0.52456009  1
  O  O380  1  0.35638321  0.35045755  0.12284777  1
  O  O381  1  0.38215731  0.36305617  0.62964733  1
  O  O382  1  0.36553701  0.87654445  0.11047663  1
  O  O383  1  0.38219473  0.87784248  0.62416165  1
  O  O384  1  0.86344900  0.35584858  0.13298293  1
  O  O385  1  0.87403134  0.36609709  0.61356975  1
  O  O386  1  0.86927685  0.87469654  0.10188037  1
  O  O387  1  0.86967034  0.95053959  0.57323609  1
  O  O388  1  0.13198740  0.13493591  0.39107439  1
  O  O389  1  0.13603291  0.14015618  0.86847560  1
  O  O390  1  0.11685019  0.57008901  0.45203124  1
  O  O391  1  0.12766952  0.62320287  0.88146214  1
  O  O392  1  0.61882560  0.12161071  0.39610099  1
  O  O393  1  0.63080813  0.14361839  0.88563098  1
  O  O394  1  0.52372998  0.57963810  0.44844406  1
  O  O395  1  0.62816501  0.62903658  0.88357484  1
