# generated using pymatgen
data_V35Zn35O128
_symmetry_space_group_name_H-M   'P 1'
_cell_length_a   16.90181885
_cell_length_b   16.83865939
_cell_length_c   16.83130300
_cell_angle_alpha   89.96210482
_cell_angle_beta   90.12108212
_cell_angle_gamma   89.92138673
_symmetry_Int_Tables_number   1
_chemical_formula_structural   V35Zn35O128
_chemical_formula_sum   'V70 Zn70 O256'
_cell_volume   4790.23940283
_cell_formula_units_Z   2
loop_
 _symmetry_equiv_pos_site_id
 _symmetry_equiv_pos_as_xyz
  1  'x, y, z'
loop_
 _atom_site_type_symbol
 _atom_site_label
 _atom_site_symmetry_multiplicity
 _atom_site_fract_x
 _atom_site_fract_y
 _atom_site_fract_z
 _atom_site_occupancy
  V  V0  1  0.63250875  0.48925619  0.62652938  1
  V  V1  1  -0.00089894  0.75277550  0.25803017  1
  V  V2  1  0.61530684  0.61523477  0.49825482  1
  V  V3  1  -0.00263128  -0.01252492  -0.00061576  1
  V  V4  1  0.38517044  0.38657406  -0.00163509  1
  V  V5  1  0.85508787  0.23250752  0.61557156  1
  V  V6  1  0.74876000  0.12999621  0.38705277  1
  V  V7  1  0.39495391  0.48428023  0.38122936  1
  V  V8  1  0.11154658  0.24984666  0.87325641  1
  V  V9  1  0.49556246  0.88738216  0.38060054  1
  V  V10  1  0.75981561  0.63166316  0.86088187  1
  V  V11  1  0.23668824  0.12436604  0.37957195  1
  V  V12  1  0.25606912  0.25183313  0.00334940  1
  V  V13  1  0.74588848  0.74577181  0.01002912  1
  V  V14  1  0.10827287  0.75001880  0.88565006  1
  V  V15  1  0.11949992  0.11484381  0.00205092  1
  V  V16  1  0.87793081  0.78681042  0.60672860  1
  V  V17  1  0.37293832  0.25314231  0.61656389  1
  V  V18  1  0.27579111  0.00820590  0.25393670  1
  V  V19  1  0.74781246  0.26314713  -0.00703469  1
  V  V20  1  0.76139327  0.62689936  0.38125919  1
  V  V21  1  0.60769632  0.87489630  0.75570346  1
  V  V22  1  -0.00136647  0.59628544  0.61711382  1
  V  V23  1  0.12942646  0.01057506  0.61981455  1
  V  V24  1  0.10555855  0.87171211  0.74985584  1
  V  V25  1  0.12126022  0.38304575  0.74885235  1
  V  V26  1  0.49697240  0.63586076  0.63690546  1
  V  V27  1  -0.00140152  0.11355626  0.12624694  1
  V  V28  1  0.13949037  0.75205691  0.38340638  1
  V  V29  1  0.25632939  -0.00850103  0.74662261  1
  V  V30  1  0.61211233  0.50598816  0.11864323  1
  V  V31  1  -0.00725115  -0.00245687  0.50807753  1
  V  V32  1  0.60525392  0.37044201  0.24594741  1
  V  V33  1  0.62504071  0.86834154  0.23224787  1
  V  V34  1  0.61611360  0.74905355  0.87370667  1
  V  V35  1  0.23130335  0.24878482  0.50145432  1
  V  V36  1  0.49800447  0.25744314  0.75880377  1
  V  V37  1  0.61220886  0.02007941  0.11851473  1
  V  V38  1  0.25021935  0.38944284  0.62998760  1
  V  V39  1  0.74514026  -0.00090437  0.74875799  1
  V  V40  1  0.11948566  0.89283843  0.25393383  1
  V  V41  1  -0.00322464  0.22840095  0.73118950  1
  V  V42  1  0.87394855  -0.01781836  0.37377735  1
  V  V43  1  0.87677825  -0.00098023  0.87056034  1
  V  V44  1  0.63309184  0.36984688  0.76229488  1
  V  V45  1  -0.00486299  0.47524049  0.01460474  1
  V  V46  1  0.00951583  0.25334647  0.25643145  1
  V  V47  1  0.86581383  0.39093968  0.51079306  1
  V  V48  1  0.25802508  0.87230411  0.13088337  1
  V  V49  1  0.49298411  0.01750581  -0.01150993  1
  V  V50  1  0.23989774  0.48788510  0.25267456  1
  V  V51  1  0.62454399  0.75313331  0.38396992  1
  V  V52  1  0.37845502  0.87234488  -0.01322627  1
  V  V53  1  0.36546564  0.61882705  0.24802960  1
  V  V54  1  0.87002679  0.12499375  0.24776382  1
  V  V55  1  0.62075826  -0.00233325  0.61173984  1
  V  V56  1  0.02034033  0.63237973  0.11723478  1
  V  V57  1  0.25065026  0.12154153  0.87500104  1
  V  V58  1  0.34981288  0.86586660  0.52175757  1
  V  V59  1  0.49749328  0.11704743  0.60470362  1
  V  V60  1  0.85466884  0.87772904  0.01401257  1
  V  V61  1  0.49611782  0.73912668  0.23509477  1
  V  V62  1  0.75978939  0.49171050  0.23925628  1
  V  V63  1  0.38006219  0.12396417  0.75940692  1
  V  V64  1  0.25773140  0.61227545  0.87149695  1
  V  V65  1  0.73343676  0.12647733  0.88240542  1
  V  V66  1  0.13740324  0.61520326  0.50384720  1
  V  V67  1  0.86974739  0.63410888  0.22931818  1
  V  V68  1  0.87231774  0.26507971  0.11703961  1
  V  V69  1  0.74563650  -0.00240088  0.23660693  1
  Zn  Zn70  1  0.24673845  0.37136355  0.12939106  1
  Zn  Zn71  1  0.86895052  0.48375659  0.87401901  1
  Zn  Zn72  1  0.89961767  0.64538468  0.74884330  1
  Zn  Zn73  1  0.64347156  0.26000331  0.36536028  1
  Zn  Zn74  1  0.00509636  0.39725038  0.39646924  1
  Zn  Zn75  1  0.24504664  0.72956858  0.01039326  1
  Zn  Zn76  1  0.18741948  0.17837486  0.18681618  1
  Zn  Zn77  1  0.19062128  0.18619597  0.69039607  1
  Zn  Zn78  1  0.18813883  0.68941089  0.19513499  1
  Zn  Zn79  1  0.13695827  0.65849936  0.71844196  1
  Zn  Zn80  1  0.68981624  0.19537665  0.17936744  1
  Zn  Zn81  1  0.68259764  0.17964813  0.69038359  1
  Zn  Zn82  1  0.68012418  0.68021909  0.18251295  1
  Zn  Zn83  1  0.69036970  0.69618296  0.68220506  1
  Zn  Zn84  1  0.30123242  0.31927031  0.32604276  1
  Zn  Zn85  1  0.31150075  0.43479272  0.81880927  1
  Zn  Zn86  1  0.31853250  0.81068903  0.31559099  1
  Zn  Zn87  1  0.28303073  0.81365710  0.82990545  1
  Zn  Zn88  1  0.83262129  0.31396973  0.32445660  1
  Zn  Zn89  1  0.81766151  0.30138763  0.80448915  1
  Zn  Zn90  1  0.80421753  0.80637537  0.30467639  1
  Zn  Zn91  1  0.80991535  0.81673093  0.81193304  1
  Zn  Zn92  1  0.19578067  0.43536710  0.43207737  1
  Zn  Zn93  1  0.16461101  0.44509676  0.94261846  1
  Zn  Zn94  1  0.19356134  0.93546089  0.43776212  1
  Zn  Zn95  1  0.18762771  0.93412105  0.93696502  1
  Zn  Zn96  1  0.69535479  0.44031933  0.42783677  1
  Zn  Zn97  1  0.69493355  0.44453299  0.93321073  1
  Zn  Zn98  1  0.69522039  0.93286716  0.43049265  1
  Zn  Zn99  1  0.67820513  0.93857118  0.93728839  1
  Zn  Zn100  1  0.29712752  0.04000745  0.05282646  1
  Zn  Zn101  1  0.31908213  0.05343692  0.55529396  1
  Zn  Zn102  1  0.31294989  0.56011140  0.06692777  1
  Zn  Zn103  1  0.31983429  0.57130661  0.55173143  1
  Zn  Zn104  1  0.80831887  0.06702188  0.05914894  1
  Zn  Zn105  1  0.81248084  0.05166271  0.56468819  1
  Zn  Zn106  1  0.81583784  0.55721244  0.05360321  1
  Zn  Zn107  1  0.81068505  0.57468904  0.57018791  1
  Zn  Zn108  1  0.42635431  0.43382566  0.18008611  1
  Zn  Zn109  1  0.45041097  0.45182077  0.68190243  1
  Zn  Zn110  1  0.44358814  0.93589067  0.18940925  1
  Zn  Zn111  1  0.43446211  0.93441637  0.68073727  1
  Zn  Zn112  1  0.97144490  0.46306828  0.22094928  1
  Zn  Zn113  1  0.92758027  0.42512070  0.70843844  1
  Zn  Zn114  1  0.93551852  0.93429167  0.18925016  1
  Zn  Zn115  1  0.93664385  0.94251650  0.68632541  1
  Zn  Zn116  1  0.04679967  0.07237440  0.33536426  1
  Zn  Zn117  1  0.06482918  0.05484992  0.81338035  1
  Zn  Zn118  1  0.06752533  0.57036643  0.32457136  1
  Zn  Zn119  1  0.03773345  0.55809462  0.82416830  1
  Zn  Zn120  1  0.57430319  0.06123876  0.31609336  1
  Zn  Zn121  1  0.56064198  0.06460627  0.81266805  1
  Zn  Zn122  1  0.56761497  0.55654247  0.31033529  1
  Zn  Zn123  1  0.57819819  0.56756489  0.80319564  1
  Zn  Zn124  1  0.44748428  0.21408808  0.43587279  1
  Zn  Zn125  1  0.46923554  0.22571853  0.96797140  1
  Zn  Zn126  1  0.43184095  0.68975590  0.42940198  1
  Zn  Zn127  1  0.41972858  0.69544043  0.92493717  1
  Zn  Zn128  1  0.94203487  0.18098298  0.44491201  1
  Zn  Zn129  1  0.93075036  0.18044268  0.93457561  1
  Zn  Zn130  1  0.94261287  0.69056736  0.44784248  1
  Zn  Zn131  1  0.93435061  0.70059219  0.94433817  1
  Zn  Zn132  1  0.05978914  0.30038780  0.06700146  1
  Zn  Zn133  1  0.05934739  0.31815438  0.56685522  1
  Zn  Zn134  1  0.06732547  0.81698766  0.07278713  1
  Zn  Zn135  1  0.06259482  0.82235720  0.56259732  1
  Zn  Zn136  1  0.58717251  0.35603657  0.04002283  1
  Zn  Zn137  1  0.56999492  0.30221793  0.57745436  1
  Zn  Zn138  1  0.55709375  0.81228307  0.05267106  1
  Zn  Zn139  1  0.56087641  0.81566150  0.56422267  1
  O  O140  1  0.11166134  0.12448750  0.11129565  1
  O  O141  1  0.12540800  0.10934086  0.63439179  1
  O  O142  1  0.11958252  0.62664410  0.12526888  1
  O  O143  1  0.11144206  0.62959888  0.60983785  1
  O  O144  1  0.61801569  0.11924076  0.12762164  1
  O  O145  1  0.60617355  0.11407583  0.62691306  1
  O  O146  1  0.62717845  0.60682848  0.11586808  1
  O  O147  1  0.62416894  0.62884291  0.60837899  1
  O  O148  1  0.38365212  0.38030582  0.37314152  1
  O  O149  1  0.36693021  0.37252165  0.89801806  1
  O  O150  1  0.39531447  0.87846705  0.36249906  1
  O  O151  1  0.36253910  0.87789685  0.88771344  1
  O  O152  1  0.89176735  0.37293080  0.39924597  1
  O  O153  1  0.88121222  0.39179355  0.81197872  1
  O  O154  1  0.85334011  0.88438087  0.37185951  1
  O  O155  1  0.86194792  0.89287080  0.88907299  1
  O  O156  1  0.25177819  0.01324096  0.36710822  1
  O  O157  1  0.24345001  0.01115596  0.86068538  1
  O  O158  1  0.26741588  0.49096792  0.36059927  1
  O  O159  1  0.24035924  0.50436478  0.88279953  1
  O  O160  1  0.75183735  0.00850134  0.35921220  1
  O  O161  1  0.74883276  0.00894761  0.87183571  1
  O  O162  1  0.74432111  0.52302212  0.35389041  1
  O  O163  1  0.75733798  0.52662761  0.88548531  1
  O  O164  1  0.25871301  0.49582777  0.14691733  1
  O  O165  1  0.26144640  0.48578866  0.61703758  1
  O  O166  1  0.25150627  0.99769573  0.14802290  1
  O  O167  1  0.24190233  1.00758716  0.63858822  1
  O  O168  1  0.75061650  0.50465039  0.13451608  1
  O  O169  1  0.73011665  0.51476076  0.62778315  1
  O  O170  1  0.73234339  1.00663472  0.12894344  1
  O  O171  1  0.73274654  1.01189586  0.64002785  1
  O  O172  1  -0.00674178  0.35189035  0.23996475  1
  O  O173  1  0.02179115  0.34873926  0.73806110  1
  O  O174  1  0.01062390  0.86354868  0.24219746  1
  O  O175  1  0.00822040  0.89047864  0.76057610  1
  O  O176  1  0.50575362  0.37016643  0.24343080  1
  O  O177  1  0.50242409  0.36023383  0.74062811  1
  O  O178  1  0.51322328  0.86633024  0.25479367  1
  O  O179  1  0.50850607  0.88344341  0.75442873  1
  O  O180  1  0.50285540  0.15242578  0.28382133  1
  O  O181  1  0.48940112  0.12735783  0.74591122  1
  O  O182  1  0.51308100  0.63925669  0.24660487  1
  O  O183  1  0.50847494  0.62786718  0.73822436  1
  O  O184  1  0.98875598  0.12454644  0.24307411  1
  O  O185  1  1.00213934  0.12980047  0.75439677  1
  O  O186  1  0.98850029  0.63597666  0.23940347  1
  O  O187  1  1.02021332  0.63103422  0.72408741  1
  O  O188  1  0.35390074  0.23326319  -0.00325196  1
  O  O189  1  0.36834961  0.24867863  0.51351266  1
  O  O190  1  0.36723465  0.76709886  -0.00009538  1
  O  O191  1  0.37963551  0.77200770  0.48365903  1
  O  O192  1  0.87259235  0.24275802  0.01113652  1
  O  O193  1  0.88023549  0.24544053  0.51356841  1
  O  O194  1  0.85835026  0.77038403  -0.00157004  1
  O  O195  1  0.87474581  0.75912248  0.50687101  1
  O  O196  1  0.13503315  0.23861956  0.51812497  1
  O  O197  1  0.12249776  0.23627405  0.98877456  1
  O  O198  1  0.11956438  0.75963881  0.48444498  1
  O  O199  1  0.13130043  0.76999607  0.99014680  1
  O  O200  1  0.59845127  0.25804842  0.47287265  1
  O  O201  1  0.64718312  0.26309221  1.00191529  1
  O  O202  1  0.62511511  0.74441184  0.48627556  1
  O  O203  1  0.63621076  0.76168742  0.98529398  1
  O  O204  1  0.43921105  0.23215841  0.14877270  1
  O  O205  1  0.48905829  0.23523325  0.62800463  1
  O  O206  1  0.50156867  0.75520585  0.13574872  1
  O  O207  1  0.50756282  0.73662454  0.62195825  1
  O  O208  1  0.98730635  0.23315193  0.12984282  1
  O  O209  1  1.01079739  0.23174943  0.63143761  1
  O  O210  1  1.00987159  0.74204915  0.14084462  1
  O  O211  1  0.98088858  0.76868226  0.62126408  1
  O  O212  1  -0.00913795  0.23789309  0.35603867  1
  O  O213  1  0.00861905  0.24118451  0.87089545  1
  O  O214  1  0.00395821  0.74710429  0.36141018  1
  O  O215  1  0.00893907  0.76647583  0.88650872  1
  O  O216  1  0.51054984  0.21233911  0.33153260  1
  O  O217  1  0.49569427  0.24503524  0.85685777  1
  O  O218  1  0.51686882  0.75551313  0.36110677  1
  O  O219  1  0.51667004  0.73963530  0.88335381  1
  O  O220  1  0.26025342  0.13037700  0.48587364  1
  O  O221  1  0.23717632  0.11867235  0.99562603  1
  O  O222  1  0.23553858  0.63779782  0.51408215  1
  O  O223  1  0.25243275  0.61730183  0.98932330  1
  O  O224  1  0.75398579  0.11356209  0.48499191  1
  O  O225  1  0.74597027  0.13142323  0.98871333  1
  O  O226  1  0.74260144  0.62376456  0.48427947  1
  O  O227  1  0.75946336  0.64347529  0.99240239  1
  O  O228  1  0.25248430  0.35699651  -0.00258705  1
  O  O229  1  0.24364913  0.35733113  0.51792513  1
  O  O230  1  0.26203611  0.89768281  0.02115435  1
  O  O231  1  0.24807722  0.86621329  0.50911544  1
  O  O232  1  0.76665206  0.36104453  -0.02385446  1
  O  O233  1  0.76511461  0.37486773  0.48987244  1
  O  O234  1  0.75089718  0.87445355  0.00297363  1
  O  O235  1  0.73831828  0.85990666  0.50260625  1
  O  O236  1  0.14324975  0.51415003  0.25671712  1
  O  O237  1  0.10964804  0.47952210  0.76370728  1
  O  O238  1  0.11344032  0.99167849  0.26322375  1
  O  O239  1  0.13706473  0.99159207  0.74635682  1
  O  O240  1  0.63958152  0.49412241  0.23869168  1
  O  O241  1  0.62153246  0.48160724  0.74049109  1
  O  O242  1  0.62596238  0.99153880  0.23551406  1
  O  O243  1  0.62821738  0.99243892  0.74950564  1
  O  O244  1  0.37424222  0.00846930  0.25254092  1
  O  O245  1  0.36596565  0.01307101  0.74047599  1
  O  O246  1  0.37162495  0.50450702  0.25814464  1
  O  O247  1  0.37849949  0.49372831  0.75267783  1
  O  O248  1  0.86123969  0.00119310  0.25130522  1
  O  O249  1  0.85940068  -0.00602423  0.76198318  1
  O  O250  1  0.86669614  0.52470183  0.24260304  1
  O  O251  1  0.92932290  0.52950569  0.78503057  1
  O  O252  1  0.11255426  0.37062899  0.39313651  1
  O  O253  1  0.13028773  0.35463621  0.86499029  1
  O  O254  1  0.13187654  0.86756135  0.36030705  1
  O  O255  1  0.14152344  0.86674187  0.85877197  1
  O  O256  1  0.63535245  0.38053476  0.35017918  1
  O  O257  1  0.62470484  0.38140233  0.86184453  1
  O  O258  1  0.62232207  0.86381534  0.36312139  1
  O  O259  1  0.62289991  0.86664635  0.86493603  1
  O  O260  1  0.42475554  0.16095306  0.15068697  1
  O  O261  1  0.38501629  0.12628215  0.62796324  1
  O  O262  1  0.38143645  0.61673902  0.14690906  1
  O  O263  1  0.39903416  0.61684198  0.61769590  1
  O  O264  1  0.88117514  0.12026420  0.13308358  1
  O  O265  1  0.87223378  0.13091666  0.62140553  1
  O  O266  1  0.87349214  0.63623321  0.12932702  1
  O  O267  1  0.89491387  0.62605554  0.62757491  1
  O  O268  1  0.23579251  0.24469176  0.10710283  1
  O  O269  1  0.26256847  0.24061695  0.61928437  1
  O  O270  1  0.24430760  0.76798236  0.12651058  1
  O  O271  1  0.31581706  0.72021856  0.68562490  1
  O  O272  1  0.76354890  0.24699610  0.10754434  1
  O  O273  1  0.75436874  0.23832679  0.62358480  1
  O  O274  1  0.73790719  0.74979467  0.10947097  1
  O  O275  1  0.77753086  0.74807830  0.63350467  1
  O  O276  1  0.23943756  0.24575011  0.39385800  1
  O  O277  1  0.23291587  0.23015743  0.88856427  1
  O  O278  1  0.23833074  0.75075859  0.36900987  1
  O  O279  1  0.23660507  0.73017001  0.88553576  1
  O  O280  1  0.76193262  0.23368655  0.37118951  1
  O  O281  1  0.76337445  0.23354889  0.88096384  1
  O  O282  1  0.73213410  0.73713571  0.36207147  1
  O  O283  1  0.74073832  0.74777104  0.88081620  1
  O  O284  1  0.00126783  0.11187535  0.00600165  1
  O  O285  1  0.01327589  0.08947861  0.45836747  1
  O  O286  1  -0.00213624  0.63953469  0.01849535  1
  O  O287  1  0.00920643  0.61993169  0.50915795  1
  O  O288  1  0.49089328  0.11765458  -0.00208410  1
  O  O289  1  0.49207370  0.12531742  0.50593204  1
  O  O290  1  0.50003463  0.58624048  -0.04006855  1
  O  O291  1  0.51523526  0.62815032  0.49640511  1
  O  O292  1  0.52297399  0.30134045  0.46406044  1
  O  O293  1  0.48198612  0.33671266  1.00586714  1
  O  O294  1  0.50848750  0.87303959  0.48108039  1
  O  O295  1  0.48205867  0.88237364  1.00190194  1
  O  O296  1  0.98811556  0.37842732  0.50815399  1
  O  O297  1  0.98903953  0.37554805  1.01195790  1
  O  O298  1  1.01674285  0.90288604  0.48497427  1
  O  O299  1  0.98777780  0.88450663  1.01202245  1
  O  O300  1  0.49688546  0.49257467  0.36926286  1
  O  O301  1  0.51074051  0.53453397  0.90701339  1
  O  O302  1  0.51211525  0.98655945  0.36844766  1
  O  O303  1  0.50262964  1.00281834  0.88976068  1
  O  O304  1  0.99474000  0.48911725  0.33150213  1
  O  O305  1  1.05047357  0.50131785  0.92991285  1
  O  O306  1  0.97240408  0.98402657  0.35405012  1
  O  O307  1  0.98375437  1.00249995  0.88333951  1
  O  O308  1  -0.00562041  0.00636560  0.11738914  1
  O  O309  1  0.00767544  0.00479473  0.61376842  1
  O  O310  1  -0.00701463  0.51904463  0.11960658  1
  O  O311  1  -0.00428559  0.49783520  0.62988410  1
  O  O312  1  0.50861856  0.00454477  0.12369917  1
  O  O313  1  0.50627505  0.00880457  0.62199726  1
  O  O314  1  0.51342378  0.49739747  0.13282822  1
  O  O315  1  0.52422699  0.51631978  0.62132838  1
  O  O316  1  0.24266792  0.37897276  0.24864201  1
  O  O317  1  0.23874515  0.37715192  0.74019306  1
  O  O318  1  0.24647516  0.89080548  0.24954711  1
  O  O319  1  0.25980227  0.89100166  0.74848111  1
  O  O320  1  0.77441618  0.39459473  0.25689914  1
  O  O321  1  0.72948878  0.35423320  0.74733950  1
  O  O322  1  0.73293072  0.88264633  0.24837997  1
  O  O323  1  0.73641708  0.89456423  0.75628476  1
  O  O324  1  0.24806081  0.11379500  0.25973103  1
  O  O325  1  0.26156462  0.12085032  0.75640670  1
  O  O326  1  0.26223697  0.62162399  0.25253479  1
  O  O327  1  0.22905000  0.61933614  0.77155351  1
  O  O328  1  0.75681928  0.11652656  0.24553108  1
  O  O329  1  0.74067965  0.11115998  0.76534365  1
  O  O330  1  0.76221250  0.63129991  0.25071348  1
  O  O331  1  0.75247183  0.62947345  0.75955950  1
  O  O332  1  0.36186723  0.16368534  0.35600551  1
  O  O333  1  0.36782561  0.12619178  0.86082741  1
  O  O334  1  0.39138192  0.61164993  0.35683434  1
  O  O335  1  0.35857535  0.62398111  0.86382262  1
  O  O336  1  0.86496768  0.11137087  0.36146140  1
  O  O337  1  0.86147973  0.10453103  0.88101473  1
  O  O338  1  0.86220836  0.63722301  0.37211717  1
  O  O339  1  0.86455517  0.65008903  0.86788152  1
  O  O340  1  0.12702826  0.38959631  0.10600570  1
  O  O341  1  0.14019166  0.37029212  0.63709294  1
  O  O342  1  0.13842635  0.87895109  0.14604720  1
  O  O343  1  0.12050734  0.88772245  0.64333685  1
  O  O344  1  0.63305211  0.38580175  0.14319849  1
  O  O345  1  0.62578992  0.38534637  0.62376558  1
  O  O346  1  0.61943384  0.87928196  0.13175193  1
  O  O347  1  0.61587831  0.89028423  0.63785552  1
  O  O348  1  0.10834704  0.24002604  0.24111122  1
  O  O349  1  0.11990756  0.24103129  0.76334676  1
  O  O350  1  0.11485869  0.75138386  0.26367565  1
  O  O351  1  0.12184611  0.76734239  0.75908138  1
  O  O352  1  0.63389675  0.26713446  0.24530559  1
  O  O353  1  0.60726185  0.25677129  0.73898281  1
  O  O354  1  0.62049346  0.75914605  0.24728711  1
  O  O355  1  0.62843215  0.76660614  0.75676887  1
  O  O356  1  0.36031151  0.21485326  0.29570208  1
  O  O357  1  0.38468345  0.23376512  0.73646694  1
  O  O358  1  0.38977779  0.73605180  0.25647631  1
  O  O359  1  0.35794637  0.74464528  0.74016657  1
  O  O360  1  0.87543072  0.23845068  0.23618409  1
  O  O361  1  0.89062470  0.24549523  0.72989147  1
  O  O362  1  0.88684116  0.74612412  0.25118184  1
  O  O363  1  0.86714673  0.75986489  0.72974395  1
  O  O364  1  0.37626382  0.50391208  0.47983297  1
  O  O365  1  0.38691664  0.48645887  1.00848342  1
  O  O366  1  0.37047118  0.96846406  0.50200517  1
  O  O367  1  0.38753335  0.99257205  1.00804801  1
  O  O368  1  0.86824480  0.49140465  0.51441947  1
  O  O369  1  0.89570717  0.50614183  0.98681498  1
  O  O370  1  0.88342381  0.99999606  0.48563148  1
  O  O371  1  0.87646421  0.99254109  0.99494991  1
  O  O372  1  0.11092613  0.00462909  -0.01006181  1
  O  O373  1  0.13093546  -0.00081607  0.51724682  1
  O  O374  1  0.11895726  0.45392233  0.05238332  1
  O  O375  1  0.13785383  0.51571967  0.49395494  1
  O  O376  1  0.60826263  -0.00374554  0.01177687  1
  O  O377  1  0.63314230  -0.00553829  0.51407999  1
  O  O378  1  0.62366945  0.46996669  0.01779898  1
  O  O379  1  0.63040273  0.51033523  0.50296137  1
  O  O380  1  0.36307971  0.36810460  0.10901156  1
  O  O381  1  0.36466348  0.35760959  0.63305285  1
  O  O382  1  0.36072775  0.87561687  0.13528182  1
  O  O383  1  0.37368152  0.86149618  0.62249191  1
  O  O384  1  0.87702047  0.36066773  0.12576367  1
  O  O385  1  0.87691853  0.35860898  0.61702066  1
  O  O386  1  0.86487804  0.88427673  0.11415440  1
  O  O387  1  0.87027693  0.88970344  0.61207453  1
  O  O388  1  0.13899442  0.12802799  0.37392436  1
  O  O389  1  0.12726902  0.12699267  0.88345393  1
  O  O390  1  0.12247010  0.64218676  0.39099961  1
  O  O391  1  0.10890439  0.64662308  0.87185774  1
  O  O392  1  0.64618168  0.13058148  0.36734085  1
  O  O393  1  0.63350311  0.12768253  0.87678271  1
  O  O394  1  0.62864129  0.63375243  0.38260564  1
  O  O395  1  0.64053142  0.64217632  0.86720357  1
