# generated using pymatgen
data_V35Zn35O128
_symmetry_space_group_name_H-M   'P 1'
_cell_length_a   16.93192069
_cell_length_b   16.91909425
_cell_length_c   16.92218254
_cell_angle_alpha   90.06973885
_cell_angle_beta   90.11579681
_cell_angle_gamma   90.06566345
_symmetry_Int_Tables_number   1
_chemical_formula_structural   V35Zn35O128
_chemical_formula_sum   'V70 Zn70 O256'
_cell_volume   4847.72768384
_cell_formula_units_Z   2
loop_
 _symmetry_equiv_pos_site_id
 _symmetry_equiv_pos_as_xyz
  1  'x, y, z'
loop_
 _atom_site_type_symbol
 _atom_site_label
 _atom_site_symmetry_multiplicity
 _atom_site_fract_x
 _atom_site_fract_y
 _atom_site_fract_z
 _atom_site_occupancy
  V  V0  1  0.36689520  0.87622723  0.50327603  1
  V  V1  1  0.36483678  0.10632053  0.75076821  1
  V  V2  1  -0.01773552  0.74363645  0.25332670  1
  V  V3  1  0.86396948  0.62678807  0.73727163  1
  V  V4  1  0.86127280  0.52192648  0.88295633  1
  V  V5  1  0.74569620  0.24150408  -0.01537459  1
  V  V6  1  0.75804927  -0.00699476  0.76944987  1
  V  V7  1  0.37698531  0.14522978  0.24779478  1
  V  V8  1  0.00888575  0.25751915  0.27006070  1
  V  V9  1  0.49913180  0.48149538  -0.01412025  1
  V  V10  1  0.13733867  0.62355121  0.00009905  1
  V  V11  1  0.74695390  0.75730236  0.51150666  1
  V  V12  1  0.88851410  0.88082505  0.00264767  1
  V  V13  1  0.87521482  0.11974165  0.26996751  1
  V  V14  1  0.38322280  0.25064962  0.10174475  1
  V  V15  1  0.61629428  0.75242446  0.36582163  1
  V  V16  1  0.38063193  0.25294451  0.63091181  1
  V  V17  1  0.50453926  0.00711142  0.02308345  1
  V  V18  1  0.09500158  0.13199572  0.00897159  1
  V  V19  1  0.24529696  0.00519733  0.24443972  1
  V  V20  1  0.87217904  0.86763455  0.51139605  1
  V  V21  1  0.49794989  0.87177116  0.36088595  1
  V  V22  1  0.24003748  0.11956134  0.88538446  1
  V  V23  1  0.26027180  0.26044608  0.50465608  1
  V  V24  1  0.63083289  0.62374631  -0.01364468  1
  V  V25  1  0.87757335  0.23299872  0.12972532  1
  V  V26  1  0.37120239  0.63108110  0.76548368  1
  V  V27  1  0.00667889  0.86846056  0.37648314  1
  V  V28  1  0.12464474  0.63620567  0.51484029  1
  V  V29  1  0.13509350  0.74925116  0.87599994  1
  V  V30  1  0.75540498  0.26521146  0.50004701  1
  V  V31  1  0.50640462  0.76807595  0.74860829  1
  V  V32  1  0.61610651  0.61861719  0.50462661  1
  V  V33  1  0.87218458  -0.00277820  0.37535404  1
  V  V34  1  0.00185257  0.75636681  0.74873153  1
  V  V35  1  0.25111589  0.87124210  0.10302802  1
  V  V36  1  0.87376246  0.48200206  0.38367171  1
  V  V37  1  0.50143862  0.61446325  0.62631778  1
  V  V38  1  0.75461177  0.62830646  0.37237059  1
  V  V39  1  0.13829083  -0.01737117  0.63244639  1
  V  V40  1  0.74304727  0.87578587  0.13883577  1
  V  V41  1  0.61162810  0.37390113  0.24805911  1
  V  V42  1  0.50073290  0.00131669  0.49582778  1
  V  V43  1  0.12806450  0.49537028  0.14457015  1
  V  V44  1  0.62151320  0.24838143  0.36389683  1
  V  V45  1  0.12592219  0.86362451  0.24950475  1
  V  V46  1  0.36469543  0.47515528  0.87049933  1
  V  V47  1  0.87527222  0.37477494  -0.00363024  1
  V  V48  1  0.00517358  0.00389130  0.50768281  1
  V  V49  1  0.74926807  0.36633886  0.12860608  1
  V  V50  1  0.88427166  0.12557301  0.75953568  1
  V  V51  1  0.49678824  0.37652956  0.40099296  1
  V  V52  1  0.24029617  0.13312354  0.37571964  1
  V  V53  1  0.27101298  0.50298322  0.25656159  1
  V  V54  1  0.63694584  0.12528189  0.49373667  1
  V  V55  1  0.63944375  -0.01726119  0.61785832  1
  V  V56  1  0.10572914  0.00713983  0.12571724  1
  V  V57  1  0.50031965  0.12024279  0.62585042  1
  V  V58  1  0.00131754  0.49708593  -0.00005322  1
  V  V59  1  0.63273501  0.12037003  0.03634723  1
  V  V60  1  0.24933466  0.36632577  0.12004543  1
  V  V61  1  -0.00969461  0.62592329  0.13144736  1
  V  V62  1  0.49264488  0.88550164  0.88448127  1
  V  V63  1  0.75122315  0.50348262  0.24996104  1
  V  V64  1  0.38742795  0.50761937  0.39231182  1
  V  V65  1  0.12752207  0.13188543  0.51428759  1
  V  V66  1  0.36773292  0.75953920  0.62331746  1
  V  V67  1  0.62105665  0.50164812  0.12225683  1
  V  V68  1  0.37244889  0.00192528  0.37031916  1
  V  V69  1  0.63407745  0.76020930  0.87500903  1
  Zn  Zn70  1  0.10894325  0.26392418  0.88746389  1
  Zn  Zn71  1  0.88095849  0.23892419  0.63028788  1
  Zn  Zn72  1  0.38383989  0.63909114  0.23317976  1
  Zn  Zn73  1  0.22983661  0.75758025  0.46890930  1
  Zn  Zn74  1  0.49674408  0.62590782  0.11854092  1
  Zn  Zn75  1  0.76745047  0.74591533  0.01733988  1
  Zn  Zn76  1  0.18343667  0.19025147  0.18716207  1
  Zn  Zn77  1  0.19431740  0.18886625  0.69765835  1
  Zn  Zn78  1  0.19811731  0.68242983  0.17940225  1
  Zn  Zn79  1  0.18635501  0.68571832  0.69113567  1
  Zn  Zn80  1  0.70126864  0.04349127  0.20547459  1
  Zn  Zn81  1  0.70752983  0.17524353  0.67899584  1
  Zn  Zn82  1  0.68216126  0.68773695  0.18685929  1
  Zn  Zn83  1  0.68345551  0.68993338  0.68972410  1
  Zn  Zn84  1  0.30629669  0.32696805  0.31973294  1
  Zn  Zn85  1  0.25152466  0.32532229  0.81528577  1
  Zn  Zn86  1  0.30478144  0.81201070  0.29010723  1
  Zn  Zn87  1  0.31057349  0.80869747  0.83314061  1
  Zn  Zn88  1  0.80558294  0.30510618  0.31099910  1
  Zn  Zn89  1  0.93014156  0.31596561  0.80979337  1
  Zn  Zn90  1  0.80843017  0.81379285  0.31708390  1
  Zn  Zn91  1  0.81798845  0.81691268  0.80972815  1
  Zn  Zn92  1  0.20505928  0.42726400  0.60601434  1
  Zn  Zn93  1  0.18568141  0.44289239  0.93963038  1
  Zn  Zn94  1  0.18583519  0.94373884  0.43613677  1
  Zn  Zn95  1  0.15531830  0.94791580  0.92866992  1
  Zn  Zn96  1  0.68571123  0.43836118  0.43569067  1
  Zn  Zn97  1  0.69010305  0.43168396  0.93782009  1
  Zn  Zn98  1  0.66575683  0.96274477  0.38340046  1
  Zn  Zn99  1  0.69399359  0.93579021  0.95441988  1
  Zn  Zn100  1  0.31110118  0.06274729  0.06312743  1
  Zn  Zn101  1  0.30977058  0.06229168  0.56065185  1
  Zn  Zn102  1  0.31949209  0.55064814  0.05858011  1
  Zn  Zn103  1  0.30752366  0.57910682  0.55957985  1
  Zn  Zn104  1  0.81774008  0.05249872  0.05406932  1
  Zn  Zn105  1  0.82171753  0.06320898  0.56386314  1
  Zn  Zn106  1  0.80977257  0.56365755  0.06503542  1
  Zn  Zn107  1  0.80732649  0.56131401  0.55764835  1
  Zn  Zn108  1  0.43599554  0.43003412  0.17472686  1
  Zn  Zn109  1  0.38671392  0.46077662  0.66644862  1
  Zn  Zn110  1  0.42895301  0.93360460  0.18401429  1
  Zn  Zn111  1  0.31119989  0.93421907  0.69857184  1
  Zn  Zn112  1  0.93551139  0.43417923  0.19231329  1
  Zn  Zn113  1  0.99879108  0.61718150  0.62467515  1
  Zn  Zn114  1  0.92800472  0.92942164  0.18622201  1
  Zn  Zn115  1  0.93831987  0.94152116  0.69482175  1
  Zn  Zn116  1  0.05479875  0.06807169  0.31421939  1
  Zn  Zn117  1  0.05845081  0.05243127  0.81631911  1
  Zn  Zn118  1  0.05566149  0.55700568  0.31697827  1
  Zn  Zn119  1  0.03071897  0.60036882  0.83882534  1
  Zn  Zn120  1  0.55348214  0.07155468  0.30158446  1
  Zn  Zn121  1  0.56451932  0.03835296  0.79289388  1
  Zn  Zn122  1  0.55481722  0.56534970  0.31100480  1
  Zn  Zn123  1  0.55295921  0.56455313  0.81210409  1
  Zn  Zn124  1  0.43714157  0.18991970  0.43607437  1
  Zn  Zn125  1  0.42924243  0.14557064  0.94505105  1
  Zn  Zn126  1  0.39470076  0.71489757  0.38933740  1
  Zn  Zn127  1  0.45340721  0.68794507  0.94226417  1
  Zn  Zn128  1  0.96412142  0.22701616  0.47127775  1
  Zn  Zn129  1  0.93254683  0.18428187  0.93137813  1
  Zn  Zn130  1  0.94039938  0.68328026  0.44297562  1
  Zn  Zn131  1  0.92535530  0.72890589  0.92503250  1
  Zn  Zn132  1  0.05969203  0.31450309  0.07511123  1
  Zn  Zn133  1  0.05304450  0.32909290  0.61658169  1
  Zn  Zn134  1  0.06637134  0.80712749  0.06566417  1
  Zn  Zn135  1  0.05857876  0.80932547  0.56745444  1
  Zn  Zn136  1  0.56445302  0.30591049  0.06192158  1
  Zn  Zn137  1  0.56608994  0.30582625  0.56781488  1
  Zn  Zn138  1  0.57430199  0.82203608  0.05894475  1
  Zn  Zn139  1  0.55434250  0.81031287  0.55193662  1
  O  O140  1  0.12284453  0.11625569  0.12148499  1
  O  O141  1  0.13505370  0.11529657  0.61499106  1
  O  O142  1  0.12089111  0.61023952  0.12181801  1
  O  O143  1  0.12401688  0.61804016  0.61837886  1
  O  O144  1  0.63477009  0.11744231  0.13396069  1
  O  O145  1  0.62020466  0.11817083  0.60394564  1
  O  O146  1  0.62237345  0.61258176  0.11442468  1
  O  O147  1  0.61442306  0.62886901  0.61811038  1
  O  O148  1  0.39226791  0.38378932  0.37975735  1
  O  O149  1  0.35138294  0.37943787  0.84350430  1
  O  O150  1  0.38386754  0.88694534  0.37844858  1
  O  O151  1  0.39517590  0.86390982  0.88726556  1
  O  O152  1  0.86146604  0.38308385  0.37304442  1
  O  O153  1  0.87454871  0.38867440  0.89292603  1
  O  O154  1  0.88909359  0.88053080  0.37884711  1
  O  O155  1  0.88100514  0.84259832  0.90135609  1
  O  O156  1  0.25611233  0.00872091  0.36539576  1
  O  O157  1  0.22625603  0.02200688  0.86713286  1
  O  O158  1  0.28027637  0.49488595  0.36038264  1
  O  O159  1  0.27227516  0.50634658  0.88857847  1
  O  O160  1  0.77512504  -0.01357077  0.38235408  1
  O  O161  1  0.73487904  -0.00289299  0.86649731  1
  O  O162  1  0.75157242  0.50834274  0.36774569  1
  O  O163  1  0.76336793  0.50696791  0.89514108  1
  O  O164  1  0.23977070  0.49200801  0.13242169  1
  O  O165  1  0.28539602  0.49669603  0.63215322  1
  O  O166  1  0.24172942  1.00118094  0.13467658  1
  O  O167  1  0.24438264  0.98999798  0.61932251  1
  O  O168  1  0.73897239  0.49175169  0.12896694  1
  O  O169  1  0.73204821  0.50124533  0.62784044  1
  O  O170  1  0.75685218  0.98772130  0.12509527  1
  O  O171  1  0.73701356  0.99575981  0.59939318  1
  O  O172  1  -0.00915867  0.35647855  0.25004503  1
  O  O173  1  -0.00906214  0.37055614  0.72121186  1
  O  O174  1  0.00499420  0.85959784  0.25454653  1
  O  O175  1  -0.00953856  0.85584669  0.75375871  1
  O  O176  1  0.51125241  0.37748022  0.24477733  1
  O  O177  1  0.61366872  0.37079363  0.65317155  1
  O  O178  1  0.49408422  0.88026445  0.26259914  1
  O  O179  1  0.50339618  0.86712631  0.76490397  1
  O  O180  1  0.47565977  0.13088374  0.25221762  1
  O  O181  1  0.50437858  0.11360155  0.72716573  1
  O  O182  1  0.50292234  0.62423513  0.23257249  1
  O  O183  1  0.49817662  0.63564380  0.74000344  1
  O  O184  1  0.98591593  0.13959729  0.25594693  1
  O  O185  1  0.98622824  0.11458136  0.75769230  1
  O  O186  1  1.00719386  0.63670022  0.24684817  1
  O  O187  1  0.98457709  0.62514579  0.74099202  1
  O  O188  1  0.38115769  0.23583266  0.00339539  1
  O  O189  1  0.36842100  0.24448092  0.50945044  1
  O  O190  1  0.42482685  0.75892706  0.03406137  1
  O  O191  1  0.38315192  0.76149884  0.51541383  1
  O  O192  1  0.86109540  0.25256923  0.01165949  1
  O  O193  1  0.84896321  0.24562216  0.47064865  1
  O  O194  1  0.88044036  0.75210576  0.02205873  1
  O  O195  1  0.86418623  0.75857893  0.49582049  1
  O  O196  1  0.14415355  0.23347504  0.51071491  1
  O  O197  1  0.11405465  0.23576990  1.01274133  1
  O  O198  1  0.11902780  0.74326291  0.49568385  1
  O  O199  1  0.11602941  0.72905454  0.99415786  1
  O  O200  1  0.63333135  0.23915066  0.49730464  1
  O  O201  1  0.63911111  0.23447733  1.01242186  1
  O  O202  1  0.63376128  0.74583226  0.49327394  1
  O  O203  1  0.61729468  0.73518556  0.98799352  1
  O  O204  1  0.48115120  0.25728681  0.12214807  1
  O  O205  1  0.49149449  0.22758553  0.60912345  1
  O  O206  1  0.47953963  0.75558579  0.09147797  1
  O  O207  1  0.50018925  0.75507755  0.63939304  1
  O  O208  1  0.97690088  0.25492867  0.12965354  1
  O  O209  1  0.97431115  0.26509471  0.57606605  1
  O  O210  1  1.00719525  0.73439377  0.14097499  1
  O  O211  1  1.00599002  0.74337017  0.64476126  1
  O  O212  1  0.00342176  0.25227207  0.37038214  1
  O  O213  1  -0.00343289  0.26291450  0.88317641  1
  O  O214  1  -0.00371960  0.75482389  0.36329434  1
  O  O215  1  0.01621090  0.72165835  0.86207110  1
  O  O216  1  0.50862981  0.26682749  0.38498759  1
  O  O217  1  0.53308256  0.19276086  0.86533362  1
  O  O218  1  0.50518108  0.76372097  0.38442013  1
  O  O219  1  0.50955456  0.75907728  0.86647649  1
  O  O220  1  0.24284700  0.12357827  0.49072292  1
  O  O221  1  0.25117139  0.12772993  0.98638798  1
  O  O222  1  0.23359175  0.64598026  0.51061614  1
  O  O223  1  0.23514044  0.61561459  1.01340262  1
  O  O224  1  0.73685911  0.12408135  0.49106748  1
  O  O225  1  0.74219618  0.13241080  1.00659379  1
  O  O226  1  0.73911445  0.63861948  0.49354247  1
  O  O227  1  0.73403842  0.62933237  1.00755402  1
  O  O228  1  0.24557309  0.38294685  0.02209009  1
  O  O229  1  0.25063086  0.35744321  0.51036430  1
  O  O230  1  0.23089231  0.89159937  0.00695151  1
  O  O231  1  0.26335644  0.87330206  0.48629266  1
  O  O232  1  0.75094452  0.36013502  0.00707175  1
  O  O233  1  0.73842845  0.36473899  0.50276906  1
  O  O234  1  0.75911773  0.86561684  0.01322890  1
  O  O235  1  0.76426801  0.86315394  0.49427367  1
  O  O236  1  0.13434481  0.50508718  0.24622690  1
  O  O237  1  0.00017545  0.45464841  0.71645962  1
  O  O238  1  0.13008514  1.00017828  0.24452742  1
  O  O239  1  0.12069864  1.00550655  0.72781657  1
  O  O240  1  0.62928604  0.49210534  0.24030662  1
  O  O241  1  0.62649391  0.46952952  0.78632314  1
  O  O242  1  0.63425155  1.00273107  0.28280528  1
  O  O243  1  0.64410534  0.99676904  0.72476269  1
  O  O244  1  0.36376275  0.00910846  0.25541177  1
  O  O245  1  0.38728232  0.00811735  0.74480425  1
  O  O246  1  0.37343343  0.49956287  0.24029828  1
  O  O247  1  0.38626742  0.51967445  0.76997922  1
  O  O248  1  0.89122125  0.00714635  0.26663614  1
  O  O249  1  0.86739173  0.00556861  0.75514203  1
  O  O250  1  0.85401862  0.49420653  0.25295991  1
  O  O251  1  0.87142623  0.52383078  0.77801015  1
  O  O252  1  0.12553238  0.38560240  0.38868460  1
  O  O253  1  0.15739175  0.36475096  0.86737082  1
  O  O254  1  0.11460253  0.88202688  0.36499543  1
  O  O255  1  0.12512198  0.84632817  0.88291870  1
  O  O256  1  0.61143160  0.37120304  0.36860931  1
  O  O257  1  0.62660543  0.41123740  0.83624797  1
  O  O258  1  0.60800111  0.86342946  0.38181366  1
  O  O259  1  0.61602073  0.86233029  0.88861030  1
  O  O260  1  0.35997614  0.14499558  0.13875509  1
  O  O261  1  0.39217032  0.11339550  0.62369258  1
  O  O262  1  0.38272528  0.61934722  0.11785145  1
  O  O263  1  0.39157588  0.64310571  0.62950473  1
  O  O264  1  0.87252539  0.13242924  0.12809587  1
  O  O265  1  0.87664867  0.12134376  0.63910862  1
  O  O266  1  0.89189140  0.61369659  0.13029752  1
  O  O267  1  0.87378598  0.61623563  0.63412698  1
  O  O268  1  0.25141286  0.26249833  0.12902808  1
  O  O269  1  0.27212756  0.23359730  0.61313615  1
  O  O270  1  0.23875762  0.77146300  0.12001280  1
  O  O271  1  0.26985356  0.74956465  0.63244953  1
  O  O272  1  0.76483672  0.26204686  0.13184448  1
  O  O273  1  0.76278669  0.24400615  0.60324039  1
  O  O274  1  0.74160831  0.76223391  0.13026510  1
  O  O275  1  0.74298537  0.75120655  0.60967254  1
  O  O276  1  0.25871474  0.24385011  0.39127857  1
  O  O277  1  0.21155591  0.21215123  0.82738825  1
  O  O278  1  0.28370809  0.74127576  0.37441657  1
  O  O279  1  0.23522981  0.73523669  0.87724963  1
  O  O280  1  0.72552111  0.25700289  0.38130783  1
  O  O281  1  0.74407023  0.25034973  0.88989262  1
  O  O282  1  0.73430543  0.74641514  0.37881756  1
  O  O283  1  0.73370682  0.75595611  0.87343925  1
  O  O284  1  -0.00349005  0.12451808  0.00750897  1
  O  O285  1  0.02096425  0.11649756  0.49383039  1
  O  O286  1  0.00804818  0.60834821  0.02251253  1
  O  O287  1  0.01186837  0.62901314  0.50975361  1
  O  O288  1  0.52609150  0.12117243  0.01038584  1
  O  O289  1  0.50271513  0.11397254  0.49888457  1
  O  O290  1  0.51572779  0.60749081  -0.00028463  1
  O  O291  1  0.51190711  0.63211067  0.51557172  1
  O  O292  1  0.50894593  0.37990828  0.49954797  1
  O  O293  1  0.52255631  0.38357923  0.98678525  1
  O  O294  1  0.48743735  0.88663784  0.49030987  1
  O  O295  1  0.50976663  0.89856291  0.99450105  1
  O  O296  1  1.07717975  0.38576605  0.44206265  1
  O  O297  1  0.99028677  0.39094035  1.01685092  1
  O  O298  1  0.99117374  0.87504066  0.49254142  1
  O  O299  1  0.98935930  0.87330404  1.01937683  1
  O  O300  1  0.49894264  0.48436562  0.37507662  1
  O  O301  1  0.48924322  0.49834627  0.88170455  1
  O  O302  1  0.48989232  0.99397576  0.37718705  1
  O  O303  1  0.50513701  0.98791917  0.87284529  1
  O  O304  1  0.97076045  0.50147009  0.36147448  1
  O  O305  1  0.99142805  0.50427554  0.89814968  1
  O  O306  1  0.99803097  0.98873730  0.38723783  1
  O  O307  1  1.04697254  0.97271699  0.89122842  1
  O  O308  1  0.00880867  -0.00046988  0.14049041  1
  O  O309  1  0.00962494  -0.00960083  0.61083145  1
  O  O310  1  0.01177855  0.50641303  0.13511040  1
  O  O311  1  0.00002149  0.47873055  0.64406094  1
  O  O312  1  0.50342426  -0.00425484  0.12147833  1
  O  O313  1  0.52017663  0.00828527  0.60586462  1
  O  O314  1  0.51232529  0.48760839  0.10615652  1
  O  O315  1  0.48847199  0.51692993  0.63209227  1
  O  O316  1  0.25500362  0.39207462  0.23931371  1
  O  O317  1  0.20123032  0.34834710  0.70424706  1
  O  O318  1  0.23969509  0.89030350  0.24532182  1
  O  O319  1  0.25268351  0.86651911  0.76032194  1
  O  O320  1  0.73661416  0.38153257  0.24416461  1
  O  O321  1  0.77020370  0.44045044  0.66518180  1
  O  O322  1  0.75658723  0.87788751  0.24142654  1
  O  O323  1  0.76323541  0.89225328  0.74661681  1
  O  O324  1  0.25338741  0.12211500  0.25780896  1
  O  O325  1  0.26722613  0.10507804  0.72959696  1
  O  O326  1  0.25972860  0.60773454  0.24110992  1
  O  O327  1  0.27423219  0.63352459  0.74649203  1
  O  O328  1  0.77652824  0.11971449  0.25361458  1
  O  O329  1  0.75938654  0.10260027  0.74408626  1
  O  O330  1  0.73418533  0.61429860  0.26084965  1
  O  O331  1  0.76445742  0.63729161  0.74828717  1
  O  O332  1  0.36557067  0.11894421  0.36750351  1
  O  O333  1  0.35398304  0.12784833  0.85818175  1
  O  O334  1  0.40211810  0.60381452  0.36222352  1
  O  O335  1  0.38134410  0.64298273  0.86558317  1
  O  O336  1  0.88003403  0.10763976  0.37510535  1
  O  O337  1  0.86633295  0.12671815  0.86131184  1
  O  O338  1  0.85603798  0.62765493  0.37924517  1
  O  O339  1  0.87662996  0.62118773  0.89512708  1
  O  O340  1  0.13127694  0.38821576  0.13028445  1
  O  O341  1  0.09892904  0.42294048  0.57552505  1
  O  O342  1  0.12962014  0.89013278  0.13346384  1
  O  O343  1  0.12617222  0.88337653  0.62116592  1
  O  O344  1  0.63224530  0.37856768  0.12915249  1
  O  O345  1  0.65825585  0.32891332  0.70338919  1
  O  O346  1  0.63987389  0.88059834  0.12563548  1
  O  O347  1  0.62302336  0.88583434  0.60564287  1
  O  O348  1  0.10706170  0.24636889  0.24717401  1
  O  O349  1  0.13850409  0.29143773  0.69540353  1
  O  O350  1  0.13060913  0.76290629  0.24611379  1
  O  O351  1  0.11507849  0.73658859  0.76370057  1
  O  O352  1  0.62177244  0.25773326  0.26358529  1
  O  O353  1  0.62964102  0.25544971  0.71940401  1
  O  O354  1  0.61889023  0.74594535  0.26782940  1
  O  O355  1  0.61512920  0.74743373  0.76326838  1
  O  O356  1  0.36628337  0.24411053  0.25923719  1
  O  O357  1  0.38066157  0.22042745  0.72856695  1
  O  O358  1  0.39120674  0.74772788  0.26741792  1
  O  O359  1  0.39145656  0.74765198  0.74304934  1
  O  O360  1  0.87756777  0.23807431  0.24638361  1
  O  O361  1  0.87481207  0.23635280  0.74661749  1
  O  O362  1  0.88447703  0.74796413  0.25223721  1
  O  O363  1  0.88809740  0.73345977  0.76365725  1
  O  O364  1  0.37854666  0.51552566  0.48995345  1
  O  O365  1  0.39046494  0.48540998  0.98754219  1
  O  O366  1  0.37962199  0.99676374  0.48853531  1
  O  O367  1  0.40500044  1.03444085  1.00069553  1
  O  O368  1  0.86465588  0.50031953  0.48283060  1
  O  O369  1  0.88344906  0.49526861  1.00376758  1
  O  O370  1  0.88589622  0.98979823  0.49277971  1
  O  O371  1  0.87365622  0.98133926  0.98944645  1
  O  O372  1  0.11933174  0.01444277  0.02174106  1
  O  O373  1  0.12306601  0.00599749  0.50929589  1
  O  O374  1  0.11292225  0.50192906  0.01257347  1
  O  O375  1  0.13243906  0.53789117  0.46048310  1
  O  O376  1  0.62220004  0.01686094  0.00214870  1
  O  O377  1  0.61823510  0.01160051  0.48575095  1
  O  O378  1  0.62276046  0.50607735  0.00065508  1
  O  O379  1  0.62923676  0.52064232  0.49493683  1
  O  O380  1  0.36289057  0.35918739  0.12207172  1
  O  O381  1  0.39228622  0.35109434  0.64094971  1
  O  O382  1  0.35073565  0.88875262  0.11836570  1
  O  O383  1  0.37567371  0.86927673  0.61723272  1
  O  O384  1  0.86268543  0.37736017  0.11516100  1
  O  O385  1  0.83933456  0.42305803  0.63989754  1
  O  O386  1  0.86218522  0.87437461  0.11613524  1
  O  O387  1  0.88072622  0.87848151  0.60851681  1
  O  O388  1  0.13732149  0.11777435  0.38324067  1
  O  O389  1  0.11857586  0.12424812  0.90302139  1
  O  O390  1  0.12855268  0.59483706  0.40048495  1
  O  O391  1  0.12831232  0.61031573  0.89721504  1
  O  O392  1  0.60860919  0.14248554  0.38397475  1
  O  O393  1  0.59335951  0.14866461  0.85832941  1
  O  O394  1  0.62199427  0.63729010  0.38694559  1
  O  O395  1  0.62329703  0.62972916  0.88223273  1
