# generated using pymatgen
data_V35Zn35O128
_symmetry_space_group_name_H-M   'P 1'
_cell_length_a   16.90672251
_cell_length_b   16.95861852
_cell_length_c   16.89411901
_cell_angle_alpha   89.99979582
_cell_angle_beta   90.08192359
_cell_angle_gamma   89.93627305
_symmetry_Int_Tables_number   1
_chemical_formula_structural   V35Zn35O128
_chemical_formula_sum   'V70 Zn70 O256'
_cell_volume   4843.78359740
_cell_formula_units_Z   2
loop_
 _symmetry_equiv_pos_site_id
 _symmetry_equiv_pos_as_xyz
  1  'x, y, z'
loop_
 _atom_site_type_symbol
 _atom_site_label
 _atom_site_symmetry_multiplicity
 _atom_site_fract_x
 _atom_site_fract_y
 _atom_site_fract_z
 _atom_site_occupancy
  V  V0  1  0.88417765  -0.02175064  0.88682255  1
  V  V1  1  0.50866046  0.38070698  0.85080511  1
  V  V2  1  0.25983685  0.36325991  0.11748325  1
  V  V3  1  0.89086340  0.50404548  0.36888861  1
  V  V4  1  0.51273412  0.62912353  0.63027836  1
  V  V5  1  0.15232613  0.62693347  0.01154538  1
  V  V6  1  0.88157948  0.87439491  0.50353844  1
  V  V7  1  0.36627563  0.00560936  0.36227674  1
  V  V8  1  0.24206236  0.12867557  0.35957177  1
  V  V9  1  0.24222283  0.25471781  0.49397385  1
  V  V10  1  0.11959908  0.62005403  0.49426083  1
  V  V11  1  0.13853858  -0.00571728  0.13383384  1
  V  V12  1  0.01278436  0.35744092  0.36045663  1
  V  V13  1  0.00013733  0.85315669  0.35853126  1
  V  V14  1  0.35397907  0.49087270  0.85736990  1
  V  V15  1  0.50398485  0.87872903  0.85878380  1
  V  V16  1  0.39148053  0.62856518  0.23369368  1
  V  V17  1  0.87816652  0.37771926  0.50325662  1
  V  V18  1  0.62657863  -0.00938367  0.63359024  1
  V  V19  1  0.52463265  0.49851000  0.50739150  1
  V  V20  1  0.75024814  0.00251218  0.25177665  1
  V  V21  1  0.62795089  0.02132156  0.12464846  1
  V  V22  1  0.61511937  0.87432992  0.26359958  1
  V  V23  1  0.49048494  0.24440073  0.24989261  1
  V  V24  1  0.24094164  0.88400720  0.61899432  1
  V  V25  1  0.88829239  0.00156914  0.37584862  1
  V  V26  1  0.24564167  0.75120847  0.49747602  1
  V  V27  1  0.50229623  -0.00277849  0.48926729  1
  V  V28  1  0.89138877  0.77000822  0.13431581  1
  V  V29  1  0.75624841  0.38755722  0.12679583  1
  V  V30  1  0.24342826  0.64757535  0.86080414  1
  V  V31  1  0.39484281  0.36951227  -0.00039760  1
  V  V32  1  0.74666251  0.87849230  0.11307934  1
  V  V33  1  0.77249257  -0.00680608  0.75164133  1
  V  V34  1  -0.00099849  0.49728880  0.00061845  1
  V  V35  1  0.37971389  0.77242478  0.12099688  1
  V  V36  1  0.50186216  0.37177852  0.37252014  1
  V  V37  1  -0.00477514  -0.01444061  0.01719407  1
  V  V38  1  0.00347197  0.63103409  0.64442181  1
  V  V39  1  0.62945366  0.12717767  0.50235017  1
  V  V40  1  0.72724871  0.50132588  0.25992353  1
  V  V41  1  0.38147945  0.87123273  0.49365420  1
  V  V42  1  0.88041802  0.75254441  0.63384896  1
  V  V43  1  -0.00073306  0.62202900  0.14123542  1
  V  V44  1  0.48612788  0.13271215  0.62235853  1
  V  V45  1  0.77942532  0.12860243  0.87929871  1
  V  V46  1  0.89775460  0.22656927  0.61143943  1
  V  V47  1  0.25418544  0.62897501  0.37491221  1
  V  V48  1  0.36701277  0.88373146  -0.00529480  1
  V  V49  1  0.12781850  0.13054593  -0.00916448  1
  V  V50  1  0.48017377  0.13540892  0.12354389  1
  V  V51  1  0.75513083  0.12805042  0.38088116  1
  V  V52  1  0.74693198  0.74686125  0.49460494  1
  V  V53  1  0.79425548  0.63230984  0.88319443  1
  V  V54  1  0.37519262  0.49773817  0.38604283  1
  V  V55  1  0.75641601  0.50004700  0.76629519  1
  V  V56  1  0.13713996  0.85612083  0.24606998  1
  V  V57  1  0.11860149  0.11184251  0.50746834  1
  V  V58  1  0.87756166  0.14043752  0.24355823  1
  V  V59  1  0.49759721  0.00793496  -0.00521554  1
  V  V60  1  0.24542048  -0.00152962  0.75182731  1
  V  V61  1  0.12248294  0.49398093  0.63734343  1
  V  V62  1  0.24942263  0.37411123  0.63764716  1
  V  V63  1  0.25541618  0.49199556  0.25072341  1
  V  V64  1  0.37090640  0.12436347  0.76529097  1
  V  V65  1  0.63295674  0.25261211  0.37286705  1
  V  V66  1  0.00083139  0.15799361  0.12330920  1
  V  V67  1  0.02015678  0.36973809  0.87657412  1
  V  V68  1  0.13312974  0.48674922  0.13152350  1
  V  V69  1  0.61384745  0.23684582  0.87180546  1
  Zn  Zn70  1  0.37514771  0.72934535  0.66017089  1
  Zn  Zn71  1  0.53876576  0.66943552  0.04061159  1
  Zn  Zn72  1  0.76347878  0.63194018  0.37147371  1
  Zn  Zn73  1  0.37679841  0.36305745  0.50643572  1
  Zn  Zn74  1  0.70776488  0.70262984  0.03330510  1
  Zn  Zn75  1  0.69445292  0.81655543  0.68514505  1
  Zn  Zn76  1  0.17886488  0.18673329  0.17706074  1
  Zn  Zn77  1  0.20137470  0.18046735  0.67686406  1
  Zn  Zn78  1  0.20277149  0.68202426  0.18225888  1
  Zn  Zn79  1  0.18131256  0.70453680  0.67761978  1
  Zn  Zn80  1  0.69250987  0.20329209  0.19153853  1
  Zn  Zn81  1  0.66824074  0.16248470  0.71027558  1
  Zn  Zn82  1  0.66052467  0.68156110  0.19926795  1
  Zn  Zn83  1  0.67484618  0.64605019  0.72021716  1
  Zn  Zn84  1  0.31224218  0.30945225  0.31619886  1
  Zn  Zn85  1  0.32455422  0.30793295  0.80471869  1
  Zn  Zn86  1  0.32157568  0.81009364  0.31020262  1
  Zn  Zn87  1  0.31332961  0.82411949  0.81372599  1
  Zn  Zn88  1  0.81594716  0.32696860  0.31082150  1
  Zn  Zn89  1  0.76610418  0.29055255  0.76641925  1
  Zn  Zn90  1  0.80942961  0.81182874  0.30590984  1
  Zn  Zn91  1  0.63515796  0.76785916  0.87323864  1
  Zn  Zn92  1  0.18071416  0.43952751  0.43924683  1
  Zn  Zn93  1  0.18670598  0.43309061  0.94437302  1
  Zn  Zn94  1  0.18216715  0.93787771  0.42638955  1
  Zn  Zn95  1  0.20894034  0.98294427  0.95629064  1
  Zn  Zn96  1  0.70229453  0.43084932  0.43879934  1
  Zn  Zn97  1  0.69101897  0.44837768  0.93040990  1
  Zn  Zn98  1  0.69595048  0.93675110  0.44181854  1
  Zn  Zn99  1  0.68153736  0.95527486  0.93576749  1
  Zn  Zn100  1  0.31054403  0.06968959  0.06558574  1
  Zn  Zn101  1  0.30594035  0.06123113  0.54711151  1
  Zn  Zn102  1  0.37062349  0.58796419  0.01421852  1
  Zn  Zn103  1  0.30852744  0.55699508  0.57479745  1
  Zn  Zn104  1  0.81213461  0.06751566  0.06074220  1
  Zn  Zn105  1  0.81480522  0.05361546  0.56362361  1
  Zn  Zn106  1  0.81246354  0.55467376  0.07066551  1
  Zn  Zn107  1  0.82578209  0.56854401  0.55443012  1
  Zn  Zn108  1  0.43139062  0.43035033  0.19568381  1
  Zn  Zn109  1  0.43534833  0.43767318  0.68091134  1
  Zn  Zn110  1  0.44200146  0.94677174  0.18578539  1
  Zn  Zn111  1  0.42773993  0.94661461  0.67586093  1
  Zn  Zn112  1  0.93255067  0.43536390  0.18900076  1
  Zn  Zn113  1  0.94640792  0.43450632  0.68740271  1
  Zn  Zn114  1  0.93851305  0.94675273  0.19197860  1
  Zn  Zn115  1  0.81297159  0.80677853  0.81988126  1
  Zn  Zn116  1  0.06329072  0.07262616  0.30773538  1
  Zn  Zn117  1  0.07745911  0.01582881  0.82458348  1
  Zn  Zn118  1  0.07096619  0.55340886  0.31496664  1
  Zn  Zn119  1  0.07039343  0.56545475  0.82151339  1
  Zn  Zn120  1  0.56259104  0.06600607  0.31083277  1
  Zn  Zn121  1  0.55098868  0.06133400  0.80740393  1
  Zn  Zn122  1  0.55751207  0.56011317  0.31903891  1
  Zn  Zn123  1  0.55375347  0.53772292  0.79460694  1
  Zn  Zn124  1  0.43000963  0.18433259  0.43847103  1
  Zn  Zn125  1  0.43749323  0.19648515  0.93643339  1
  Zn  Zn126  1  0.41574884  0.66111638  0.48153659  1
  Zn  Zn127  1  0.43125509  0.68838584  0.86148361  1
  Zn  Zn128  1  0.94564089  0.19429545  0.43519248  1
  Zn  Zn129  1  0.98053166  0.16459525  0.90964483  1
  Zn  Zn130  1  0.93673766  0.68959853  0.43613064  1
  Zn  Zn131  1  0.95013273  0.69776495  0.96959299  1
  Zn  Zn132  1  0.06028825  0.30734731  0.06851995  1
  Zn  Zn133  1  0.05807541  0.30879739  0.55408240  1
  Zn  Zn134  1  0.07201403  0.80797529  0.05607881  1
  Zn  Zn135  1  0.05849693  0.81340693  0.55381512  1
  Zn  Zn136  1  0.59164592  0.30265500  0.06321056  1
  Zn  Zn137  1  0.55774790  0.30690368  0.55618476  1
  Zn  Zn138  1  0.56334021  0.82768485  0.06456588  1
  Zn  Zn139  1  0.55785108  0.80813122  0.56085215  1
  O  O140  1  0.12160216  0.10545677  0.10899072  1
  O  O141  1  0.13086122  0.12718795  0.60824384  1
  O  O142  1  0.13253330  0.60707881  0.12526925  1
  O  O143  1  0.11761470  0.62499068  0.61657975  1
  O  O144  1  0.63445575  0.12267067  0.12994046  1
  O  O145  1  0.61821297  0.11469782  0.61892051  1
  O  O146  1  0.63033826  0.64073219  0.10141292  1
  O  O147  1  0.61311747  0.62906347  0.62330694  1
  O  O148  1  0.38679328  0.38158328  0.37688751  1
  O  O149  1  0.38691398  0.37352013  0.87335493  1
  O  O150  1  0.36610231  0.89073937  0.38366329  1
  O  O151  1  0.38822932  0.88258439  0.88917037  1
  O  O152  1  0.88803880  0.38307212  0.37875624  1
  O  O153  1  0.86679589  0.37009253  0.91883316  1
  O  O154  1  0.88756127  0.88189211  0.36895032  1
  O  O155  1  0.87561325  0.88016792  0.88448341  1
  O  O156  1  0.25868061  0.01205920  0.37430878  1
  O  O157  1  0.24530566  -0.01917743  0.85064896  1
  O  O158  1  0.25856491  0.50376513  0.36987880  1
  O  O159  1  0.25414429  0.47757255  0.86402812  1
  O  O160  1  0.75982338  0.01184900  0.36890151  1
  O  O161  1  0.76857299  -0.00017726  0.87086900  1
  O  O162  1  0.75722792  0.50145955  0.36776433  1
  O  O163  1  0.76811314  0.51730833  0.87434385  1
  O  O164  1  0.24478751  0.48651844  0.13511749  1
  O  O165  1  0.23446073  0.48769291  0.62236636  1
  O  O166  1  0.23754863  1.00169861  0.12705086  1
  O  O167  1  0.25080189  0.98677935  0.61719075  1
  O  O168  1  0.75059303  0.50017611  0.15167923  1
  O  O169  1  0.79240297  0.50919124  0.65487034  1
  O  O170  1  0.74702790  1.00181738  0.13406417  1
  O  O171  1  0.74116999  1.00484625  0.64130493  1
  O  O172  1  -0.00272450  0.37698622  0.25999971  1
  O  O173  1  -0.01893258  0.39553133  0.78527131  1
  O  O174  1  0.00374410  0.87400950  0.25425015  1
  O  O175  1  0.07985364  0.82898369  0.75616960  1
  O  O176  1  0.50009010  0.36203144  0.26338747  1
  O  O177  1  0.50363596  0.37471839  0.75007371  1
  O  O178  1  0.51642674  0.88779176  0.24722435  1
  O  O179  1  0.48902268  0.90021522  0.76208327  1
  O  O180  1  0.50096189  0.13594885  0.23994399  1
  O  O181  1  0.48232904  0.11385826  0.73067629  1
  O  O182  1  0.48985801  0.61982611  0.25335925  1
  O  O183  1  0.49634261  0.61411196  0.73067200  1
  O  O184  1  0.98442060  0.12805569  0.23906006  1
  O  O185  1  1.00526047  0.05689828  0.68225354  1
  O  O186  1  1.02012252  0.62033743  0.23894923  1
  O  O187  1  1.01011627  0.63117896  0.74328602  1
  O  O188  1  0.36932371  0.27059122  -0.01255685  1
  O  O189  1  0.35513506  0.24907954  0.49525799  1
  O  O190  1  0.37594606  0.78003469  0.01088528  1
  O  O191  1  0.36865557  0.76648996  0.48531262  1
  O  O192  1  0.85239206  0.31958012  -0.03150242  1
  O  O193  1  0.87987253  0.25558386  0.50842611  1
  O  O194  1  0.86076392  0.73099624  0.04571243  1
  O  O195  1  0.87303459  0.75927287  0.50301035  1
  O  O196  1  0.13743698  0.24223596  0.49568030  1
  O  O197  1  0.12791936  0.22872396  1.00328900  1
  O  O198  1  0.13949079  0.73879023  0.50202212  1
  O  O199  1  0.14740698  0.72494727  1.02907299  1
  O  O200  1  0.62067921  0.23484216  0.48954605  1
  O  O201  1  0.63813273  0.26117422  0.96699347  1
  O  O202  1  0.64954529  0.76558638  0.50847543  1
  O  O203  1  0.61606777  0.75722283  0.98852407  1
  O  O204  1  0.51174450  0.24237671  0.13702715  1
  O  O205  1  0.50236813  0.23157329  0.61927595  1
  O  O206  1  0.48557211  0.75122034  0.11575232  1
  O  O207  1  0.49423555  0.73416103  0.61717239  1
  O  O208  1  0.95628860  0.23580663  0.08021863  1
  O  O209  1  0.99492932  0.25058893  0.63254693  1
  O  O210  1  0.99451779  0.73700020  0.12973625  1
  O  O211  1  0.99825639  0.74127935  0.62236401  1
  O  O212  1  0.00495257  0.25615265  0.36089321  1
  O  O213  1  -0.00646235  0.27232531  0.88727405  1
  O  O214  1  -0.00535479  0.75479474  0.35928667  1
  O  O215  1  0.02417056  0.77922170  0.95255199  1
  O  O216  1  0.50489069  0.25096444  0.37009312  1
  O  O217  1  0.50972351  0.26168478  0.86832754  1
  O  O218  1  0.55137397  0.71560073  0.39128741  1
  O  O219  1  0.50824810  0.77723812  0.86465690  1
  O  O220  1  0.24037618  0.13599669  0.49032800  1
  O  O221  1  0.22913192  0.09803384  0.98806101  1
  O  O222  1  0.24726399  0.63291229  0.49450447  1
  O  O223  1  0.25276724  0.61146243  1.00166557  1
  O  O224  1  0.74296601  0.11636938  0.49011817  1
  O  O225  1  0.75164167  0.11370921  0.97642893  1
  O  O226  1  0.75606091  0.64117713  0.49827407  1
  O  O227  1  0.76298711  0.61421529  0.98686347  1
  O  O228  1  0.25270714  0.36975666  0.01590696  1
  O  O229  1  0.24738541  0.36304465  0.49503902  1
  O  O230  1  0.26783564  0.89453307  -0.00416152  1
  O  O231  1  0.25505642  0.86918704  0.49929258  1
  O  O232  1  0.73052474  0.41491851  0.03028474  1
  O  O233  1  0.77534315  0.36458062  0.49092831  1
  O  O234  1  0.74444874  0.89557285  0.01503839  1
  O  O235  1  0.77219347  0.86651221  0.49238139  1
  O  O236  1  0.14381085  0.49957560  0.24271630  1
  O  O237  1  0.12366958  0.50500293  0.73613836  1
  O  O238  1  0.11804091  1.00015859  0.23462125  1
  O  O239  1  0.14366739  1.00669267  0.73601182  1
  O  O240  1  0.62727514  0.48899037  0.26861255  1
  O  O241  1  0.65552058  0.52465170  0.74562163  1
  O  O242  1  0.63518339  1.00482598  0.24451203  1
  O  O243  1  0.61947565  1.00266877  0.73363449  1
  O  O244  1  0.37824507  -0.00027136  0.26394324  1
  O  O245  1  0.36102728  0.01403281  0.73846705  1
  O  O246  1  0.37621049  0.50891438  0.26328815  1
  O  O247  1  0.36958077  0.49063984  0.75746485  1
  O  O248  1  0.86575268  0.01215491  0.25841005  1
  O  O249  1  0.87251636  -0.00579247  0.76606123  1
  O  O250  1  0.86964737  0.49772252  0.26725751  1
  O  O251  1  0.85656202  0.51174465  0.71237432  1
  O  O252  1  0.11228569  0.38157081  0.37253690  1
  O  O253  1  0.11991089  0.37424777  0.87236141  1
  O  O254  1  0.10947292  0.87597130  0.35838211  1
  O  O255  1  0.06877161  0.87188430  0.81826232  1
  O  O256  1  0.61854068  0.35672702  0.38784981  1
  O  O257  1  0.60974984  0.38720492  0.87283646  1
  O  O258  1  0.62754953  0.89274781  0.36324976  1
  O  O259  1  0.60897494  0.89290723  0.87334993  1
  O  O260  1  0.38129806  0.13485797  0.12810063  1
  O  O261  1  0.38750083  0.11925364  0.60756656  1
  O  O262  1  0.38532973  0.61131741  0.13501849  1
  O  O263  1  0.38912518  0.63110428  0.59675200  1
  O  O264  1  0.87511431  0.12527387  0.13918508  1
  O  O265  1  0.88925585  0.12568371  0.60404446  1
  O  O266  1  0.90134360  0.60442854  0.13583532  1
  O  O267  1  0.89529736  0.64109667  0.61886642  1
  O  O268  1  0.25063878  0.26656185  0.14004441  1
  O  O269  1  0.23927247  0.26731866  0.61144051  1
  O  O270  1  0.28341078  0.73897474  0.12591093  1
  O  O271  1  0.26183459  0.76021135  0.61338400  1
  O  O272  1  0.69513608  0.29775921  0.12844293  1
  O  O273  1  0.70226792  0.35216080  0.62876264  1
  O  O274  1  0.73609555  0.77869679  0.12298895  1
  O  O275  1  0.77283936  0.75674955  0.61376932  1
  O  O276  1  0.25006921  0.23891846  0.37977829  1
  O  O277  1  0.21714772  0.24423523  0.84760553  1
  O  O278  1  0.25753374  0.73660401  0.38070008  1
  O  O279  1  0.25524508  0.74353296  0.88145656  1
  O  O280  1  0.73894322  0.24321364  0.36849163  1
  O  O281  1  0.76669128  0.22783800  0.86668198  1
  O  O282  1  0.75873508  0.74932844  0.38713278  1
  O  O283  1  0.75638588  0.73367535  0.88714751  1
  O  O284  1  0.01049466  0.11517470  0.01473030  1
  O  O285  1  0.02012491  0.12816359  0.48876478  1
  O  O286  1  0.02157141  0.61129871  0.02064902  1
  O  O287  1  0.01969592  0.63428479  0.49553021  1
  O  O288  1  0.49172979  0.12428614  0.01459943  1
  O  O289  1  0.50920172  0.11699105  0.50487568  1
  O  O290  1  0.45949577  0.64209106  -0.03318838  1
  O  O291  1  0.51306569  0.60280499  0.50138330  1
  O  O292  1  0.49689585  0.38183427  0.49429243  1
  O  O293  1  0.49605058  0.36512699  0.99771362  1
  O  O294  1  0.48953017  0.88108814  0.49767549  1
  O  O295  1  0.49341603  0.89824680  0.99948030  1
  O  O296  1  0.99067264  0.36601102  0.47861961  1
  O  O297  1  1.01519877  0.38899861  0.99744160  1
  O  O298  1  0.99095305  0.86592080  0.47523060  1
  O  O299  1  0.98512410  0.88915010  1.03413948  1
  O  O300  1  0.49689678  0.48969919  0.38942341  1
  O  O301  1  0.48382358  0.48343041  0.86557720  1
  O  O302  1  0.48871117  1.01378126  0.38393118  1
  O  O303  1  0.49821779  1.00547921  0.89213040  1
  O  O304  1  0.99340841  0.49502199  0.37295653  1
  O  O305  1  1.01328944  0.49916558  0.89712757  1
  O  O306  1  0.98856886  1.00338050  0.36570142  1
  O  O307  1  0.99163937  0.99003173  0.89485890  1
  O  O308  1  -0.00363575  0.01698665  0.12111332  1
  O  O309  1  0.00559590  0.00634412  0.63093885  1
  O  O310  1  0.01912136  0.49876757  0.12743229  1
  O  O311  1  0.01123983  0.51973698  0.62705595  1
  O  O312  1  0.50728337  0.02504005  0.12557460  1
  O  O313  1  0.51115418  0.00507360  0.60910513  1
  O  O314  1  0.52578269  0.47326175  0.12602793  1
  O  O315  1  0.50093967  0.50157483  0.61094506  1
  O  O316  1  0.27187084  0.38677172  0.24162687  1
  O  O317  1  0.24792808  0.36450194  0.73571947  1
  O  O318  1  0.23505370  0.87188148  0.26080620  1
  O  O319  1  0.26138045  0.88461667  0.72699852  1
  O  O320  1  0.74611098  0.39049353  0.24523384  1
  O  O321  1  0.75873011  0.40101775  0.78054553  1
  O  O322  1  0.74430918  0.89335750  0.24633219  1
  O  O323  1  0.75208004  0.89029038  0.75690311  1
  O  O324  1  0.23983956  0.13615050  0.25973839  1
  O  O325  1  0.25959443  0.11071296  0.74554909  1
  O  O326  1  0.26683768  0.61430601  0.25881660  1
  O  O327  1  0.22603854  0.64035563  0.76220824  1
  O  O328  1  0.75688509  0.12250173  0.25884322  1
  O  O329  1  0.74538465  0.10047465  0.77051783  1
  O  O330  1  0.72577989  0.61146853  0.26365379  1
  O  O331  1  0.77343341  0.62214599  0.77735272  1
  O  O332  1  0.36118917  0.11381736  0.37763972  1
  O  O333  1  0.38241311  0.12462769  0.86484617  1
  O  O334  1  0.36891420  0.61467861  0.38048089  1
  O  O335  1  0.34447339  0.60220359  0.87055226  1
  O  O336  1  0.87030073  0.12223333  0.36868529  1
  O  O337  1  0.88228093  0.11242745  0.87581753  1
  O  O338  1  0.87927631  0.60844585  0.38254093  1
  O  O339  1  0.89400100  0.64143686  0.88693366  1
  O  O340  1  0.13885398  0.38229470  0.12471811  1
  O  O341  1  0.12460541  0.38977103  0.61976134  1
  O  O342  1  0.12001804  0.88325836  0.13680478  1
  O  O343  1  0.14183004  0.86721119  0.61278499  1
  O  O344  1  0.58391429  0.42576363  0.11809457  1
  O  O345  1  0.63074129  0.37294610  0.63103621  1
  O  O346  1  0.63355182  0.89762807  0.13505312  1
  O  O347  1  0.62481459  0.88781278  0.62074397  1
  O  O348  1  0.07165001  0.22786984  0.16354837  1
  O  O349  1  0.16454778  0.23355068  0.79585097  1
  O  O350  1  0.13278504  0.75736818  0.23671678  1
  O  O351  1  0.13099575  0.76772116  0.76679092  1
  O  O352  1  0.61327393  0.24299294  0.27061663  1
  O  O353  1  0.65051287  0.25694742  0.76862933  1
  O  O354  1  0.63154399  0.77571428  0.25310006  1
  O  O355  1  0.64594706  0.74723618  0.75931739  1
  O  O356  1  0.39185060  0.24972593  0.25474115  1
  O  O357  1  0.36298108  0.22356782  0.74158274  1
  O  O358  1  0.38110414  0.73659404  0.24178929  1
  O  O359  1  0.37845803  0.74169983  0.77087172  1
  O  O360  1  0.86269702  0.23809912  0.25291190  1
  O  O361  1  0.82762489  0.25035810  0.68270929  1
  O  O362  1  0.85538262  0.74173581  0.22500203  1
  O  O363  1  0.87717205  0.76564262  0.73206288  1
  O  O364  1  0.37309504  0.49432680  0.49027739  1
  O  O365  1  0.37186686  0.47638054  0.97574019  1
  O  O366  1  0.38341911  0.99083819  0.48907644  1
  O  O367  1  0.38924396  0.99840736  1.01571828  1
  O  O368  1  0.87264977  0.48832361  0.48601328  1
  O  O369  1  0.90058764  0.50064700  1.01258824  1
  O  O370  1  0.87099538  0.98370478  0.48841175  1
  O  O371  1  0.88437900  1.00297200  0.99447665  1
  O  O372  1  0.10808588  -0.01129285  0.01340830  1
  O  O373  1  0.13040764  0.01124868  0.49562976  1
  O  O374  1  0.12946445  0.50395363  0.01967771  1
  O  O375  1  0.13036568  0.51770880  0.51126220  1
  O  O376  1  0.60722551  0.00595455  0.01272667  1
  O  O377  1  0.62266963  0.00700802  0.50603653  1
  O  O378  1  0.61386962  0.55037058  -0.04677509  1
  O  O379  1  0.62319028  0.48703937  0.50111142  1
  O  O380  1  0.37179282  0.38035173  0.11112411  1
  O  O381  1  0.35344343  0.38369196  0.61973211  1
  O  O382  1  0.37689878  0.87694514  0.12306846  1
  O  O383  1  0.36776710  0.87735320  0.60170392  1
  O  O384  1  0.85553705  0.37238316  0.12731957  1
  O  O385  1  0.89348316  0.37864484  0.60432120  1
  O  O386  1  0.86112969  0.87508785  0.13419957  1
  O  O387  1  0.89518495  0.86620809  0.60472287  1
  O  O388  1  0.13910532  0.11928767  0.37946602  1
  O  O389  1  0.09488784  0.11369562  0.89059618  1
  O  O390  1  0.14082911  0.61505133  0.38604692  1
  O  O391  1  0.14232578  0.61774742  0.89760118  1
  O  O392  1  0.63438666  0.13052128  0.38251894  1
  O  O393  1  0.61399365  0.13489885  0.86922379  1
  O  O394  1  0.60068622  0.66182709  0.37624784  1
  O  O395  1  0.60744807  0.59741446  0.89336657  1
