# generated using pymatgen
data_V35Zn35O128
_symmetry_space_group_name_H-M   'P 1'
_cell_length_a   16.99962950
_cell_length_b   16.93827633
_cell_length_c   16.93928963
_cell_angle_alpha   90.00528673
_cell_angle_beta   89.51678283
_cell_angle_gamma   89.93518939
_symmetry_Int_Tables_number   1
_chemical_formula_structural   V35Zn35O128
_chemical_formula_sum   'V70 Zn70 O256'
_cell_volume   4877.39734966
_cell_formula_units_Z   2
loop_
 _symmetry_equiv_pos_site_id
 _symmetry_equiv_pos_as_xyz
  1  'x, y, z'
loop_
 _atom_site_type_symbol
 _atom_site_label
 _atom_site_symmetry_multiplicity
 _atom_site_fract_x
 _atom_site_fract_y
 _atom_site_fract_z
 _atom_site_occupancy
  V  V0  1  0.85911865  0.77250632  0.61846551  1
  V  V1  1  0.12295966  0.12347370  0.00297721  1
  V  V2  1  0.70296676  -0.02445874  0.22890172  1
  V  V3  1  -0.01245229  0.74667574  0.25787542  1
  V  V4  1  0.25588880  -0.00766357  0.25424121  1
  V  V5  1  0.38779544  0.11282269  0.23493881  1
  V  V6  1  0.49636997  0.37729638  0.88259453  1
  V  V7  1  0.12978549  -0.00234165  0.63122413  1
  V  V8  1  0.37450567  0.12722226  0.74960838  1
  V  V9  1  0.74296532  0.00741818  0.76239418  1
  V  V10  1  0.01004441  0.53377798  0.51727463  1
  V  V11  1  0.25732767  0.37288804  0.11809865  1
  V  V12  1  0.86100747  0.13369395  0.73718114  1
  V  V13  1  -0.00457235  0.78682063  0.76545542  1
  V  V14  1  0.00452734  0.23459925  0.74058336  1
  V  V15  1  0.00794990  0.39240860  0.87732651  1
  V  V16  1  -0.00243766  -0.01417397  -0.00566786  1
  V  V17  1  0.25569565  0.86942096  0.11252023  1
  V  V18  1  0.02066536  0.22574509  0.23518330  1
  V  V19  1  0.62183926  0.49644858  0.61530247  1
  V  V20  1  0.62983783  0.78257192  0.38371674  1
  V  V21  1  0.13194803  0.40632158  0.74545130  1
  V  V22  1  0.12822163  0.75130478  0.38615407  1
  V  V23  1  0.36878080  0.49812291  0.39023586  1
  V  V24  1  0.13904130  0.24502179  0.37911230  1
  V  V25  1  0.83637912  0.76633545  0.09406690  1
  V  V26  1  0.49509177  -0.01402549  0.50378234  1
  V  V27  1  -0.00832744  0.36724172  0.36496766  1
  V  V28  1  0.13632388  0.12519292  0.50540216  1
  V  V29  1  0.39717515  -0.00954473  0.88451967  1
  V  V30  1  0.37344376  0.74672504  0.11497037  1
  V  V31  1  0.63499036  0.25139601  0.86734459  1
  V  V32  1  0.50120783  0.75065062  0.75797005  1
  V  V33  1  0.39300168  0.24281791  0.10932060  1
  V  V34  1  0.37836791  -0.01893503  0.38392529  1
  V  V35  1  0.87905071  0.11891848  0.25525652  1
  V  V36  1  0.25574395  0.87056564  0.62777350  1
  V  V37  1  0.73064920  0.26855259  0.04063867  1
  V  V38  1  0.49986928  0.37253155  0.38018192  1
  V  V39  1  0.50890892  0.50063589  -0.00157990  1
  V  V40  1  0.24881040  0.49697231  0.24715674  1
  V  V41  1  0.35575211  0.49849612  0.87426767  1
  V  V42  1  0.16626226  0.75356807  0.91229987  1
  V  V43  1  0.62597294  0.75380924  0.87220481  1
  V  V44  1  0.12567732  0.24680097  0.86813063  1
  V  V45  1  0.23917262  0.62330174  0.38000499  1
  V  V46  1  0.73792775  0.60537149  0.87157611  1
  V  V47  1  0.51052098  0.61538591  0.12640040  1
  V  V48  1  0.38355807  0.74419783  0.62301868  1
  V  V49  1  -0.00843510  0.88841159  0.38613982  1
  V  V50  1  0.12724886  0.87193911  0.25583129  1
  V  V51  1  0.23571845  0.37587957  0.61833571  1
  V  V52  1  0.51016234  0.25278087  0.25698292  1
  V  V53  1  0.49154800  0.12719309  0.62151605  1
  V  V54  1  0.36162044  0.62055909  0.75156959  1
  V  V55  1  0.26092402  0.12481271  0.37821686  1
  V  V56  1  0.49520332  0.76127387  0.25736228  1
  V  V57  1  0.90791750  0.23759262  0.09873700  1
  V  V58  1  0.12262599  0.00045004  0.12679347  1
  V  V59  1  0.36026671  0.34711053  0.50336833  1
  V  V60  1  -0.00150331  0.00668968  0.50958638  1
  V  V61  1  0.25103375  0.75117014  0.50658238  1
  V  V62  1  0.25053482  0.25539130  -0.00463340  1
  V  V63  1  0.62966152  0.13306185  0.49292996  1
  V  V64  1  0.86609901  0.62058271  0.73931624  1
  V  V65  1  0.62844225  -0.00994118  0.62947399  1
  V  V66  1  0.49300682  0.26261468  0.74059851  1
  V  V67  1  0.25141546  -0.00644694  0.75584191  1
  V  V68  1  0.13621109  0.36685181  0.24398377  1
  V  V69  1  0.01241700  0.64559096  0.64156243  1
  Zn  Zn70  1  0.86886778  0.39425216  0.01226241  1
  Zn  Zn71  1  0.67993256  0.67397690  0.04488840  1
  Zn  Zn72  1  0.37109242  0.61936770  0.24721693  1
  Zn  Zn73  1  0.54794819  0.06739084  0.14187988  1
  Zn  Zn74  1  0.25446627  0.12291692  0.87635645  1
  Zn  Zn75  1  0.90149012  0.54334762  0.92179177  1
  Zn  Zn76  1  0.20849525  0.17970428  0.18201591  1
  Zn  Zn77  1  0.19722615  0.19026178  0.68274259  1
  Zn  Zn78  1  0.18782455  0.68740014  0.18942432  1
  Zn  Zn79  1  0.15369578  0.66601845  0.74957341  1
  Zn  Zn80  1  0.68850036  0.18675827  0.19699061  1
  Zn  Zn81  1  0.66888760  0.18196664  0.68759794  1
  Zn  Zn82  1  0.68428288  0.77925257  0.21029303  1
  Zn  Zn83  1  0.68521150  0.68285963  0.68214709  1
  Zn  Zn84  1  0.32400207  0.30715627  0.30525524  1
  Zn  Zn85  1  0.30844417  0.31894499  0.80506122  1
  Zn  Zn86  1  0.31615110  0.80493377  0.30976541  1
  Zn  Zn87  1  0.31707669  0.81275730  0.81779122  1
  Zn  Zn88  1  0.82230482  0.26862640  0.31293731  1
  Zn  Zn89  1  0.84979598  0.26923590  0.86022728  1
  Zn  Zn90  1  0.80921108  0.83132767  0.32643155  1
  Zn  Zn91  1  0.78159245  0.79870105  0.76879428  1
  Zn  Zn92  1  0.17989751  0.43456456  0.43703439  1
  Zn  Zn93  1  0.17216678  0.43817084  0.94411008  1
  Zn  Zn94  1  0.19114917  0.93497437  0.44566235  1
  Zn  Zn95  1  0.18338533  0.93520312  0.93276367  1
  Zn  Zn96  1  0.69169631  0.43512859  0.42826001  1
  Zn  Zn97  1  0.68650162  0.42483007  0.93132937  1
  Zn  Zn98  1  0.68130348  0.96795477  0.41126008  1
  Zn  Zn99  1  0.66662544  0.94225608  0.91469518  1
  Zn  Zn100  1  0.31595453  0.06215250  0.05951016  1
  Zn  Zn101  1  0.31251901  0.06158233  0.56571812  1
  Zn  Zn102  1  0.33576360  0.54377215  0.06989526  1
  Zn  Zn103  1  0.29493404  0.56798545  0.57146212  1
  Zn  Zn104  1  0.80818828  0.07626101  0.07489701  1
  Zn  Zn105  1  0.78958895  0.01932760  0.53048576  1
  Zn  Zn106  1  0.93426610  0.58337353  0.08327825  1
  Zn  Zn107  1  0.87174291  0.40136325  0.51389196  1
  Zn  Zn108  1  0.43495742  0.42707535  0.18871088  1
  Zn  Zn109  1  0.42538382  0.44363435  0.67462031  1
  Zn  Zn110  1  0.44322127  0.93281062  0.16987068  1
  Zn  Zn111  1  0.43597188  0.93375405  0.69299442  1
  Zn  Zn112  1  0.96532379  0.41698674  0.16688863  1
  Zn  Zn113  1  0.94856147  0.44678613  0.69307667  1
  Zn  Zn114  1  0.93426189  0.93062791  0.18502336  1
  Zn  Zn115  1  0.92577678  0.95299793  0.68729865  1
  Zn  Zn116  1  0.07206628  0.05892856  0.31845447  1
  Zn  Zn117  1  0.06347283  0.06059102  0.81515324  1
  Zn  Zn118  1  0.03442360  0.54244885  0.26532279  1
  Zn  Zn119  1  0.06276074  0.59461671  0.92003882  1
  Zn  Zn120  1  0.55853875  0.05499282  0.31576500  1
  Zn  Zn121  1  0.56168224  0.07160319  0.81318644  1
  Zn  Zn122  1  0.54776850  0.55831634  0.31546620  1
  Zn  Zn123  1  0.54975531  0.56963419  0.80594351  1
  Zn  Zn124  1  0.43856874  0.17931989  0.43306316  1
  Zn  Zn125  1  0.43410610  0.18959342  0.93177333  1
  Zn  Zn126  1  0.42635857  0.68722818  0.43478438  1
  Zn  Zn127  1  0.43295244  0.67682616  0.93359442  1
  Zn  Zn128  1  0.95772408  0.18418558  0.43206241  1
  Zn  Zn129  1  0.91129022  0.11806851  0.94176405  1
  Zn  Zn130  1  0.94266586  0.71407105  0.45679545  1
  Zn  Zn131  1  0.91262798  0.71089405  0.92638006  1
  Zn  Zn132  1  0.06605158  0.31754303  0.05630092  1
  Zn  Zn133  1  0.02969106  0.33687586  0.57664500  1
  Zn  Zn134  1  0.05923639  0.80750984  0.06659288  1
  Zn  Zn135  1  0.06437142  0.81916073  0.57361132  1
  Zn  Zn136  1  0.57202652  0.22337270  0.06632901  1
  Zn  Zn137  1  0.55089878  0.30849665  0.55194326  1
  Zn  Zn138  1  0.52499223  0.79317561  0.03345200  1
  Zn  Zn139  1  0.56364635  0.81138288  0.56635639  1
  O  O140  1  0.14496057  0.10707451  0.11732133  1
  O  O141  1  0.14517023  0.11300788  0.61305332  1
  O  O142  1  0.13199891  0.60933432  0.11558188  1
  O  O143  1  0.11162405  0.64739061  0.64143612  1
  O  O144  1  0.62702803  0.13515624  0.11771150  1
  O  O145  1  0.60591204  0.11649083  0.61561540  1
  O  O146  1  0.60869750  0.61628788  0.12121226  1
  O  O147  1  0.63072812  0.60066784  0.61685709  1
  O  O148  1  0.36382959  0.38256569  0.38869414  1
  O  O149  1  0.38368003  0.39297339  0.85788823  1
  O  O150  1  0.36768840  0.88315441  0.37853910  1
  O  O151  1  0.37930840  0.89240328  0.87111186  1
  O  O152  1  0.89318845  0.35176472  0.35047235  1
  O  O153  1  0.90911536  0.36473568  0.89588598  1
  O  O154  1  0.89364307  0.88794494  0.37845108  1
  O  O155  1  0.85083924  0.90103843  0.89990565  1
  O  O156  1  0.26032893  0.00234025  0.37401720  1
  O  O157  1  0.25029388  0.00101780  0.86405859  1
  O  O158  1  0.25285553  0.50516696  0.37205458  1
  O  O159  1  0.25804186  0.49237799  0.88029281  1
  O  O160  1  0.72822949  0.02019129  0.31452440  1
  O  O161  1  0.72061738  0.02498778  0.86105462  1
  O  O162  1  0.70313431  0.51999184  0.34783146  1
  O  O163  1  0.73943203  0.50423934  0.86705750  1
  O  O164  1  0.26429617  0.48457554  0.13379552  1
  O  O165  1  0.24768657  0.47968552  0.61636876  1
  O  O166  1  0.25210017  0.98547916  0.13692355  1
  O  O167  1  0.25114563  0.98972285  0.63370771  1
  O  O168  1  0.77890162  0.56593383  0.20140870  1
  O  O169  1  0.72199090  0.48323345  0.63399094  1
  O  O170  1  0.74525217  1.01606102  0.14630544  1
  O  O171  1  0.73044160  1.00258149  0.63145981  1
  O  O172  1  0.02312628  0.34996659  0.24734696  1
  O  O173  1  0.02024234  0.37705357  0.75889150  1
  O  O174  1  0.01302055  0.87798808  0.26951036  1
  O  O175  1  -0.01193783  0.88710265  0.75362948  1
  O  O176  1  0.49103835  0.36642561  0.26845453  1
  O  O177  1  0.48332798  0.36376339  0.74109991  1
  O  O178  1  0.49685255  0.85827010  0.23893401  1
  O  O179  1  0.49168823  0.85083733  0.74640377  1
  O  O180  1  0.49315626  0.13837469  0.26259106  1
  O  O181  1  0.48995188  0.13228517  0.73957612  1
  O  O182  1  0.49239951  0.61414042  0.23496647  1
  O  O183  1  0.47859219  0.63777416  0.74760126  1
  O  O184  1  1.00890154  0.12303147  0.24874808  1
  O  O185  1  0.99271707  0.13132287  0.75583035  1
  O  O186  1  1.00544605  0.65036369  0.27989320  1
  O  O187  1  0.98753327  0.64244170  0.74248310  1
  O  O188  1  0.35313655  0.25693336  -0.00679087  1
  O  O189  1  0.36538150  0.24865855  0.49649940  1
  O  O190  1  0.40894030  0.75628713  0.01625173  1
  O  O191  1  0.36848739  0.74197381  0.51558070  1
  O  O192  1  0.91007638  0.22146176  0.00043441  1
  O  O193  1  0.86047096  0.23822766  0.48598736  1
  O  O194  1  0.84456412  0.77045363  -0.00649498  1
  O  O195  1  0.85881469  0.75312145  0.51751495  1
  O  O196  1  0.12931741  0.23580669  0.48308441  1
  O  O197  1  0.13278613  0.24247964  0.99054147  1
  O  O198  1  0.13466935  0.76098106  0.49268261  1
  O  O199  1  0.13454099  0.74597988  1.00944977  1
  O  O200  1  0.61746957  0.23386283  0.50154228  1
  O  O201  1  0.63498774  0.26824576  0.97617990  1
  O  O202  1  0.60985395  0.75851198  0.48040657  1
  O  O203  1  0.61067791  0.74201013  0.97936936  1
  O  O204  1  0.49784439  0.26991454  0.15159464  1
  O  O205  1  0.49772169  0.24270901  0.63391397  1
  O  O206  1  0.49686490  0.73035677  0.13725433  1
  O  O207  1  0.48612242  0.74788388  0.62718628  1
  O  O208  1  1.02540298  0.22962126  0.13092060  1
  O  O209  1  1.02339647  0.24292950  0.64283938  1
  O  O210  1  1.01497580  0.76119085  0.16064500  1
  O  O211  1  0.98523184  0.75449503  0.62548848  1
  O  O212  1  0.02496198  0.24541539  0.35544059  1
  O  O213  1  0.02205952  0.26549179  0.86315846  1
  O  O214  1  0.00974939  0.77108673  0.38054070  1
  O  O215  1  -0.01348325  0.77098216  0.86487825  1
  O  O216  1  0.48346033  0.26276097  0.36781286  1
  O  O217  1  0.49290659  0.26697789  0.86319217  1
  O  O218  1  0.47896516  0.75388516  0.35854868  1
  O  O219  1  0.50458778  0.73946732  0.86420773  1
  O  O220  1  0.24942115  0.11722954  0.48777414  1
  O  O221  1  0.24212767  0.13502807  0.99534180  1
  O  O222  1  0.25003672  0.63805440  0.49207793  1
  O  O223  1  0.17377571  0.58862817  1.05069278  1
  O  O224  1  0.72774191  0.11523442  0.50784763  1
  O  O225  1  0.75876805  0.17187751  1.02276465  1
  O  O226  1  0.76837416  0.60635083  0.47091001  1
  O  O227  1  0.74593386  0.62225371  0.97124237  1
  O  O228  1  0.23717748  0.36951253  0.01007984  1
  O  O229  1  0.25201482  0.37085797  0.50322804  1
  O  O230  1  0.24999115  0.88178468  0.01609319  1
  O  O231  1  0.25390326  0.86307937  0.51110224  1
  O  O232  1  0.76281656  0.35570340  -0.01579061  1
  O  O233  1  0.77320285  0.38130188  0.47243612  1
  O  O234  1  0.79853145  0.91341950  -0.05057662  1
  O  O235  1  0.76412422  0.92827129  0.47115123  1
  O  O236  1  0.14210060  0.48328151  0.25322972  1
  O  O237  1  0.12861424  0.50155676  0.75352010  1
  O  O238  1  0.13813205  0.99169742  0.24781568  1
  O  O239  1  0.13876758  1.01047528  0.74045769  1
  O  O240  1  0.65397287  0.51810334  0.28815358  1
  O  O241  1  0.60457333  0.49924030  0.72077485  1
  O  O242  1  0.59809728  0.99299919  0.22524394  1
  O  O243  1  0.62863905  1.01468166  0.73641828  1
  O  O244  1  0.36840928  -0.00442880  0.26976455  1
  O  O245  1  0.37075782  0.00694156  0.75957580  1
  O  O246  1  0.35972553  0.49379131  0.26017836  1
  O  O247  1  0.37600940  0.51288007  0.75299503  1
  O  O248  1  0.88221492  0.01930325  0.23871896  1
  O  O249  1  0.85650347  0.02328573  0.74728689  1
  O  O250  1  0.76946903  0.40912167  0.23046881  1
  O  O251  1  0.87982771  0.52091730  0.74245212  1
  O  O252  1  0.13646369  0.35732641  0.35925451  1
  O  O253  1  0.13327974  0.37070887  0.85152018  1
  O  O254  1  0.12784005  0.87068248  0.37098075  1
  O  O255  1  0.14026592  0.84629114  0.87885287  1
  O  O256  1  0.59757888  0.38224830  0.39037775  1
  O  O257  1  0.60149559  0.37098570  0.86593830  1
  O  O258  1  0.61495176  0.88116870  0.37446101  1
  O  O259  1  0.61797922  0.85396516  0.86659305  1
  O  O260  1  0.34271079  0.14505095  0.13427413  1
  O  O261  1  0.38175038  0.11881649  0.63563905  1
  O  O262  1  0.37623999  0.63271246  0.12442206  1
  O  O263  1  0.36639009  0.63614184  0.63439325  1
  O  O264  1  0.88637049  0.13922340  0.13657905  1
  O  O265  1  0.88016891  0.14383451  0.64256386  1
  O  O266  1  0.88057128  0.68102579  0.12213812  1
  O  O267  1  0.87847837  0.64531448  0.63786206  1
  O  O268  1  0.25331626  0.25944398  0.11135744  1
  O  O269  1  0.24688721  0.27201096  0.62450677  1
  O  O270  1  0.25847006  0.75922367  0.12749309  1
  O  O271  1  0.25671078  0.75687900  0.61854763  1
  O  O272  1  0.81798669  0.28619861  0.11307516  1
  O  O273  1  0.73580022  0.26403290  0.61527849  1
  O  O274  1  0.73004736  0.75061097  0.11431170  1
  O  O275  1  0.75845441  0.76361390  0.65034737  1
  O  O276  1  0.25127858  0.23309782  0.36207224  1
  O  O277  1  0.24143766  0.25393980  0.87758561  1
  O  O278  1  0.24809700  0.74374650  0.38424814  1
  O  O279  1  0.26779770  0.74989166  0.90007492  1
  O  O280  1  0.79994173  0.24902598  0.44245285  1
  O  O281  1  0.73087111  0.26701967  0.84643507  1
  O  O282  1  0.72845122  0.76465103  0.36989319  1
  O  O283  1  0.72804779  0.74435566  0.85708621  1
  O  O284  1  0.02245849  0.11347419  0.00011061  1
  O  O285  1  0.02377371  0.11427513  0.49397047  1
  O  O286  1  -0.02708094  0.62727186  -0.02024822  1
  O  O287  1  0.00662279  0.63903141  0.51301751  1
  O  O288  1  0.46528541  0.18522365  0.04092396  1
  O  O289  1  0.49775864  0.11776463  0.50916347  1
  O  O290  1  0.49653032  0.60943990  0.00975067  1
  O  O291  1  0.52072324  0.62140786  0.46549387  1
  O  O292  1  0.47234687  0.36571808  0.48842453  1
  O  O293  1  0.48836748  0.38507465  0.98344395  1
  O  O294  1  0.49343360  0.88863677  0.51030114  1
  O  O295  1  0.50798151  0.90343336  1.06352498  1
  O  O296  1  1.00159752  0.34816181  0.46585365  1
  O  O297  1  1.05455647  0.39454327  0.97025474  1
  O  O298  1  1.00847518  0.89071332  0.49417759  1
  O  O299  1  0.99921734  0.88672053  1.00969071  1
  O  O300  1  0.47546188  0.48539266  0.37000551  1
  O  O301  1  0.49810726  0.49389131  0.88036058  1
  O  O302  1  0.48594399  0.99675706  0.38962457  1
  O  O303  1  0.49812503  1.00130042  0.87556762  1
  O  O304  1  1.00614974  0.46553607  0.34712661  1
  O  O305  1  1.00094801  0.49570309  0.86858893  1
  O  O306  1  1.01369614  0.99352971  0.39151217  1
  O  O307  1  1.00819658  0.99795324  0.89400333  1
  O  O308  1  0.01983251  -0.01066496  0.12423073  1
  O  O309  1  0.01640892  -0.00411347  0.61658209  1
  O  O310  1  -0.02631789  0.52382284  0.17172646  1
  O  O311  1  0.00341686  0.53248282  0.62362359  1
  O  O312  1  0.44088196  0.04384197  0.15501546  1
  O  O313  1  0.49731702  0.00566674  0.61903365  1
  O  O314  1  0.48330479  0.50363610  0.11139266  1
  O  O315  1  0.51486365  0.49832822  0.61055017  1
  O  O316  1  0.25187151  0.37468120  0.23988777  1
  O  O317  1  0.23848660  0.37875331  0.73513541  1
  O  O318  1  0.24456256  0.87941107  0.25269310  1
  O  O319  1  0.25727605  0.88506317  0.74288307  1
  O  O320  1  0.73980067  0.36133193  0.27885086  1
  O  O321  1  0.77966656  0.31343010  0.64689478  1
  O  O322  1  0.73510850  0.87561477  0.24279777  1
  O  O323  1  0.75338145  0.90808189  0.76361834  1
  O  O324  1  0.26287497  0.10636726  0.25808815  1
  O  O325  1  0.26237688  0.11563044  0.74937899  1
  O  O326  1  0.24840401  0.61421400  0.25913723  1
  O  O327  1  0.26261215  0.63282942  0.75123203  1
  O  O328  1  0.78182702  0.17228450  0.25814090  1
  O  O329  1  0.75326523  0.12778373  0.73728231  1
  O  O330  1  0.80544420  0.59554738  0.26141295  1
  O  O331  1  0.75914790  0.62674409  0.75074462  1
  O  O332  1  0.37206720  0.11225542  0.36344121  1
  O  O333  1  0.37698414  0.11471947  0.86438204  1
  O  O334  1  0.36288471  0.61114757  0.37184185  1
  O  O335  1  0.37305438  0.61057039  0.86357171  1
  O  O336  1  0.89390329  0.12991141  0.35505928  1
  O  O337  1  0.86224002  0.15428848  0.85204062  1
  O  O338  1  0.82426814  0.61150153  0.42462331  1
  O  O339  1  0.85536749  0.62890520  0.85767950  1
  O  O340  1  0.14000177  0.36689201  0.13664503  1
  O  O341  1  0.12601704  0.38004887  0.63436682  1
  O  O342  1  0.14126959  0.87956555  0.13839419  1
  O  O343  1  0.14131305  0.88847351  0.62284252  1
  O  O344  1  0.67166197  0.28453461  0.12161997  1
  O  O345  1  0.61279578  0.39159076  0.61139601  1
  O  O346  1  0.63824260  0.92853476  0.02744736  1
  O  O347  1  0.61578821  0.89116217  0.62786826  1
  O  O348  1  0.13445860  0.24376009  0.25198010  1
  O  O349  1  0.12255009  0.23544751  0.75921399  1
  O  O350  1  0.12935809  0.75995104  0.26672941  1
  O  O351  1  0.09317173  0.76736913  0.74286080  1
  O  O352  1  0.60731786  0.24325763  0.26507999  1
  O  O353  1  0.60037950  0.25106694  0.75322263  1
  O  O354  1  0.60263740  0.73931913  0.27599210  1
  O  O355  1  0.60607922  0.73744292  0.74916839  1
  O  O356  1  0.38381017  0.23296706  0.23726760  1
  O  O357  1  0.38196731  0.23879088  0.75675320  1
  O  O358  1  0.38214728  0.74261766  0.23756889  1
  O  O359  1  0.37820735  0.74113747  0.74245683  1
  O  O360  1  0.91649675  0.24192487  0.23658243  1
  O  O361  1  0.90160487  0.25506224  0.74914715  1
  O  O362  1  0.88932102  0.76210131  0.27333463  1
  O  O363  1  0.88453537  0.75434440  0.74122796  1
  O  O364  1  0.36480664  0.50420634  0.48918680  1
  O  O365  1  0.38217441  0.50296655  0.97792181  1
  O  O366  1  0.38161791  1.00137224  0.49234156  1
  O  O367  1  0.37410977  1.00716823  0.98231469  1
  O  O368  1  0.92462628  0.49966799  0.48072303  1
  O  O369  1  0.87135532  0.50417767  1.02218248  1
  O  O370  1  0.90187483  1.02058788  0.51362722  1
  O  O371  1  0.89788466  1.02318730  1.01061050  1
  O  O372  1  0.12124924  0.00122683  0.00808560  1
  O  O373  1  0.12764977  0.00703239  0.51087139  1
  O  O374  1  0.12769388  0.53485960  0.00337663  1
  O  O375  1  0.09759739  0.49275261  0.48707062  1
  O  O376  1  0.56557323  -0.03832625  0.04169689  1
  O  O377  1  0.60557461  0.00618679  0.51178092  1
  O  O378  1  0.60663042  0.48780755  -0.00205822  1
  O  O379  1  0.63410118  0.49990434  0.51243549  1
  O  O380  1  0.36772199  0.35536027  0.12486876  1
  O  O381  1  0.36449213  0.37565753  0.60507716  1
  O  O382  1  0.36042001  0.86375668  0.13092607  1
  O  O383  1  0.36623709  0.85806606  0.63153906  1
  O  O384  1  0.95044692  0.34672242  0.08290681  1
  O  O385  1  0.92660013  0.38001400  0.60698518  1
  O  O386  1  0.87177229  0.85391736  0.13394827  1
  O  O387  1  0.87366478  0.87234385  0.62458274  1
  O  O388  1  0.14388053  0.12471000  0.38048045  1
  O  O389  1  0.13046653  0.13229124  0.88332270  1
  O  O390  1  0.13657370  0.63926746  0.37500489  1
  O  O391  1  0.13052821  0.66447508  0.86353383  1
  O  O392  1  0.61591603  0.11036019  0.39427897  1
  O  O393  1  0.61254911  0.15277427  0.87406414  1
  O  O394  1  0.57586523  0.62211957  0.41156496  1
  O  O395  1  0.63316063  0.62642593  0.85870636  1
