# generated using pymatgen
data_V35Zn35O128
_symmetry_space_group_name_H-M   'P 1'
_cell_length_a   16.87349795
_cell_length_b   16.84270412
_cell_length_c   16.84143980
_cell_angle_alpha   90.07037539
_cell_angle_beta   90.03959671
_cell_angle_gamma   90.06422611
_symmetry_Int_Tables_number   1
_chemical_formula_structural   V35Zn35O128
_chemical_formula_sum   'V70 Zn70 O256'
_cell_volume   4786.25083518
_cell_formula_units_Z   2
loop_
 _symmetry_equiv_pos_site_id
 _symmetry_equiv_pos_as_xyz
  1  'x, y, z'
loop_
 _atom_site_type_symbol
 _atom_site_label
 _atom_site_symmetry_multiplicity
 _atom_site_fract_x
 _atom_site_fract_y
 _atom_site_fract_z
 _atom_site_occupancy
  V  V0  1  0.75007290  0.25361048  0.49717163  1
  V  V1  1  0.22368152  0.85797595  0.60098615  1
  V  V2  1  0.13195191  0.12836352  -0.01440585  1
  V  V3  1  0.24753642  0.38799345  0.12717137  1
  V  V4  1  0.00837717  0.61039672  0.64750757  1
  V  V5  1  0.87177719  0.25658052  0.10881803  1
  V  V6  1  0.86936432  0.12895489  0.75104376  1
  V  V7  1  0.35813769  0.62688249  0.25028306  1
  V  V8  1  0.00655590  0.49530949  0.00421884  1
  V  V9  1  0.13069381  -0.00272832  0.11817105  1
  V  V10  1  0.62913074  -0.00950376  0.61394405  1
  V  V11  1  0.51091721  0.12233862  0.10842913  1
  V  V12  1  0.75297893  0.38874755  0.62986375  1
  V  V13  1  0.49533084  0.37834109  0.86685049  1
  V  V14  1  0.10865433  0.86832051  0.25094167  1
  V  V15  1  0.88272271  0.88590866  -0.00211621  1
  V  V16  1  0.50344749  0.62936742  0.14094915  1
  V  V17  1  0.61202588  0.51274731  0.61193630  1
  V  V18  1  0.24748900  0.49973369  0.75109153  1
  V  V19  1  0.62851657  0.49615040  0.14741644  1
  V  V20  1  0.50719854  0.38203559  0.35991264  1
  V  V21  1  0.38887577  0.25360346  0.63870199  1
  V  V22  1  0.25842346  0.75861881  0.01079167  1
  V  V23  1  0.50363668  0.50104049  -0.00047425  1
  V  V24  1  0.85026549  0.63328210  0.75280009  1
  V  V25  1  0.37755590  0.24667345  0.12664860  1
  V  V26  1  0.23312678  0.13364654  0.36960112  1
  V  V27  1  0.62563205  0.25351446  0.88937480  1
  V  V28  1  0.64052875  -0.01259488  0.13325101  1
  V  V29  1  0.88952909  0.63065879  0.24468359  1
  V  V30  1  0.75442713  0.11724131  0.36372426  1
  V  V31  1  0.24743821  0.62895907  0.39192415  1
  V  V32  1  0.50817559  0.12690215  0.63368170  1
  V  V33  1  0.38368687  0.12784745  0.25651290  1
  V  V34  1  0.87759007  0.50057856  0.35941310  1
  V  V35  1  0.36870602  0.49631078  0.37194235  1
  V  V36  1  0.23410576  0.37103701  0.61856724  1
  V  V37  1  0.88006496  0.38489672  0.49782915  1
  V  V38  1  0.90003376  -0.00466205  0.37374018  1
  V  V39  1  0.88484321  0.74833966  0.12430390  1
  V  V40  1  0.62259386  0.25749958  0.35900101  1
  V  V41  1  0.87317674  0.24570711  0.62713512  1
  V  V42  1  0.74442444  0.13180274  0.88672965  1
  V  V43  1  0.74646160  0.75480639  -0.00479702  1
  V  V44  1  0.75470658  0.38414367  0.12571624  1
  V  V45  1  0.46220328  0.90369290  0.38118088  1
  V  V46  1  -0.00568329  0.11878501  0.11410942  1
  V  V47  1  0.37475558  0.10740179  0.75824962  1
  V  V48  1  0.13152909  0.01832056  0.60323684  1
  V  V49  1  0.62202989  0.74978885  0.36365422  1
  V  V50  1  0.86341466  0.49934136  0.87305731  1
  V  V51  1  0.26254388  0.63563599  0.87036080  1
  V  V52  1  -0.00688962  0.87159493  0.84445632  1
  V  V53  1  0.12516231  0.62584532  0.00729123  1
  V  V54  1  0.88298751  0.88207603  0.51734794  1
  V  V55  1  0.38981574  0.37439189  0.50314347  1
  V  V56  1  0.62015811  0.13064623  0.49999108  1
  V  V57  1  0.48828034  0.72841414  0.75907067  1
  V  V58  1  0.63167278  0.62790488  -0.00557063  1
  V  V59  1  0.01494729  0.25230325  0.75649727  1
  V  V60  1  0.00451600  0.37284618  0.37265646  1
  V  V61  1  0.13033747  0.38271083  0.24815335  1
  V  V62  1  0.37674941  0.38016204  0.00083391  1
  V  V63  1  0.25611267  -0.00734778  0.25008984  1
  V  V64  1  0.11611042  0.58136504  0.50036566  1
  V  V65  1  0.62728694  0.37873014  0.74770777  1
  V  V66  1  0.00202149  0.24288024  0.24577535  1
  V  V67  1  0.75218099  0.62210311  0.37884010  1
  V  V68  1  0.74187073  -0.00307869  0.75413440  1
  V  V69  1  0.74697367  0.75757615  0.50848070  1
  Zn  Zn70  1  0.24675010  0.25140102  -0.00858855  1
  Zn  Zn71  1  0.74799165  0.86445442  0.16755947  1
  Zn  Zn72  1  0.37809320  0.76475204  0.13387596  1
  Zn  Zn73  1  0.26314681  0.23297659  0.50136334  1
  Zn  Zn74  1  -0.00484366  0.37108415  0.87621491  1
  Zn  Zn75  1  0.60457227  0.87390980  0.75521834  1
  Zn  Zn76  1  0.18813804  0.19069069  0.18113824  1
  Zn  Zn77  1  0.19989285  0.18241996  0.68868395  1
  Zn  Zn78  1  0.18536536  0.68812624  0.18443697  1
  Zn  Zn79  1  0.19438284  0.66898290  0.67306896  1
  Zn  Zn80  1  0.69270555  0.18910892  0.18329726  1
  Zn  Zn81  1  0.68916869  0.19773076  0.69420772  1
  Zn  Zn82  1  0.70327960  0.67958605  0.19048314  1
  Zn  Zn83  1  0.67241739  0.69654924  0.69180285  1
  Zn  Zn84  1  0.31327082  0.30990985  0.31277594  1
  Zn  Zn85  1  0.31091069  0.32147870  0.80717136  1
  Zn  Zn86  1  0.30820945  0.81233311  0.32140486  1
  Zn  Zn87  1  0.35978492  0.80004161  0.83879252  1
  Zn  Zn88  1  0.81563286  0.30951967  0.30188023  1
  Zn  Zn89  1  0.80991369  0.31665794  0.81950461  1
  Zn  Zn90  1  0.84023436  0.80623664  0.32916580  1
  Zn  Zn91  1  0.80830573  0.80916388  0.81626943  1
  Zn  Zn92  1  0.19547790  0.42174250  0.43478920  1
  Zn  Zn93  1  0.19233483  0.44440428  0.93481310  1
  Zn  Zn94  1  0.17830299  0.94062655  0.43443214  1
  Zn  Zn95  1  0.15868946  0.91375716  0.94672838  1
  Zn  Zn96  1  0.68988636  0.44205998  0.43545317  1
  Zn  Zn97  1  0.68805892  0.43605404  0.94663644  1
  Zn  Zn98  1  0.71183800  0.90732711  0.37460882  1
  Zn  Zn99  1  0.68761208  0.94734860  0.94970810  1
  Zn  Zn100  1  0.30958438  0.06264067  0.05558819  1
  Zn  Zn101  1  0.31048885  0.03703463  0.53683660  1
  Zn  Zn102  1  0.31361603  0.56786788  0.06020406  1
  Zn  Zn103  1  0.31145450  0.54532346  0.57252195  1
  Zn  Zn104  1  0.80615797  0.06181779  0.07136501  1
  Zn  Zn105  1  0.80698455  0.05834570  0.55808759  1
  Zn  Zn106  1  0.81780197  0.56008752  0.05770844  1
  Zn  Zn107  1  0.82286646  0.57013493  0.56556354  1
  Zn  Zn108  1  0.43498856  0.44358086  0.18678356  1
  Zn  Zn109  1  0.43076783  0.46092500  0.68823037  1
  Zn  Zn110  1  0.45927338  0.94885686  0.20118483  1
  Zn  Zn111  1  0.39630231  0.92842553  0.65365906  1
  Zn  Zn112  1  0.94260885  0.43413546  0.18262080  1
  Zn  Zn113  1  0.93945462  0.43988672  0.69826724  1
  Zn  Zn114  1  0.93153666  0.93781614  0.18742112  1
  Zn  Zn115  1  0.92665529  0.94449486  0.69252640  1
  Zn  Zn116  1  0.06579852  0.05910899  0.30258746  1
  Zn  Zn117  1  0.05317691  0.03389616  0.82835704  1
  Zn  Zn118  1  0.06556821  0.56025750  0.31173996  1
  Zn  Zn119  1  0.07569071  0.55563612  0.82580485  1
  Zn  Zn120  1  0.56213182  0.06272369  0.31604114  1
  Zn  Zn121  1  0.56437164  0.06416485  0.81395426  1
  Zn  Zn122  1  0.54621566  0.58371817  0.34035063  1
  Zn  Zn123  1  0.57475488  0.55935622  0.80847622  1
  Zn  Zn124  1  0.44319062  0.19238006  0.43678928  1
  Zn  Zn125  1  0.43921660  0.19462273  0.93392142  1
  Zn  Zn126  1  0.44564818  0.72905762  0.44722684  1
  Zn  Zn127  1  0.43858253  0.68346040  0.94320038  1
  Zn  Zn128  1  0.93219169  0.19032984  0.43051240  1
  Zn  Zn129  1  0.93918140  0.18235901  0.93296863  1
  Zn  Zn130  1  0.95471014  0.70694668  0.50640667  1
  Zn  Zn131  1  0.94304197  0.68880067  0.92635518  1
  Zn  Zn132  1  0.06474392  0.31028189  0.06026635  1
  Zn  Zn133  1  0.04791091  0.30642710  0.56622291  1
  Zn  Zn134  1  0.06422956  0.80801257  0.05653542  1
  Zn  Zn135  1  0.03985256  0.82160925  0.63284963  1
  Zn  Zn136  1  0.56374179  0.31592313  0.07097100  1
  Zn  Zn137  1  0.56678651  0.31703839  0.56039118  1
  Zn  Zn138  1  0.56610613  0.81176224  0.07454358  1
  Zn  Zn139  1  0.56510597  0.81268829  0.54464388  1
  O  O140  1  0.11693453  0.11765291  0.11444179  1
  O  O141  1  0.14518864  0.12040738  0.61137735  1
  O  O142  1  0.13380572  0.61979340  0.10876483  1
  O  O143  1  0.11990293  0.60519971  0.60712559  1
  O  O144  1  0.61142561  0.13798099  0.12393666  1
  O  O145  1  0.61855729  0.14188043  0.61856172  1
  O  O146  1  0.61632923  0.61582915  0.12676246  1
  O  O147  1  0.62663127  0.61075601  0.62874307  1
  O  O148  1  0.38584275  0.37505582  0.38014248  1
  O  O149  1  0.38908662  0.37238703  0.88317634  1
  O  O150  1  0.36017615  0.89492829  0.38227916  1
  O  O151  1  0.39115834  0.90441047  0.88882579  1
  O  O152  1  0.88035790  0.38063861  0.37673091  1
  O  O153  1  0.87553034  0.39161618  0.87203176  1
  O  O154  1  0.89335310  0.88796456  0.39255505  1
  O  O155  1  0.87855914  0.86319187  0.89265356  1
  O  O156  1  0.24339262  0.01420195  0.35378269  1
  O  O157  1  0.34190575  -0.04321985  0.92331468  1
  O  O158  1  0.26305599  0.49898970  0.37811544  1
  O  O159  1  0.26467819  0.49418276  0.85323555  1
  O  O160  1  0.73344143  0.02006146  0.37644433  1
  O  O161  1  0.72977042  0.01964784  0.86383169  1
  O  O162  1  0.77058961  0.50432797  0.37983362  1
  O  O163  1  0.76354511  0.50134357  0.88922067  1
  O  O164  1  0.26061581  0.48659070  0.12785733  1
  O  O165  1  0.22467635  0.47062343  0.60433331  1
  O  O166  1  0.23854451  1.01026708  0.13357617  1
  O  O167  1  0.23356580  0.99091302  0.61191074  1
  O  O168  1  0.74171317  0.49522240  0.12681692  1
  O  O169  1  0.75156388  0.48947009  0.61776473  1
  O  O170  1  0.74517029  0.99627619  0.14122367  1
  O  O171  1  0.73315863  1.01412110  0.63932545  1
  O  O172  1  0.01220394  0.36807839  0.24981267  1
  O  O173  1  0.00200975  0.35771126  0.75083835  1
  O  O174  1  0.00861033  0.87293646  0.24302817  1
  O  O175  1  -0.01346599  0.85691245  0.73977849  1
  O  O176  1  0.49578399  0.37629575  0.26113125  1
  O  O177  1  0.49932172  0.39186110  0.76377664  1
  O  O178  1  0.47895637  0.87387502  0.28276668  1
  O  O179  1  0.49029319  0.86295983  0.69529823  1
  O  O180  1  0.48484087  0.12557627  0.23836208  1
  O  O181  1  0.50371391  0.12922986  0.73795293  1
  O  O182  1  0.49091438  0.61790506  0.24185485  1
  O  O183  1  0.50152768  0.62818885  0.75491140  1
  O  O184  1  1.00782814  0.13748175  0.23466298  1
  O  O185  1  0.97132728  0.13899427  0.75933258  1
  O  O186  1  0.98960399  0.62098632  0.25343929  1
  O  O187  1  1.02340263  0.62320082  0.74563258  1
  O  O188  1  0.37159543  0.26356030  0.00427439  1
  O  O189  1  0.38164019  0.25984175  0.50750879  1
  O  O190  1  0.36441405  0.74670714  0.00842866  1
  O  O191  1  0.35599928  0.71925975  0.52426010  1
  O  O192  1  0.88568494  0.25189918  0.00948248  1
  O  O193  1  0.86791724  0.25680318  0.50599913  1
  O  O194  1  0.86328319  0.74542868  0.01161341  1
  O  O195  1  0.86338302  0.76929422  0.49574303  1
  O  O196  1  0.08500704  0.21077789  0.49769004  1
  O  O197  1  0.12513912  0.23274518  0.99988465  1
  O  O198  1  0.08740460  0.76183804  0.41721229  1
  O  O199  1  0.14029036  0.73867077  1.00372006  1
  O  O200  1  0.63522592  0.25095808  0.49080525  1
  O  O201  1  0.62284616  0.25949313  0.98847947  1
  O  O202  1  0.63971619  0.74357720  0.48604416  1
  O  O203  1  0.63306483  0.73982540  1.01085628  1
  O  O204  1  0.48425096  0.24688951  0.12023451  1
  O  O205  1  0.49566581  0.24881358  0.62350554  1
  O  O206  1  0.49772766  0.73100753  0.12693391  1
  O  O207  1  0.49641962  0.79120399  0.64845067  1
  O  O208  1  0.99368161  0.24257692  0.12601772  1
  O  O209  1  0.98029455  0.25009008  0.64118145  1
  O  O210  1  0.98372589  0.74746594  0.11503745  1
  O  O211  1  1.00527116  0.71534036  0.61070937  1
  O  O212  1  -0.00974917  0.25803653  0.35433676  1
  O  O213  1  -0.00356266  0.25228023  0.86190873  1
  O  O214  1  0.01686229  0.75822626  0.39693182  1
  O  O215  1  0.00388771  0.77584687  0.88353381  1
  O  O216  1  0.51569197  0.26287555  0.37428316  1
  O  O217  1  0.51231378  0.27062414  0.87695820  1
  O  O218  1  0.52757161  0.69808131  0.37650567  1
  O  O219  1  0.47869375  0.75635155  0.86343665  1
  O  O220  1  0.26201253  0.11738597  0.47370836  1
  O  O221  1  0.23860954  0.12804535  0.99118825  1
  O  O222  1  0.23681533  0.60708847  0.49729774  1
  O  O223  1  0.24714017  0.63405371  0.99512284  1
  O  O224  1  0.74239961  0.14028378  0.49290737  1
  O  O225  1  0.75329848  0.12160712  0.98513734  1
  O  O226  1  0.77491906  0.63817160  0.48660378  1
  O  O227  1  0.73636013  0.63246911  1.01292472  1
  O  O228  1  0.26073599  0.38085560  0.01191268  1
  O  O229  1  0.26183652  0.35690214  0.50504768  1
  O  O230  1  0.24312478  0.85893362  -0.00814528  1
  O  O231  1  0.24216246  0.87344427  0.50072498  1
  O  O232  1  0.74044016  0.37149235  0.02344734  1
  O  O233  1  0.75964133  0.36967370  0.50519328  1
  O  O234  1  0.75469845  0.86234646  -0.00107447  1
  O  O235  1  0.75134104  0.86074414  0.48285019  1
  O  O236  1  0.12190823  0.48231560  0.24559126  1
  O  O237  1  0.14760030  0.50230792  0.74468570  1
  O  O238  1  0.13581856  0.99387720  0.23575176  1
  O  O239  1  0.07821533  1.01951974  0.71277852  1
  O  O240  1  0.61988847  0.50789208  0.24382975  1
  O  O241  1  0.62595056  0.48686913  0.73570462  1
  O  O242  1  0.61423726  1.01118184  0.23233930  1
  O  O243  1  0.62775189  0.99312973  0.73669476  1
  O  O244  1  0.36304759  0.01793453  0.23635459  1
  O  O245  1  0.38576704  0.00900386  0.74193072  1
  O  O246  1  0.37717701  0.51044774  0.26113807  1
  O  O247  1  0.33913969  0.52730262  0.68686049  1
  O  O248  1  0.88147107  -0.00364771  0.27340399  1
  O  O249  1  0.85159836  0.01949864  0.74155136  1
  O  O250  1  0.87841643  0.50363430  0.25430464  1
  O  O251  1  0.87344765  0.50888468  0.76488390  1
  O  O252  1  0.12006073  0.37126576  0.35862191  1
  O  O253  1  0.16297369  0.34744430  0.87375399  1
  O  O254  1  0.12626566  0.88749035  0.34920801  1
  O  O255  1  0.09423125  0.91210851  0.85869519  1
  O  O256  1  0.61762380  0.37080160  0.37556640  1
  O  O257  1  0.62082842  0.37321199  0.86992029  1
  O  O258  1  0.61031437  0.85041206  0.37151848  1
  O  O259  1  0.59224772  0.91205028  0.87619289  1
  O  O260  1  0.37803802  0.13680257  0.12242704  1
  O  O261  1  0.39338287  0.13994729  0.63550611  1
  O  O262  1  0.38461028  0.61792832  0.13969754  1
  O  O263  1  0.39382123  0.66472759  0.57328762  1
  O  O264  1  0.88844854  0.13332292  0.11691748  1
  O  O265  1  0.85843520  0.13603991  0.63490817  1
  O  O266  1  0.86967086  0.63225685  0.13747380  1
  O  O267  1  0.88943462  0.61592988  0.64791004  1
  O  O268  1  0.26300223  0.25820725  0.11685555  1
  O  O269  1  0.27375566  0.25370949  0.62294720  1
  O  O270  1  0.25854204  0.75184777  0.11637319  1
  O  O271  1  0.19309980  0.75847062  0.60868028  1
  O  O272  1  0.76826130  0.25027367  0.12244954  1
  O  O273  1  0.75436023  0.26227851  0.61456678  1
  O  O274  1  0.76009491  0.75245758  0.12152215  1
  O  O275  1  0.73899779  0.74950427  0.60827408  1
  O  O276  1  0.25090138  0.23874121  0.37701811  1
  O  O277  1  0.22300484  0.28934491  0.87604509  1
  O  O278  1  0.25429647  0.72833643  0.38367039  1
  O  O279  1  0.26691072  0.74135831  0.88413833  1
  O  O280  1  0.74394926  0.24996069  0.37975082  1
  O  O281  1  0.73607390  0.24607359  0.87522158  1
  O  O282  1  0.74314187  0.73457675  0.38036884  1
  O  O283  1  0.74902132  0.74529944  0.89594793  1
  O  O284  1  0.00867869  0.12367373  0.00856191  1
  O  O285  1  0.03149155  0.15588369  0.49157514  1
  O  O286  1  0.02019380  0.62100951  -0.01231779  1
  O  O287  1  0.01969339  0.61390492  0.48636886  1
  O  O288  1  0.49657691  0.13074135  0.00902431  1
  O  O289  1  0.51366135  0.13673172  0.50912127  1
  O  O290  1  0.50906926  0.61843319  0.01314428  1
  O  O291  1  0.46917840  0.65288621  0.54804018  1
  O  O292  1  0.49258614  0.37228398  0.48883029  1
  O  O293  1  0.49579018  0.38294705  0.99665765  1
  O  O294  1  0.48468407  0.83814170  0.46591426  1
  O  O295  1  0.46840417  0.87435786  1.04581074  1
  O  O296  1  0.98993086  0.35989634  0.48484732  1
  O  O297  1  1.01471187  0.38840334  0.99388669  1
  O  O298  1  0.98147764  0.86748890  0.53302319  1
  O  O299  1  0.98451788  0.87891757  1.00746860  1
  O  O300  1  0.49101047  0.48790404  0.37657674  1
  O  O301  1  0.51223308  0.48886307  0.88924527  1
  O  O302  1  0.49583841  1.00092698  0.38630969  1
  O  O303  1  0.53744228  0.97175160  0.88131246  1
  O  O304  1  0.99038056  0.48244685  0.36717637  1
  O  O305  1  0.99988330  0.49120825  0.88148641  1
  O  O306  1  0.99766313  1.01583556  0.38147194  1
  O  O307  1  0.95966552  0.97441442  0.84784919  1
  O  O308  1  0.00833303  0.01488139  0.13255315  1
  O  O309  1  0.01766030  0.01784335  0.65442057  1
  O  O310  1  -0.00541183  0.49925722  0.10475119  1
  O  O311  1  -0.00255164  0.50920353  0.62830934  1
  O  O312  1  0.50412597  0.01909058  0.12261124  1
  O  O313  1  0.52268990  0.02285082  0.62345030  1
  O  O314  1  0.51191538  0.50481718  0.12100407  1
  O  O315  1  0.51273367  0.49433853  0.61930720  1
  O  O316  1  0.24134367  0.36788880  0.24022713  1
  O  O317  1  0.26357624  0.38858710  0.72640235  1
  O  O318  1  0.25708679  0.89100980  0.24628943  1
  O  O319  1  0.17287253  0.80721488  0.78619690  1
  O  O320  1  0.75063433  0.36640582  0.22866982  1
  O  O321  1  0.74622100  0.37522587  0.73490085  1
  O  O322  1  0.76285494  0.87048032  0.27862992  1
  O  O323  1  0.74775454  0.89536023  0.76638922  1
  O  O324  1  0.25806481  0.12597818  0.25551696  1
  O  O325  1  0.27605330  0.12984951  0.75439500  1
  O  O326  1  0.25477421  0.62104488  0.25811822  1
  O  O327  1  0.24737378  0.62236205  0.76221780  1
  O  O328  1  0.75273561  0.13457161  0.26533766  1
  O  O329  1  0.74716415  0.12233789  0.76092593  1
  O  O330  1  0.77402492  0.62673542  0.26914766  1
  O  O331  1  0.75092165  0.62621336  0.74684654  1
  O  O332  1  0.37956442  0.13497381  0.35790365  1
  O  O333  1  0.40012611  0.12336423  0.85655729  1
  O  O334  1  0.36303747  0.61548209  0.36795676  1
  O  O335  1  0.36030389  0.61262341  0.88878404  1
  O  O336  1  0.86123124  0.11226683  0.38581998  1
  O  O337  1  0.85416750  0.13657237  0.86370488  1
  O  O338  1  0.88126658  0.60735604  0.36627751  1
  O  O339  1  0.88025573  0.61748208  0.86013911  1
  O  O340  1  0.14119092  0.37264983  0.12884968  1
  O  O341  1  0.13954816  0.33954765  0.61920439  1
  O  O342  1  0.11771073  0.89266191  0.12506490  1
  O  O343  1  0.12588030  0.89689114  0.63220986  1
  O  O344  1  0.62910328  0.38990067  0.13077757  1
  O  O345  1  0.63930779  0.37990414  0.62675408  1
  O  O346  1  0.63146780  0.88139187  0.13600395  1
  O  O347  1  0.62520504  0.89071468  0.60821495  1
  O  O348  1  0.11032328  0.26082634  0.23584213  1
  O  O349  1  0.11113119  0.23302802  0.74573114  1
  O  O350  1  0.13281715  0.76989941  0.23976685  1
  O  O351  1  0.12754775  0.75272015  0.76752357  1
  O  O352  1  0.62898605  0.25228722  0.26096009  1
  O  O353  1  0.62520006  0.27165922  0.75748962  1
  O  O354  1  0.63306936  0.73172549  0.26441733  1
  O  O355  1  0.60222588  0.76084999  0.75432429  1
  O  O356  1  0.37042073  0.24146944  0.23506017  1
  O  O357  1  0.38209629  0.25846519  0.74015450  1
  O  O358  1  0.36672654  0.73287283  0.25146369  1
  O  O359  1  0.38735916  0.74300377  0.74183714  1
  O  O360  1  0.89392060  0.25706894  0.23087424  1
  O  O361  1  0.85916037  0.24295094  0.74142140  1
  O  O362  1  0.88341629  0.73964658  0.24134893  1
  O  O363  1  0.86599101  0.73394806  0.75474377  1
  O  O364  1  0.37171124  0.48051135  0.49337486  1
  O  O365  1  0.38939197  0.49009076  1.01142796  1
  O  O366  1  0.39966171  0.97617487  0.55048048  1
  O  O367  1  0.37764834  0.99499734  0.98424906  1
  O  O368  1  0.87843430  0.48787222  0.49334506  1
  O  O369  1  0.89471650  0.51622252  0.98458025  1
  O  O370  1  0.86717906  0.99190840  0.48865922  1
  O  O371  1  0.86380058  0.98393728  1.00692559  1
  O  O372  1  0.13259822  0.00821522  0.01201062  1
  O  O373  1  0.11228617  0.00385232  0.50403750  1
  O  O374  1  0.11986949  0.50926745  -0.00413475  1
  O  O375  1  0.11288871  0.48249647  0.48982824  1
  O  O376  1  0.63160990  0.00448593  0.03009391  1
  O  O377  1  0.63720102  0.02262951  0.51293665  1
  O  O378  1  0.62020975  0.51179092  0.01263556  1
  O  O379  1  0.62989855  0.49783471  0.51229860  1
  O  O380  1  0.36969162  0.36682521  0.12252054  1
  O  O381  1  0.38189631  0.36876138  0.61312729  1
  O  O382  1  0.41770552  0.87636378  0.10853041  1
  O  O383  1  0.30497792  0.86040019  0.66370602  1
  O  O384  1  0.86710493  0.36937047  0.12020344  1
  O  O385  1  0.86653495  0.37113179  0.61913763  1
  O  O386  1  0.86969310  0.86244203  0.11924620  1
  O  O387  1  0.85384035  0.89842625  0.61401151  1
  O  O388  1  0.13434496  0.13099832  0.36317685  1
  O  O389  1  0.11258982  0.10885305  0.88786013  1
  O  O390  1  0.14099004  0.60775481  0.38478727  1
  O  O391  1  0.15244934  0.61753798  0.88891187  1
  O  O392  1  0.62972652  0.14204903  0.37974774  1
  O  O393  1  0.62752329  0.14539878  0.87172649  1
  O  O394  1  0.65317726  0.60631158  0.37760233  1
  O  O395  1  0.62327438  0.62031765  0.89576043  1
