# generated using pymatgen
data_V35Zn35O128
_symmetry_space_group_name_H-M   'P 1'
_cell_length_a   16.95431294
_cell_length_b   16.90923032
_cell_length_c   16.91891935
_cell_angle_alpha   90.24403626
_cell_angle_beta   89.79590037
_cell_angle_gamma   89.89293002
_symmetry_Int_Tables_number   1
_chemical_formula_structural   V35Zn35O128
_chemical_formula_sum   'V70 Zn70 O256'
_cell_volume   4850.30656924
_cell_formula_units_Z   2
loop_
 _symmetry_equiv_pos_site_id
 _symmetry_equiv_pos_as_xyz
  1  'x, y, z'
loop_
 _atom_site_type_symbol
 _atom_site_label
 _atom_site_symmetry_multiplicity
 _atom_site_fract_x
 _atom_site_fract_y
 _atom_site_fract_z
 _atom_site_occupancy
  V  V0  1  0.36173011  0.11676342  0.23856054  1
  V  V1  1  0.37530033  0.87371743  0.01090197  1
  V  V2  1  0.12934648  0.74353214  0.86704539  1
  V  V3  1  0.75120113  0.20239866  0.48931406  1
  V  V4  1  0.51143313  0.74816018  0.24765715  1
  V  V5  1  0.89333099  0.13079727  0.75453051  1
  V  V6  1  0.00171411  0.00840757  0.50474703  1
  V  V7  1  0.00265029  0.00747798  0.00506048  1
  V  V8  1  0.37889742  -0.00413369  0.88367936  1
  V  V9  1  0.87311164  0.87263412  0.00423225  1
  V  V10  1  0.62379058  0.89234043  0.25019442  1
  V  V11  1  -0.01249903  0.63753276  0.15051541  1
  V  V12  1  0.11684992  0.24964085  0.86796484  1
  V  V13  1  0.50394184  0.87254971  0.85776590  1
  V  V14  1  0.50328375  0.64779019  0.62398624  1
  V  V15  1  0.24078130  0.26364383  0.52718380  1
  V  V16  1  0.72650254  0.74393643  0.49982934  1
  V  V17  1  0.87165792  0.00236108  0.87452946  1
  V  V18  1  0.86942021  0.87060517  0.51767501  1
  V  V19  1  0.36637056  0.50315658  0.86893859  1
  V  V20  1  0.10995684  0.37966432  0.26282803  1
  V  V21  1  0.73776452  0.63237246  0.35670747  1
  V  V22  1  0.25903084  0.86467406  0.60849192  1
  V  V23  1  0.00286329  0.86943691  0.87179561  1
  V  V24  1  0.75755659  0.48238909  0.24358757  1
  V  V25  1  0.23902638  0.25097576  0.00844733  1
  V  V26  1  0.49401062  0.63436748  0.12181884  1
  V  V27  1  0.61008251  0.49742902  0.62389405  1
  V  V28  1  0.12082349  0.21117130  0.34619377  1
  V  V29  1  0.62005727  0.75359102  0.86175029  1
  V  V30  1  0.64026948  0.37386927  0.75899410  1
  V  V31  1  0.38093556  0.63988931  0.75303521  1
  V  V32  1  0.39436411  0.36987461  0.50186359  1
  V  V33  1  0.11920671  -0.01039345  0.63807790  1
  V  V34  1  0.36865514  0.37592534  0.00490748  1
  V  V35  1  0.88065567  0.01423378  0.36595259  1
  V  V36  1  0.01169004  0.50971886  0.51420156  1
  V  V37  1  0.72921041  0.88184084  0.63203299  1
  V  V38  1  0.12669769  0.38402898  0.73970915  1
  V  V39  1  0.25166208  0.73838430  0.00561577  1
  V  V40  1  0.77114837  0.26786031  -0.00639752  1
  V  V41  1  0.38835385  0.25064556  0.13024762  1
  V  V42  1  0.74890191  0.89077369  0.13403142  1
  V  V43  1  0.14007901  0.73861503  0.39080221  1
  V  V44  1  -0.00734121  0.85338124  0.38526660  1
  V  V45  1  0.49182342  0.87694632  0.37883897  1
  V  V46  1  0.49940701  0.50094156  -0.00326768  1
  V  V47  1  0.36545428  0.63073739  0.25026360  1
  V  V48  1  0.88192608  0.24876532  0.62528337  1
  V  V49  1  -0.00434664  0.38642738  0.87954523  1
  V  V50  1  0.13754296  0.12516066  0.51479998  1
  V  V51  1  0.12408944  0.49780332  0.12050158  1
  V  V52  1  0.11756189  0.00386039  0.12480028  1
  V  V53  1  0.75173434  0.75380283  0.00412734  1
  V  V54  1  0.10868413  0.62416837  0.00032454  1
  V  V55  1  0.49916480  0.36890708  0.86666438  1
  V  V56  1  0.38096689  0.13432747  0.75189151  1
  V  V57  1  0.24696488  -0.01400007  0.75816210  1
  V  V58  1  0.24228173  0.12282150  0.88319242  1
  V  V59  1  0.25322652  0.48633561  0.25405264  1
  V  V60  1  0.80692409  0.55534571  0.69681341  1
  V  V61  1  0.62370718  0.63092334  -0.00265157  1
  V  V62  1  0.24059845  0.87310976  0.12903413  1
  V  V63  1  0.11639663  0.86626341  0.25552212  1
  V  V64  1  0.75293177  0.62288607  0.87091326  1
  V  V65  1  0.73606332  0.00909951  0.75286432  1
  V  V66  1  0.87221363  0.49939242  0.89113488  1
  V  V67  1  0.76019667  0.37553173  0.61853529  1
  V  V68  1  -0.02187947  0.73664669  0.74553508  1
  V  V69  1  0.62867830  0.49155280  0.12693359  1
  Zn  Zn70  1  0.35756653  -0.00291143  0.38544751  1
  Zn  Zn71  1  -0.06925137  0.41684447  0.39668823  1
  Zn  Zn72  1  0.37665974  0.48951369  0.37458966  1
  Zn  Zn73  1  0.50338804  0.01305476  0.51103887  1
  Zn  Zn74  1  0.24754952  0.50040080  0.73784451  1
  Zn  Zn75  1  0.62641709  0.23474246  0.88125854  1
  Zn  Zn76  1  0.17667045  0.18780185  0.18302584  1
  Zn  Zn77  1  0.18938263  0.17989078  0.69448461  1
  Zn  Zn78  1  0.18017767  0.68676044  0.18959212  1
  Zn  Zn79  1  0.20555476  0.68090263  0.68751966  1
  Zn  Zn80  1  0.65112667  0.14384160  0.04938174  1
  Zn  Zn81  1  0.69702118  0.19636445  0.70292471  1
  Zn  Zn82  1  0.68604585  0.68908947  0.17897806  1
  Zn  Zn83  1  0.68509699  0.69041235  0.67613334  1
  Zn  Zn84  1  0.30119692  0.30297046  0.32453938  1
  Zn  Zn85  1  0.30189710  0.31396054  0.81210107  1
  Zn  Zn86  1  0.30854910  0.80239396  0.31202096  1
  Zn  Zn87  1  0.31042898  0.81057619  0.82355907  1
  Zn  Zn88  1  0.76461433  0.32300820  0.35166083  1
  Zn  Zn89  1  0.81531509  0.30524906  0.82211225  1
  Zn  Zn90  1  0.80325238  0.81493232  0.32941672  1
  Zn  Zn91  1  0.80617477  0.81752796  0.81270079  1
  Zn  Zn92  1  0.18438917  0.44891165  0.44303327  1
  Zn  Zn93  1  0.18444898  0.43648424  0.93502591  1
  Zn  Zn94  1  0.18285707  0.93047790  0.44134175  1
  Zn  Zn95  1  0.18637067  0.92874233  0.94085995  1
  Zn  Zn96  1  0.67670181  0.45582104  0.42917509  1
  Zn  Zn97  1  0.69074393  0.43610119  0.94220272  1
  Zn  Zn98  1  0.70413042  1.00243201  0.46404731  1
  Zn  Zn99  1  0.68519256  0.97084533  0.94656448  1
  Zn  Zn100  1  0.30869467  0.06149919  0.06841682  1
  Zn  Zn101  1  0.31549046  0.05474143  0.57442695  1
  Zn  Zn102  1  0.30917829  0.55929540  0.06805919  1
  Zn  Zn103  1  0.34969562  0.55477573  0.56352794  1
  Zn  Zn104  1  0.80493470  0.08111046  0.06458289  1
  Zn  Zn105  1  0.82859131  0.05675619  0.58228215  1
  Zn  Zn106  1  0.81370143  0.56570209  0.06618235  1
  Zn  Zn107  1  0.85247852  0.60148003  0.51095631  1
  Zn  Zn108  1  0.43709839  0.44234478  0.18170407  1
  Zn  Zn109  1  0.43195313  0.42229279  0.68441311  1
  Zn  Zn110  1  0.40814281  0.91187280  0.21910545  1
  Zn  Zn111  1  0.42751489  0.93903150  0.68618712  1
  Zn  Zn112  1  0.94446669  0.44716909  0.18654353  1
  Zn  Zn113  1  0.94983600  0.43595598  0.68807216  1
  Zn  Zn114  1  0.91409642  0.89567121  0.21452572  1
  Zn  Zn115  1  0.93593088  0.93217839  0.69505946  1
  Zn  Zn116  1  0.18334534  0.05281108  0.30520695  1
  Zn  Zn117  1  0.06269975  0.05900343  0.81911568  1
  Zn  Zn118  1  0.07495846  0.55410764  0.31883687  1
  Zn  Zn119  1  0.05951550  0.56258016  0.80808023  1
  Zn  Zn120  1  0.56697081  0.05305538  0.34078712  1
  Zn  Zn121  1  0.55203026  0.06065379  0.69464603  1
  Zn  Zn122  1  0.56648682  0.56413738  0.30821378  1
  Zn  Zn123  1  0.56116295  0.55970773  0.80701034  1
  Zn  Zn124  1  0.38142289  0.16058656  0.44953847  1
  Zn  Zn125  1  0.42692015  0.19183535  0.93190139  1
  Zn  Zn126  1  0.45631905  0.67443773  0.42539979  1
  Zn  Zn127  1  0.43558223  0.69159658  0.93468028  1
  Zn  Zn128  1  0.91684254  0.22429150  0.38527975  1
  Zn  Zn129  1  0.93993754  0.18711391  0.93896782  1
  Zn  Zn130  1  0.94820382  0.63115240  0.36857835  1
  Zn  Zn131  1  0.93598614  0.68769807  0.93321008  1
  Zn  Zn132  1  0.06154691  0.32224989  0.05719573  1
  Zn  Zn133  1  0.05721983  0.32260227  0.54908867  1
  Zn  Zn134  1  0.05695657  0.80821471  0.06160345  1
  Zn  Zn135  1  0.06617002  0.80504049  0.56914492  1
  Zn  Zn136  1  0.56445866  0.31190796  0.05607375  1
  Zn  Zn137  1  0.58114827  0.30405369  0.55961389  1
  Zn  Zn138  1  0.58467291  0.84992851  0.03953746  1
  Zn  Zn139  1  0.55289436  0.83011370  0.56429808  1
  O  O140  1  0.12747362  0.10187059  0.11971613  1
  O  O141  1  0.13210504  0.10266723  0.62663878  1
  O  O142  1  0.11570197  0.62186964  0.11675922  1
  O  O143  1  0.19161115  0.59377521  0.60394645  1
  O  O144  1  0.61202799  0.12723571  0.16100630  1
  O  O145  1  0.60318373  0.15460233  0.63736651  1
  O  O146  1  0.61623245  0.62212606  0.10899704  1
  O  O147  1  0.60901630  0.60889126  0.63978996  1
  O  O148  1  0.36373782  0.36945101  0.39358887  1
  O  O149  1  0.38364497  0.38415640  0.88394237  1
  O  O150  1  0.38597420  0.87969873  0.33489696  1
  O  O151  1  0.37934534  0.87566680  0.89107386  1
  O  O152  1  0.87496439  0.32713652  0.36412098  1
  O  O153  1  0.88551578  0.38899679  0.86554887  1
  O  O154  1  0.88562435  0.88424391  0.39353815  1
  O  O155  1  0.88022729  0.88310352  0.88304210  1
  O  O156  1  0.24673648  -0.01071729  0.36971391  1
  O  O157  1  0.24954440  0.00332961  0.87813222  1
  O  O158  1  0.24980128  0.50176316  0.35663522  1
  O  O159  1  0.26669891  0.49864597  0.88207420  1
  O  O160  1  0.78082662  0.00104225  0.38045564  1
  O  O161  1  0.76229546  -0.01452989  0.86033303  1
  O  O162  1  0.74239628  0.50973226  0.34827275  1
  O  O163  1  0.75958976  0.50931538  0.87951848  1
  O  O164  1  0.23315096  0.50772912  0.13646473  1
  O  O165  1  0.24006108  0.53112975  0.61204682  1
  O  O166  1  0.23023356  0.98092528  0.10775195  1
  O  O167  1  0.24453831  0.98633731  0.63938909  1
  O  O168  1  0.73574012  0.50676177  0.12670814  1
  O  O169  1  0.74458633  0.48779451  0.64436237  1
  O  O170  1  0.75408157  0.98787918  0.13612005  1
  O  O171  1  0.75482142  0.99357018  0.64569810  1
  O  O172  1  0.00982881  0.38669014  0.25733713  1
  O  O173  1  0.01616787  0.37983413  0.76605068  1
  O  O174  1  0.00911428  0.87753116  0.27668856  1
  O  O175  1  -0.00623410  0.86348521  0.76781896  1
  O  O176  1  0.49913489  0.41355226  0.27659407  1
  O  O177  1  0.49907546  0.37213283  0.76458165  1
  O  O178  1  0.51060082  0.85930670  0.23131867  1
  O  O179  1  0.49047803  0.87225901  0.76097943  1
  O  O180  1  0.50518832  0.12156139  0.24194655  1
  O  O181  1  0.47984189  0.11721451  0.76393479  1
  O  O182  1  0.49823880  0.63338273  0.24011892  1
  O  O183  1  0.48955639  0.62240826  0.74482834  1
  O  O184  1  1.10992926  0.13826017  0.27317254  1
  O  O185  1  0.99264272  0.12541869  0.75642940  1
  O  O186  1  0.99377277  0.62925352  0.25257373  1
  O  O187  1  0.99543752  0.63757250  0.75637258  1
  O  O188  1  0.36575222  0.25716022  0.00972719  1
  O  O189  1  0.34678334  0.25750560  0.49698132  1
  O  O190  1  0.35721685  0.75443086  -0.00508456  1
  O  O191  1  0.34887873  0.71900000  0.49039293  1
  O  O192  1  0.87257314  0.26445822  -0.01804739  1
  O  O193  1  0.85311570  0.23540461  0.52234614  1
  O  O194  1  0.86309076  0.76201613  -0.01408214  1
  O  O195  1  0.84198110  0.77429347  0.49966997  1
  O  O196  1  0.12749289  0.23218570  0.52292245  1
  O  O197  1  0.13399585  0.25902784  0.99276851  1
  O  O198  1  0.12087703  0.74516937  0.49008464  1
  O  O199  1  0.12944074  0.73596457  0.99617494  1
  O  O200  1  0.66317604  0.24710799  0.50676033  1
  O  O201  1  0.62726519  0.24268944  0.99660208  1
  O  O202  1  0.62948788  0.76830942  0.50204720  1
  O  O203  1  0.63098711  0.74635555  0.98977931  1
  O  O204  1  0.48752314  0.25781213  0.12652617  1
  O  O205  1  0.54438935  0.20788385  0.62300733  1
  O  O206  1  0.50102878  0.73760839  0.13218289  1
  O  O207  1  0.51300827  0.74625126  0.63314407  1
  O  O208  1  0.96851471  0.28433363  0.12208312  1
  O  O209  1  0.97844821  0.26345819  0.61423024  1
  O  O210  1  1.00497888  0.73587183  0.13030879  1
  O  O211  1  1.00628519  0.75755706  0.65094716  1
  O  O212  1  0.03304269  0.24407180  0.38255065  1
  O  O213  1  0.01314314  0.25899415  0.87903108  1
  O  O214  1  -0.00675813  0.75394876  0.38141037  1
  O  O215  1  0.00897183  0.75069355  0.86681811  1
  O  O216  1  0.60575557  0.31037240  0.28762883  1
  O  O217  1  0.50023931  0.26885183  0.88775949  1
  O  O218  1  0.48994478  0.75947901  0.35491518  1
  O  O219  1  0.50586968  0.76397664  0.88223144  1
  O  O220  1  0.24199526  0.13450881  0.51585509  1
  O  O221  1  0.25234044  0.13824810  0.99332096  1
  O  O222  1  0.30148478  0.66341624  0.50532672  1
  O  O223  1  0.24415311  0.63543596  1.00839578  1
  O  O224  1  0.74486014  0.10318991  0.51916681  1
  O  O225  1  0.71680721  0.06786417  0.99690345  1
  O  O226  1  0.73454563  0.64524116  0.51348368  1
  O  O227  1  0.74187361  0.63239799  0.99148554  1
  O  O228  1  0.25923760  0.36279911  -0.00913441  1
  O  O229  1  0.22523488  0.36197620  0.50751144  1
  O  O230  1  0.25216042  0.85973670  0.00813520  1
  O  O231  1  0.25894496  0.87950141  0.50888751  1
  O  O232  1  0.74708184  0.36679161  0.00988697  1
  O  O233  1  0.75981629  0.38481828  0.52181874  1
  O  O234  1  0.75366244  0.87306996  0.01151006  1
  O  O235  1  0.75836794  0.90154340  0.52067626  1
  O  O236  1  0.13591619  0.49491884  0.24069566  1
  O  O237  1  0.12990007  0.49132699  0.75593601  1
  O  O238  1  0.12423091  0.98046989  0.23011979  1
  O  O239  1  0.13029787  0.99966182  0.74549927  1
  O  O240  1  0.63218929  0.50847328  0.22942870  1
  O  O241  1  0.61834330  0.48191783  0.74329508  1
  O  O242  1  0.61730314  0.99112478  0.25301880  1
  O  O243  1  0.63753045  1.01523360  0.75790041  1
  O  O244  1  0.38097177  0.01995191  0.21473139  1
  O  O245  1  0.36243801  0.00348937  0.76810173  1
  O  O246  1  0.35972562  0.50429985  0.24250800  1
  O  O247  1  0.37393061  0.49092910  0.76419269  1
  O  O248  1  0.89339324  -0.00345742  0.26748287  1
  O  O249  1  0.87812288  0.01101470  0.75900322  1
  O  O250  1  0.85616355  0.49906800  0.23002449  1
  O  O251  1  0.87430120  0.50447256  0.75350457  1
  O  O252  1  0.12600086  0.38901155  0.36018657  1
  O  O253  1  0.11702539  0.36845174  0.87085553  1
  O  O254  1  0.11021843  0.86107161  0.37823404  1
  O  O255  1  0.11457656  0.85400545  0.88488622  1
  O  O256  1  0.66137405  0.35411640  0.38473319  1
  O  O257  1  0.61106957  0.38570836  0.86974462  1
  O  O258  1  0.59720169  0.87460268  0.35394347  1
  O  O259  1  0.60861685  0.86816739  0.87112707  1
  O  O260  1  0.37462624  0.14333057  0.12142204  1
  O  O261  1  0.36366198  0.12272635  0.65355908  1
  O  O262  1  0.38595139  0.61380945  0.13639695  1
  O  O263  1  0.39310623  0.62567158  0.64142944  1
  O  O264  1  0.89740525  0.10966559  0.12704073  1
  O  O265  1  0.88051786  0.13639430  0.64458182  1
  O  O266  1  0.89206596  0.62326762  0.12144783  1
  O  O267  1  0.85022504  0.61166062  0.62861311  1
  O  O268  1  0.24484826  0.24961183  0.10936396  1
  O  O269  1  0.24503687  0.25497949  0.62635748  1
  O  O270  1  0.23864004  0.75852416  0.11277446  1
  O  O271  1  0.23599089  0.76725709  0.62571287  1
  O  O272  1  0.75919878  0.19960742  0.07209848  1
  O  O273  1  0.75870849  0.26617543  0.63527331  1
  O  O274  1  0.74597841  0.75323896  0.10727584  1
  O  O275  1  0.73758594  0.77287068  0.61578958  1
  O  O276  1  0.21648435  0.24396547  0.37959083  1
  O  O277  1  0.23828432  0.24252373  0.88569777  1
  O  O278  1  0.23949758  0.75467904  0.38218582  1
  O  O279  1  0.23487003  0.75130476  0.89109014  1
  O  O280  1  0.76156586  0.20653160  0.38982216  1
  O  O281  1  0.74557129  0.24495697  0.89117182  1
  O  O282  1  0.73477806  0.74412052  0.38664723  1
  O  O283  1  0.74090566  0.74272548  0.88078316  1
  O  O284  1  -0.00220573  0.10672680  -0.00323218  1
  O  O285  1  0.01047450  0.10679090  0.51506752  1
  O  O286  1  0.00837450  0.62749198  0.00362379  1
  O  O287  1  -0.03078927  0.61141880  0.49213510  1
  O  O288  1  0.52522549  0.11891235  -0.04162251  1
  O  O289  1  0.50865853  0.21379442  0.41381133  1
  O  O290  1  0.50355296  0.62105599  0.00122234  1
  O  O291  1  0.49288655  0.63314914  0.52287704  1
  O  O292  1  0.49254396  0.34790272  0.50449320  1
  O  O293  1  0.49114081  0.38701914  0.99376844  1
  O  O294  1  0.48619298  0.87258844  0.48001329  1
  O  O295  1  0.47249075  0.85773730  1.01634650  1
  O  O296  1  1.00737468  0.40024636  0.48754346  1
  O  O297  1  1.00537935  0.38253250  0.97918699  1
  O  O298  1  0.98776425  0.86806813  0.50045716  1
  O  O299  1  0.98890345  0.87225009  0.99135578  1
  O  O300  1  0.49677289  0.47058758  0.33427178  1
  O  O301  1  0.49195538  0.49341922  0.88382459  1
  O  O302  1  0.47796145  0.98100211  0.36307896  1
  O  O303  1  0.48231221  0.97925788  0.87977697  1
  O  O304  1  0.98560735  0.51534126  0.37324124  1
  O  O305  1  0.98523723  0.49650069  0.87354539  1
  O  O306  1  0.99852632  0.98632155  0.40216897  1
  O  O307  1  0.99651214  0.98826097  0.88485453  1
  O  O308  1  0.00832567  -0.01176510  0.11002233  1
  O  O309  1  0.01424606  -0.01507383  0.62504211  1
  O  O310  1  0.01746979  0.51889847  0.13282127  1
  O  O311  1  0.00507048  0.50312072  0.61547269  1
  O  O312  1  0.53528499  0.10974497  0.16762726  1
  O  O313  1  0.50141099  -0.00746112  0.62168691  1
  O  O314  1  0.50884342  0.51033632  0.11346202  1
  O  O315  1  0.50995115  0.48879704  0.62691505  1
  O  O316  1  0.24781805  0.38549398  0.24860251  1
  O  O317  1  0.23546343  0.38235093  0.75355722  1
  O  O318  1  0.24209414  0.86776444  0.23239308  1
  O  O319  1  0.24862608  0.88454898  0.76218202  1
  O  O320  1  0.75069775  0.38424149  0.24528434  1
  O  O321  1  0.74064928  0.37719552  0.76257270  1
  O  O322  1  0.73276942  0.87202427  0.24595278  1
  O  O323  1  0.74936519  0.88592817  0.73931664  1
  O  O324  1  0.25959576  0.11785536  0.23306459  1
  O  O325  1  0.25212035  0.11305778  0.76976127  1
  O  O326  1  0.26304803  0.62500479  0.24487791  1
  O  O327  1  0.27631625  0.61397497  0.74841442  1
  O  O328  1  0.87560585  0.15891781  0.19053245  1
  O  O329  1  0.76145217  0.11253145  0.75086549  1
  O  O330  1  0.74873743  0.63618660  0.25590089  1
  O  O331  1  0.74681408  0.62246938  0.75684117  1
  O  O332  1  0.37838606  0.12383508  0.33996536  1
  O  O333  1  0.36214451  0.11215146  0.87977591  1
  O  O334  1  0.39249880  0.60962056  0.35237781  1
  O  O335  1  0.38605685  0.61035852  0.86637080  1
  O  O336  1  0.89829710  0.11284702  0.38176573  1
  O  O337  1  0.88024042  0.11329347  0.86790437  1
  O  O338  1  0.83619863  0.62581216  0.39440689  1
  O  O339  1  0.86383752  0.61312662  0.88095671  1
  O  O340  1  0.11627820  0.39412656  0.12897350  1
  O  O341  1  0.11437776  0.36931101  0.64291580  1
  O  O342  1  0.12705134  0.87122169  0.13075631  1
  O  O343  1  0.13789530  0.88686883  0.62244695  1
  O  O344  1  0.61550107  0.39351261  0.11961656  1
  O  O345  1  0.63809871  0.37726129  0.64046325  1
  O  O346  1  0.64035492  0.87171740  0.13742301  1
  O  O347  1  0.63120482  0.89160237  0.62459206  1
  O  O348  1  0.13115648  0.27722932  0.24693868  1
  O  O349  1  0.13224096  0.25965741  0.76506422  1
  O  O350  1  0.12939321  0.76174548  0.26199347  1
  O  O351  1  0.13344805  0.73296815  0.76756188  1
  O  O352  1  0.63234860  0.24641929  0.26670822  1
  O  O353  1  0.62835266  0.26661254  0.76714928  1
  O  O354  1  0.61199055  0.74759444  0.24812866  1
  O  O355  1  0.62882180  0.74167290  0.76388092  1
  O  O356  1  0.36292278  0.24570271  0.23232047  1
  O  O357  1  0.36945829  0.23408061  0.77210945  1
  O  O358  1  0.38105183  0.73362934  0.24544576  1
  O  O359  1  0.37441784  0.73837092  0.76411375  1
  O  O360  1  0.93329129  0.18157276  0.23157247  1
  O  O361  1  0.87454778  0.23682546  0.74939354  1
  O  O362  1  0.87699565  0.79356522  0.25037486  1
  O  O363  1  0.87839272  0.74787156  0.75691127  1
  O  O364  1  0.38668336  0.48122907  0.49025735  1
  O  O365  1  0.38038273  0.49648113  0.99491608  1
  O  O366  1  0.39262026  1.05097581  0.48815097  1
  O  O367  1  0.36418793  0.98306157  0.99798946  1
  O  O368  1  0.89243423  0.49263760  0.49320926  1
  O  O369  1  0.87185033  0.49706348  0.98982104  1
  O  O370  1  0.89274574  0.99193357  0.51249613  1
  O  O371  1  0.88553563  0.99172650  0.99230108  1
  O  O372  1  0.10924364  -0.01238379  0.00475338  1
  O  O373  1  0.11958877  0.00233975  0.51752859  1
  O  O374  1  0.13337412  0.51307428  0.01001523  1
  O  O375  1  0.11026158  0.52097331  0.48769661  1
  O  O376  1  0.59254620  -0.04295121  0.00368245  1
  O  O377  1  0.59795398  0.03275706  0.45068592  1
  O  O378  1  0.61752842  0.51108018  0.00291103  1
  O  O379  1  0.63175814  0.49235687  0.52561138  1
  O  O380  1  0.37750176  0.36852665  0.11396322  1
  O  O381  1  0.36867091  0.37861630  0.60270135  1
  O  O382  1  0.35291139  0.87634409  0.11934612  1
  O  O383  1  0.35676714  0.87096063  0.63354474  1
  O  O384  1  0.91259081  0.33516348  0.13202126  1
  O  O385  1  0.86529380  0.36484407  0.64373119  1
  O  O386  1  0.86198287  0.87828690  0.11256568  1
  O  O387  1  0.87263617  0.87405711  0.62014297  1
  O  O388  1  0.12808664  0.11619365  0.41214472  1
  O  O389  1  0.12834133  0.13935142  0.87320504  1
  O  O390  1  0.12709483  0.64199426  0.36482128  1
  O  O391  1  0.11871208  0.63127497  0.89070479  1
  O  O392  1  0.56791385  0.17521147  0.39028123  1
  O  O393  1  0.57360179  0.11740700  0.89892352  1
  O  O394  1  0.63637937  0.61470808  0.38006440  1
  O  O395  1  0.62955000  0.62783790  0.88242855  1
