# generated using pymatgen
data_V35Zn35O128
_symmetry_space_group_name_H-M   'P 1'
_cell_length_a   16.86147338
_cell_length_b   16.86772141
_cell_length_c   16.90799191
_cell_angle_alpha   89.80643934
_cell_angle_beta   89.96405295
_cell_angle_gamma   90.01626401
_symmetry_Int_Tables_number   1
_chemical_formula_structural   V35Zn35O128
_chemical_formula_sum   'V70 Zn70 O256'
_cell_volume   4808.85177488
_cell_formula_units_Z   2
loop_
 _symmetry_equiv_pos_site_id
 _symmetry_equiv_pos_as_xyz
  1  'x, y, z'
loop_
 _atom_site_type_symbol
 _atom_site_label
 _atom_site_symmetry_multiplicity
 _atom_site_fract_x
 _atom_site_fract_y
 _atom_site_fract_z
 _atom_site_occupancy
  V  V0  1  0.50952186  0.37362978  0.37003892  1
  V  V1  1  0.38157974  0.50432897  0.37987227  1
  V  V2  1  0.00853336  0.50436082  0.49331007  1
  V  V3  1  0.74768616  0.63449205  0.87875688  1
  V  V4  1  0.00693287  0.13148515  0.62423366  1
  V  V5  1  0.73764204  0.39227881  0.13263984  1
  V  V6  1  0.74416557  0.37835449  0.61920289  1
  V  V7  1  0.00677133  0.75601417  0.75272291  1
  V  V8  1  0.74261506  0.11038265  0.36048323  1
  V  V9  1  0.11508193  0.37350921  0.25526453  1
  V  V10  1  0.63375904  0.63876236  0.00297080  1
  V  V11  1  0.51409563  0.49907019  0.01012315  1
  V  V12  1  0.61790081  0.88731498  0.25310635  1
  V  V13  1  0.50591514  0.49470677  0.51687434  1
  V  V14  1  0.39205945  -0.00142853  0.87940895  1
  V  V15  1  0.61920716  0.86026297  0.76432940  1
  V  V16  1  0.74147518  0.00069284  0.73983499  1
  V  V17  1  0.49180875  0.24559315  0.73750407  1
  V  V18  1  0.25913041  0.11905916  0.38398092  1
  V  V19  1  0.11979062  0.24947141  0.37555478  1
  V  V20  1  0.25703015  0.50366599  0.25303019  1
  V  V21  1  0.87808651  0.37728889  0.49220817  1
  V  V22  1  0.23707550  0.62677404  0.37909998  1
  V  V23  1  0.89431134  0.37164265  -0.00487851  1
  V  V24  1  0.87137726  0.25408343  0.62735620  1
  V  V25  1  0.12359013  0.85441933  0.26073515  1
  V  V26  1  0.74451261  0.25633729  -0.00294662  1
  V  V27  1  0.87546036  0.12842969  0.75052395  1
  V  V28  1  0.23567541  -0.00334633  0.76287997  1
  V  V29  1  0.26412525  0.87184321  0.62859327  1
  V  V30  1  0.87458066  0.25059402  0.13331859  1
  V  V31  1  0.38091064  0.12921977  0.25278492  1
  V  V32  1  0.01770396  0.62838946  0.61241200  1
  V  V33  1  0.26964604  0.26247885  0.50010578  1
  V  V34  1  -0.01087562  0.86486299  0.37188563  1
  V  V35  1  0.63235855  0.14975369  0.50547471  1
  V  V36  1  0.25415825  0.85856215  0.13143720  1
  V  V37  1  0.88645865  0.49805314  0.87934295  1
  V  V38  1  0.51898675  -0.00096933  0.49780181  1
  V  V39  1  0.11990485  0.49772667  0.11305330  1
  V  V40  1  0.75638603  0.74862840  0.48771770  1
  V  V41  1  0.88784780  -0.00608209  0.87911880  1
  V  V42  1  0.24018603  0.75202419  0.49688982  1
  V  V43  1  0.38165754  0.87839406  0.47576851  1
  V  V44  1  0.50196021  0.65105911  0.63981168  1
  V  V45  1  0.37460272  0.37586425  0.00322140  1
  V  V46  1  0.02666657  0.09693574  0.12890572  1
  V  V47  1  0.49184673  0.63989756  0.12576563  1
  V  V48  1  0.25953255  0.36576397  0.13413393  1
  V  V49  1  0.12347333  0.37948627  0.74885010  1
  V  V50  1  0.74291224  0.49431024  0.75100062  1
  V  V51  1  0.49460295  0.76042339  0.27066906  1
  V  V52  1  0.61967895  0.64002662  0.49731768  1
  V  V53  1  0.35792211  0.63249838  0.75158515  1
  V  V54  1  0.86431078  0.51468701  0.36283114  1
  V  V55  1  0.87136454  0.62831738  0.73465206  1
  V  V56  1  0.49691577  0.13065596  0.10692125  1
  V  V57  1  0.11641511  -0.02141933  0.62590980  1
  V  V58  1  0.51388977  0.25279658  0.25065765  1
  V  V59  1  0.77800903  0.92666970  0.13320574  1
  V  V60  1  0.88681483  0.85220316  -0.00366367  1
  V  V61  1  0.84890236  0.73339434  0.15374192  1
  V  V62  1  -0.01737917  -0.00312440  0.49202404  1
  V  V63  1  0.75245792  0.85799864  0.62299491  1
  V  V64  1  0.50271538  0.37588883  0.87556095  1
  V  V65  1  0.60752970  0.00184420  0.10328612  1
  V  V66  1  0.74696232  0.12052515  0.88664999  1
  V  V67  1  0.24848262  0.24634692  -0.01053562  1
  V  V68  1  0.24535192  0.00400360  0.24269502  1
  V  V69  1  0.01605510  0.64496369  0.11841777  1
  Zn  Zn70  1  0.12545092  0.12306989  0.49687836  1
  Zn  Zn71  1  0.37360500  0.12426834  0.74973658  1
  Zn  Zn72  1  0.61771055  0.37560377  0.74532752  1
  Zn  Zn73  1  0.37922563  0.51021632  0.87768834  1
  Zn  Zn74  1  0.61815280  0.24478894  0.87505412  1
  Zn  Zn75  1  -0.01872349  0.23137730  0.25774245  1
  Zn  Zn76  1  0.18982815  0.18574627  0.19159038  1
  Zn  Zn77  1  0.22875976  0.15349654  0.65451790  1
  Zn  Zn78  1  0.18281524  0.68075414  0.19127828  1
  Zn  Zn79  1  0.18559532  0.69619193  0.68420062  1
  Zn  Zn80  1  0.68918122  0.18278230  0.17752111  1
  Zn  Zn81  1  0.68297616  0.19274125  0.69240894  1
  Zn  Zn82  1  0.66287162  0.68768203  0.19421644  1
  Zn  Zn83  1  0.67954329  0.68563035  0.68687813  1
  Zn  Zn84  1  0.32073083  0.31205567  0.32245281  1
  Zn  Zn85  1  0.31709025  0.31681688  0.81575222  1
  Zn  Zn86  1  0.31272253  0.80595942  0.30794549  1
  Zn  Zn87  1  0.31794560  0.81506580  0.80833542  1
  Zn  Zn88  1  0.79997549  0.32090501  0.31151528  1
  Zn  Zn89  1  0.81765413  0.31204854  0.81469625  1
  Zn  Zn90  1  0.80009966  0.82592800  0.31004348  1
  Zn  Zn91  1  0.81710391  0.81479417  0.80880228  1
  Zn  Zn92  1  0.18970092  0.43684649  0.43583898  1
  Zn  Zn93  1  0.15056773  0.38817678  0.96042790  1
  Zn  Zn94  1  0.18319930  0.93945420  0.44055709  1
  Zn  Zn95  1  0.27123301  0.91963662  0.95334395  1
  Zn  Zn96  1  0.68300852  0.44682789  0.43648888  1
  Zn  Zn97  1  0.68981200  0.43947515  0.93555991  1
  Zn  Zn98  1  0.70102206  0.94056195  0.43825890  1
  Zn  Zn99  1  0.69987964  0.93081752  0.94410782  1
  Zn  Zn100  1  0.31817349  0.06627504  0.06624282  1
  Zn  Zn101  1  0.36620361  0.05063007  0.57562711  1
  Zn  Zn102  1  0.31632362  0.55471644  0.07032631  1
  Zn  Zn103  1  0.32798947  0.57625325  0.55865728  1
  Zn  Zn104  1  0.84936781  0.07098535  0.06593147  1
  Zn  Zn105  1  0.80532722  0.07053004  0.55889663  1
  Zn  Zn106  1  0.82570148  0.56591280  0.06278305  1
  Zn  Zn107  1  0.80526686  0.56001753  0.55229628  1
  Zn  Zn108  1  0.44077511  0.44087107  0.19102224  1
  Zn  Zn109  1  0.43189674  0.44847859  0.70158864  1
  Zn  Zn110  1  0.43213066  0.94260895  0.19151348  1
  Zn  Zn111  1  0.44487667  0.94198996  0.68967738  1
  Zn  Zn112  1  0.93194259  0.43329481  0.18368680  1
  Zn  Zn113  1  0.93067593  0.45036273  0.67806304  1
  Zn  Zn114  1  0.96230386  0.91205208  0.16395418  1
  Zn  Zn115  1  0.93074142  0.93847793  0.68710159  1
  Zn  Zn116  1  0.06067852  0.06315165  0.31209107  1
  Zn  Zn117  1  0.06308155  0.07024108  0.81199904  1
  Zn  Zn118  1  0.05377210  0.56321504  0.30631295  1
  Zn  Zn119  1  0.06043950  0.56433838  0.79746635  1
  Zn  Zn120  1  0.56411061  0.05863998  0.31909511  1
  Zn  Zn121  1  0.56183919  0.06361958  0.81478307  1
  Zn  Zn122  1  0.55576632  0.57664962  0.31497575  1
  Zn  Zn123  1  0.56159017  0.56598521  0.81712346  1
  Zn  Zn124  1  0.44765912  0.18370437  0.44103205  1
  Zn  Zn125  1  0.42047614  0.19062372  0.92558182  1
  Zn  Zn126  1  0.42945150  0.68875617  0.44673432  1
  Zn  Zn127  1  0.43019389  0.68155046  0.94058656  1
  Zn  Zn128  1  0.93346341  0.18989111  0.44404920  1
  Zn  Zn129  1  0.95530476  0.16770046  0.94420427  1
  Zn  Zn130  1  0.93275065  0.68436844  0.43149327  1
  Zn  Zn131  1  0.95355609  0.67168318  0.93646953  1
  Zn  Zn132  1  0.07002367  0.28748305  0.07679015  1
  Zn  Zn133  1  0.06313700  0.31472098  0.55797156  1
  Zn  Zn134  1  0.09362046  0.83163435  0.04767364  1
  Zn  Zn135  1  0.04748768  0.80532179  0.55173536  1
  Zn  Zn136  1  0.56385156  0.31001103  0.06692887  1
  Zn  Zn137  1  0.55946020  0.31456406  0.55901169  1
  Zn  Zn138  1  0.56950497  0.81332380  0.06125158  1
  Zn  Zn139  1  0.56697429  0.82724254  0.57099089  1
  O  O140  1  0.11668208  0.14522020  0.11558476  1
  O  O141  1  0.11224576  0.12192026  0.62294063  1
  O  O142  1  0.12910887  0.60622143  0.12055862  1
  O  O143  1  0.11645547  0.62364061  0.62097188  1
  O  O144  1  0.60587079  0.11766518  0.12226586  1
  O  O145  1  0.63655376  0.13668756  0.60648706  1
  O  O146  1  0.61273014  0.62559654  0.10654279  1
  O  O147  1  0.60721106  0.62636195  0.61946857  1
  O  O148  1  0.38863384  0.39234818  0.37242188  1
  O  O149  1  0.38298796  0.38495336  0.88580859  1
  O  O150  1  0.37501012  0.87545271  0.37674528  1
  O  O151  1  0.35760961  0.89165616  0.87987764  1
  O  O152  1  0.87057764  0.37271007  0.39161469  1
  O  O153  1  0.88016788  0.38338027  0.88211762  1
  O  O154  1  0.89054972  0.88015458  0.35751069  1
  O  O155  1  0.86524023  0.88345243  0.88834086  1
  O  O156  1  0.24484677  0.01662667  0.37173070  1
  O  O157  1  0.21766705  -0.02575551  0.85858852  1
  O  O158  1  0.26150553  0.50760542  0.37546238  1
  O  O159  1  0.21028410  0.53091056  0.87482053  1
  O  O160  1  0.76528567  0.01151417  0.37612111  1
  O  O161  1  0.75873597  0.01242607  0.87252284  1
  O  O162  1  0.76500652  0.49554303  0.37876077  1
  O  O163  1  0.75958082  0.50159353  0.86323933  1
  O  O164  1  0.24241054  0.49285919  0.13614150  1
  O  O165  1  0.28151666  0.47019025  0.61355784  1
  O  O166  1  0.25034715  1.00483119  0.14079027  1
  O  O167  1  0.22978936  0.98188923  0.62981858  1
  O  O168  1  0.75862022  0.49055220  0.11580919  1
  O  O169  1  0.75784112  0.48912985  0.63957431  1
  O  O170  1  0.72217716  1.01230239  0.12033481  1
  O  O171  1  0.75082547  1.00458565  0.63941594  1
  O  O172  1  0.01589502  0.37264141  0.24811481  1
  O  O173  1  0.01746789  0.38820261  0.73949737  1
  O  O174  1  0.01425241  0.87393158  0.25946254  1
  O  O175  1  -0.01960336  0.85405566  0.74582786  1
  O  O176  1  0.49720160  0.36282651  0.25488460  1
  O  O177  1  0.49697129  0.37247570  0.76089758  1
  O  O178  1  0.50477054  0.87305518  0.25259156  1
  O  O179  1  0.52049429  0.88490456  0.75007369  1
  O  O180  1  0.49203546  0.13609403  0.25986432  1
  O  O181  1  0.50131800  0.14169678  0.75244115  1
  O  O182  1  0.51718184  0.64792082  0.23333142  1
  O  O183  1  0.50449037  0.62836868  0.74189010  1
  O  O184  1  0.99912820  0.11839462  0.23085132  1
  O  O185  1  0.98675682  0.11363491  0.72821750  1
  O  O186  1  1.01373971  0.62513145  0.22207414  1
  O  O187  1  0.98822613  0.62459220  0.72966719  1
  O  O188  1  0.36704454  0.26858529  -0.00175947  1
  O  O189  1  0.36976254  0.24634734  0.49575430  1
  O  O190  1  0.32476188  0.71226290  0.00287269  1
  O  O191  1  0.36218128  0.76801999  0.49619927  1
  O  O192  1  0.87193270  0.25996093  0.00444922  1
  O  O193  1  0.88121830  0.26815922  0.51384706  1
  O  O194  1  0.88034023  0.75453314  -0.01871634  1
  O  O195  1  0.85528539  0.73868557  0.49928807  1
  O  O196  1  0.12385456  0.25162786  0.48273393  1
  O  O197  1  0.14367391  0.27630102  0.99493101  1
  O  O198  1  0.14038875  0.75806374  0.49528931  1
  O  O199  1  0.12728748  0.75396094  0.95246520  1
  O  O200  1  0.62491038  0.24965615  0.49203188  1
  O  O201  1  0.64116598  0.25142540  0.99651385  1
  O  O202  1  0.62512555  0.74380542  0.50806173  1
  O  O203  1  0.62940431  0.73799898  0.99618837  1
  O  O204  1  0.50289324  0.24047154  0.13848073  1
  O  O205  1  0.49603393  0.26531983  0.63902214  1
  O  O206  1  0.49217582  0.74002572  0.10714557  1
  O  O207  1  0.49784061  0.74938167  0.62809709  1
  O  O208  1  0.98174370  0.25094825  0.13252973  1
  O  O209  1  0.99363254  0.23635015  0.61774946  1
  O  O210  1  1.03802948  0.74288003  0.10960058  1
  O  O211  1  0.99561828  0.73328080  0.62529456  1
  O  O212  1  0.01378962  0.23691626  0.36982070  1
  O  O213  1  0.04519222  0.16136379  0.87835409  1
  O  O214  1  -0.00172990  0.76630900  0.38747424  1
  O  O215  1  0.00089423  0.72746793  0.85098175  1
  O  O216  1  0.49777676  0.26576197  0.36654861  1
  O  O217  1  0.49768568  0.26313466  0.87396775  1
  O  O218  1  0.49805597  0.74487272  0.36877354  1
  O  O219  1  0.48499453  0.78577103  0.91454527  1
  O  O220  1  0.24824625  0.13294524  0.48622519  1
  O  O221  1  0.25786781  0.15029845  1.01592697  1
  O  O222  1  0.25589881  0.63823938  0.49388766  1
  O  O223  1  0.27285606  0.65669353  1.01192460  1
  O  O224  1  0.73726381  0.12358141  0.48737025  1
  O  O225  1  0.76434583  0.13711915  0.98987319  1
  O  O226  1  0.73066672  0.63633685  0.50866706  1
  O  O227  1  0.74334935  0.61817582  0.99007944  1
  O  O228  1  0.25915456  0.37324616  0.01590997  1
  O  O229  1  0.25699215  0.36217703  0.48481776  1
  O  O230  1  0.21341855  0.86896665  0.03216126  1
  O  O231  1  0.25556132  0.86771450  0.50215734  1
  O  O232  1  0.75867611  0.36366460  -0.00616023  1
  O  O233  1  0.75996533  0.38709931  0.51434627  1
  O  O234  1  0.77506299  0.88965858  0.02911048  1
  O  O235  1  0.73914441  0.85960237  0.51363888  1
  O  O236  1  0.13695004  0.48449897  0.25464728  1
  O  O237  1  0.12737435  0.48534658  0.73847249  1
  O  O238  1  0.14445816  1.00823920  0.25569641  1
  O  O239  1  0.11945388  0.99778081  0.73337761  1
  O  O240  1  0.65598989  0.53308061  0.25849986  1
  O  O241  1  0.63995377  0.49814307  0.75533458  1
  O  O242  1  0.60802038  0.99170545  0.23381208  1
  O  O243  1  0.64082118  1.00219619  0.75637580  1
  O  O244  1  0.36473488  0.01756728  0.25384473  1
  O  O245  1  0.35474374  -0.00561058  0.76418200  1
  O  O246  1  0.36498486  0.49927298  0.25942897  1
  O  O247  1  0.37179592  0.51686697  0.76317544  1
  O  O248  1  0.86422277  -0.02058850  0.15197609  1
  O  O249  1  0.86227417  0.00780330  0.75868918  1
  O  O250  1  0.88154122  0.48953922  0.26595089  1
  O  O251  1  0.86800717  0.50845451  0.75911301  1
  O  O252  1  0.13112785  0.36238896  0.36367970  1
  O  O253  1  0.11455802  0.39162753  0.85211517  1
  O  O254  1  0.11463932  0.88567709  0.36491834  1
  O  O255  1  0.17047782  0.79018819  0.89763518  1
  O  O256  1  0.60927267  0.38778256  0.36944283  1
  O  O257  1  0.61319829  0.37347364  0.87552940  1
  O  O258  1  0.64309888  0.88929461  0.34942942  1
  O  O259  1  0.64248783  0.87712196  0.86351889  1
  O  O260  1  0.38951224  0.12470169  0.14078573  1
  O  O261  1  0.33997755  0.12937196  0.64276064  1
  O  O262  1  0.39398452  0.61742782  0.12732106  1
  O  O263  1  0.39337565  0.61907933  0.64007145  1
  O  O264  1  0.84679500  0.15470038  0.14252120  1
  O  O265  1  0.87638765  0.13601721  0.62942579  1
  O  O266  1  0.89377595  0.64286022  0.11863868  1
  O  O267  1  0.86320238  0.61972714  0.63579932  1
  O  O268  1  0.25268251  0.26496614  0.12822658  1
  O  O269  1  0.23547967  0.24909609  0.59592307  1
  O  O270  1  0.25476203  0.75912833  0.14750045  1
  O  O271  1  0.24552027  0.76435639  0.61066671  1
  O  O272  1  0.75231035  0.26417290  0.11075136  1
  O  O273  1  0.76034134  0.26776518  0.63547101  1
  O  O274  1  0.75183220  0.72398688  0.13119726  1
  O  O275  1  0.75121297  0.75480502  0.62455133  1
  O  O276  1  0.24360507  0.24179777  0.38041570  1
  O  O277  1  0.25658541  0.25157492  0.88928293  1
  O  O278  1  0.25299596  0.73496217  0.38068674  1
  O  O279  1  0.22962875  0.74624174  0.86765461  1
  O  O280  1  0.78279396  0.22289681  0.37666490  1
  O  O281  1  0.75453840  0.24045276  0.88306233  1
  O  O282  1  0.74509114  0.76163451  0.38917479  1
  O  O283  1  0.75678877  0.73192138  0.86907447  1
  O  O284  1  -0.03541320  0.11621504  0.04643536  1
  O  O285  1  -0.00281106  0.11570602  0.51020480  1
  O  O286  1  0.00351557  0.61407875  0.01886586  1
  O  O287  1  -0.00111636  0.61930214  0.50458179  1
  O  O288  1  0.48843110  0.14170175  0.00978174  1
  O  O289  1  0.52354658  0.11738337  0.49466830  1
  O  O290  1  0.50854159  0.61611723  0.00214201  1
  O  O291  1  0.50135038  0.61931079  0.51808098  1
  O  O292  1  0.50551675  0.38946581  0.48522786  1
  O  O293  1  0.49651994  0.38412743  0.99988670  1
  O  O294  1  0.48816458  0.88334003  0.50321462  1
  O  O295  1  0.49366041  0.84105578  0.96629127  1
  O  O296  1  0.98643691  0.38977965  0.50955537  1
  O  O297  1  0.99243521  0.36456918  1.00265125  1
  O  O298  1  0.99844436  0.88820391  0.48598233  1
  O  O299  1  0.98539932  0.87282230  1.01127773  1
  O  O300  1  0.49232093  0.49630595  0.36699922  1
  O  O301  1  0.50309939  0.49266036  0.88949773  1
  O  O302  1  0.49945394  1.00249494  0.39734783  1
  O  O303  1  0.49193769  0.99687932  0.87705848  1
  O  O304  1  0.98808379  0.50886775  0.38769740  1
  O  O305  1  0.98519159  0.51301223  0.86907799  1
  O  O306  1  0.99879470  1.00640441  0.38980118  1
  O  O307  1  0.98555405  0.99419442  0.86034767  1
  O  O308  1  0.03402656  -0.00331255  0.13087147  1
  O  O309  1  0.00324542  0.00315266  0.61541067  1
  O  O310  1  0.02003215  0.48884169  0.12983614  1
  O  O311  1  -0.00870455  0.51794964  0.60795814  1
  O  O312  1  0.49806972  0.01602061  0.11807466  1
  O  O313  1  0.47577620  0.00917604  0.60036354  1
  O  O314  1  0.50130166  0.50507648  0.11380395  1
  O  O315  1  0.49891200  0.48305051  0.61554252  1
  O  O316  1  0.25310940  0.38010966  0.24429418  1
  O  O317  1  0.22692551  0.37291854  0.75709072  1
  O  O318  1  0.24403820  0.88755935  0.25342612  1
  O  O319  1  0.24761664  0.87513146  0.73231939  1
  O  O320  1  0.74307807  0.37716295  0.23262150  1
  O  O321  1  0.75267558  0.38476700  0.74631122  1
  O  O322  1  0.73965233  0.88016612  0.22205471  1
  O  O323  1  0.74803525  0.88708071  0.74581198  1
  O  O324  1  0.26089394  0.12230028  0.25760544  1
  O  O325  1  0.23105912  0.09951613  0.75848987  1
  O  O326  1  0.24526838  0.61426036  0.26650503  1
  O  O327  1  0.25862276  0.62708142  0.73449051  1
  O  O328  1  0.73331586  0.11953196  0.26017531  1
  O  O329  1  0.75697244  0.12008311  0.75952139  1
  O  O330  1  0.70693400  0.59001022  0.25263087  1
  O  O331  1  0.75483388  0.61439436  0.75761320  1
  O  O332  1  0.36571561  0.12899841  0.36927650  1
  O  O333  1  0.37352116  0.10657336  0.86518751  1
  O  O334  1  0.37046902  0.61070442  0.37760412  1
  O  O335  1  0.37231770  0.62548849  0.86385680  1
  O  O336  1  0.84871204  0.16645893  0.36594000  1
  O  O337  1  0.87142164  0.11714874  0.86737581  1
  O  O338  1  0.86993227  0.61519371  0.36869966  1
  O  O339  1  0.86254387  0.61081474  0.87381920  1
  O  O340  1  0.13937279  0.37829433  0.13991145  1
  O  O341  1  0.12797113  0.36545447  0.64559168  1
  O  O342  1  0.13547488  0.87223416  0.15529244  1
  O  O343  1  0.11542845  0.87873663  0.61832124  1
  O  O344  1  0.63835405  0.38136120  0.11304652  1
  O  O345  1  0.64133058  0.37315199  0.62457477  1
  O  O346  1  0.61447193  0.89428653  0.12405631  1
  O  O347  1  0.64307427  0.87434107  0.64570138  1
  O  O348  1  0.12851278  0.26070980  0.25870832  1
  O  O349  1  0.11125060  0.27610799  0.76280636  1
  O  O350  1  0.13227446  0.75575920  0.26636688  1
  O  O351  1  0.10745019  0.75326753  0.74021348  1
  O  O352  1  0.61226869  0.24491078  0.24949778  1
  O  O353  1  0.61084097  0.25673661  0.75619436  1
  O  O354  1  0.60788267  0.77467754  0.23823738  1
  O  O355  1  0.62806592  0.75912009  0.75777858  1
  O  O356  1  0.38100512  0.23650114  0.25497207  1
  O  O357  1  0.38739654  0.25127869  0.75722717  1
  O  O358  1  0.39623226  0.75658719  0.24785069  1
  O  O359  1  0.37337774  0.73442180  0.75508336  1
  O  O360  1  0.87510895  0.27748828  0.23501975  1
  O  O361  1  0.87517323  0.24027292  0.74329881  1
  O  O362  1  0.85677566  0.74072411  0.25223843  1
  O  O363  1  0.87523353  0.73000566  0.75192562  1
  O  O364  1  0.39409472  0.50501106  0.48942686  1
  O  O365  1  0.38405599  0.49373223  0.99747131  1
  O  O366  1  0.36114172  0.97955744  0.49128103  1
  O  O367  1  0.35394341  1.00275068  0.98001466  1
  O  O368  1  0.87892911  0.49282856  0.49085325  1
  O  O369  1  0.87553421  0.48667051  0.98742541  1
  O  O370  1  0.88419538  1.00436725  0.50533178  1
  O  O371  1  0.87884797  1.00062245  0.98017582  1
  O  O372  1  0.11254453  0.02394289  -0.00613593  1
  O  O373  1  0.11532881  0.00362726  0.51384644  1
  O  O374  1  0.13053954  0.48406910  0.01485652  1
  O  O375  1  0.10772440  0.48989820  0.49355620  1
  O  O376  1  0.61915298  -0.00479534  0.00446583  1
  O  O377  1  0.61888242  -0.01317891  0.50725679  1
  O  O378  1  0.61633032  0.50557223  -0.00085813  1
  O  O379  1  0.60987781  0.51298597  0.49984205  1
  O  O380  1  0.36536135  0.38442973  0.12098935  1
  O  O381  1  0.32806545  0.41406900  0.63255483  1
  O  O382  1  0.35249201  0.88521272  0.12808366  1
  O  O383  1  0.36346303  0.88012248  0.62269446  1
  O  O384  1  0.86488123  0.37261365  0.10722660  1
  O  O385  1  0.86825147  0.37144927  0.62183069  1
  O  O386  1  0.87952898  0.83306988  0.11893970  1
  O  O387  1  0.85105010  0.88170061  0.62794011  1
  O  O388  1  0.13739689  0.13759086  0.37095516  1
  O  O389  1  0.13274431  0.07444698  0.94511207  1
  O  O390  1  0.13893923  0.61346584  0.37939691  1
  O  O391  1  0.15592416  0.58212663  0.87182513  1
  O  O392  1  0.63678608  0.12034986  0.38411829  1
  O  O393  1  0.64359119  0.12543240  0.87648048  1
  O  O394  1  0.61098036  0.63118075  0.39795384  1
  O  O395  1  0.63905813  0.61969557  0.88591561  1
