# generated using pymatgen
data_V35Zn35O128
_symmetry_space_group_name_H-M   'P 1'
_cell_length_a   16.97614649
_cell_length_b   16.92018297
_cell_length_c   16.91638457
_cell_angle_alpha   90.04121279
_cell_angle_beta   90.36260494
_cell_angle_gamma   89.69671013
_symmetry_Int_Tables_number   1
_chemical_formula_structural   V35Zn35O128
_chemical_formula_sum   'V70 Zn70 O256'
_cell_volume   4858.88740192
_cell_formula_units_Z   2
loop_
 _symmetry_equiv_pos_site_id
 _symmetry_equiv_pos_as_xyz
  1  'x, y, z'
loop_
 _atom_site_type_symbol
 _atom_site_label
 _atom_site_symmetry_multiplicity
 _atom_site_fract_x
 _atom_site_fract_y
 _atom_site_fract_z
 _atom_site_occupancy
  V  V0  1  -0.00805363  0.24506478  0.74551842  1
  V  V1  1  0.25932006  0.74396190  0.50600927  1
  V  V2  1  0.87356551  0.37924351  0.49232697  1
  V  V3  1  0.37153675  0.88525671  0.48938802  1
  V  V4  1  0.75599127  0.63730011  0.86407306  1
  V  V5  1  0.37440991  -0.01972846  0.88523774  1
  V  V6  1  0.85395093  0.75789914  0.62068564  1
  V  V7  1  0.75813191  0.74212047  0.01066129  1
  V  V8  1  0.00857423  0.75747173  0.26198300  1
  V  V9  1  0.53594518  0.50538923  0.51502414  1
  V  V10  1  0.25558165  0.37429144  0.62441534  1
  V  V11  1  0.87653105  0.24904720  0.61515539  1
  V  V12  1  0.59884593  0.75409132  0.90344169  1
  V  V13  1  0.24274281  0.01871572  0.74591043  1
  V  V14  1  0.38531703  0.61976280  0.75663081  1
  V  V15  1  -0.00297559  0.38156042  0.37317043  1
  V  V16  1  0.74728908  0.61949360  0.38398874  1
  V  V17  1  0.75359305  0.37236359  0.64841551  1
  V  V18  1  -0.01218302  0.00351574  -0.00003507  1
  V  V19  1  0.62807687  0.25550972  0.86004485  1
  V  V20  1  0.60713037  0.88498607  0.26609193  1
  V  V21  1  0.37497732  0.49030390  0.39853403  1
  V  V22  1  0.24123130  0.50255267  0.76283193  1
  V  V23  1  -0.02219122  0.87388245  0.87480870  1
  V  V24  1  0.61937642  0.51164132  0.14260267  1
  V  V25  1  0.42124806  0.38262109  -0.04273215  1
  V  V26  1  -0.00804316  0.64057789  0.63324000  1
  V  V27  1  0.73042325  0.88107615  0.11965977  1
  V  V28  1  0.87132620  0.51496031  0.86256251  1
  V  V29  1  0.60300317  0.12204445  0.00791914  1
  V  V30  1  0.89625305  0.88135735  0.49183647  1
  V  V31  1  0.25455409  0.13438315  0.89914449  1
  V  V32  1  0.47362308  0.13782266  0.13030778  1
  V  V33  1  0.76458167  0.00163152  0.23859500  1
  V  V34  1  0.26366577  0.49934860  0.25125331  1
  V  V35  1  0.25596214  0.01597263  0.25115621  1
  V  V36  1  0.11563193  0.37171365  0.74866280  1
  V  V37  1  0.00124786  0.62778560  0.12342677  1
  V  V38  1  0.11793002  0.10973120  0.49951553  1
  V  V39  1  -0.00816575  0.24361440  0.24115585  1
  V  V40  1  0.24998197  0.62868623  0.37126801  1
  V  V41  1  0.14117629  0.86913112  0.25154170  1
  V  V42  1  0.60538455  0.89630486  0.72056460  1
  V  V43  1  0.62096469  0.35859835  0.25101803  1
  V  V44  1  0.12170244  0.63181397  0.49665874  1
  V  V45  1  0.12492006  0.25049413  0.38013954  1
  V  V46  1  0.77209871  0.13530918  0.35606808  1
  V  V47  1  0.11430971  0.49883394  0.62453261  1
  V  V48  1  0.12756286  0.37570540  0.25011659  1
  V  V49  1  0.26104313  0.25085678  0.50889561  1
  V  V50  1  0.24595313  0.86611342  0.63543644  1
  V  V51  1  0.13132114  0.49938224  0.12150300  1
  V  V52  1  0.74723064  0.11652997  0.89864611  1
  V  V53  1  0.13365590  0.75578453  0.86419957  1
  V  V54  1  0.12059720  0.24055460  0.88456188  1
  V  V55  1  0.87709172  0.61142816  0.25366502  1
  V  V56  1  0.26067963  0.36198134  0.11736898  1
  V  V57  1  0.13321712  0.62948785  -0.01082592  1
  V  V58  1  -0.00949332  0.50394088  0.49577718  1
  V  V59  1  -0.01864146  0.37248298  0.87986965  1
  V  V60  1  0.49454401  0.72053314  0.21200166  1
  V  V61  1  0.89439624  0.77871637  0.11966008  1
  V  V62  1  0.12742040  0.01143839  0.11585601  1
  V  V63  1  0.85003652  0.11435587  0.74593087  1
  V  V64  1  0.00183311  0.10534851  0.62315127  1
  V  V65  1  -0.00999304  0.49760689  0.00150074  1
  V  V66  1  0.65062016  0.51035330  0.66124033  1
  V  V67  1  0.75841504  0.37377315  0.11459234  1
  V  V68  1  0.74066926  0.25426506  0.48404793  1
  V  V69  1  0.64104565  0.08877676  0.48612899  1
  Zn  Zn70  1  0.25349837  0.12018729  0.38179793  1
  Zn  Zn71  1  0.49652728  0.75615122  0.73192662  1
  Zn  Zn72  1  0.48624370  0.23512891  0.73812490  1
  Zn  Zn73  1  0.50754941  0.37670017  0.38331316  1
  Zn  Zn74  1  0.52318196  -0.01275558  0.55084550  1
  Zn  Zn75  1  0.10909384  0.87429939  0.73962165  1
  Zn  Zn76  1  0.18702029  0.18496003  0.18812372  1
  Zn  Zn77  1  0.17750857  0.19005272  0.68304492  1
  Zn  Zn78  1  0.18995939  0.68554515  0.18458195  1
  Zn  Zn79  1  0.18009470  0.68603254  0.68670056  1
  Zn  Zn80  1  0.68911651  0.19786118  0.16998838  1
  Zn  Zn81  1  0.62151498  0.16827784  0.67019674  1
  Zn  Zn82  1  0.66708665  0.68262933  0.25236619  1
  Zn  Zn83  1  0.67284136  0.71770702  0.68284377  1
  Zn  Zn84  1  0.30877791  0.31750489  0.32228424  1
  Zn  Zn85  1  0.31982060  0.29152642  0.82182044  1
  Zn  Zn86  1  0.35608117  0.86076725  0.27773503  1
  Zn  Zn87  1  0.31802827  0.79820018  0.82078301  1
  Zn  Zn88  1  0.81211507  0.32190668  0.29922849  1
  Zn  Zn89  1  0.76961603  0.33814742  0.91156437  1
  Zn  Zn90  1  0.81707664  0.80090531  0.30648837  1
  Zn  Zn91  1  0.79118940  0.81692796  0.80309896  1
  Zn  Zn92  1  0.18603825  0.44074240  0.43999015  1
  Zn  Zn93  1  0.17107796  0.42337379  0.94190299  1
  Zn  Zn94  1  0.19241725  0.92863861  0.42689366  1
  Zn  Zn95  1  0.19516835  0.94100528  0.93418366  1
  Zn  Zn96  1  0.69401499  0.44391247  0.41078998  1
  Zn  Zn97  1  0.62944946  0.43488268  0.96811970  1
  Zn  Zn98  1  0.73917683  0.92808932  0.41089185  1
  Zn  Zn99  1  0.68033883  0.94062350  0.93887456  1
  Zn  Zn100  1  0.31758666  0.06011820  0.07003996  1
  Zn  Zn101  1  0.29757842  0.05419878  0.56493008  1
  Zn  Zn102  1  0.31032791  0.54051795  -0.06397908  1
  Zn  Zn103  1  0.31171106  0.56172687  0.57622950  1
  Zn  Zn104  1  0.81717959  0.05773022  0.07574429  1
  Zn  Zn105  1  0.81412014  0.06727778  0.55242291  1
  Zn  Zn106  1  0.80582475  0.55094060  0.07725444  1
  Zn  Zn107  1  0.79864502  0.57268868  0.57129359  1
  Zn  Zn108  1  0.44569167  0.43151718  0.18325896  1
  Zn  Zn109  1  0.41656731  0.40895366  0.74369100  1
  Zn  Zn110  1  0.46375801  1.00134444  0.22167484  1
  Zn  Zn111  1  0.41407977  0.93325383  0.69601022  1
  Zn  Zn112  1  0.93927590  0.43284340  0.18377572  1
  Zn  Zn113  1  0.93158272  0.43887801  0.68503619  1
  Zn  Zn114  1  0.95164809  0.96337115  0.20097100  1
  Zn  Zn115  1  0.92694941  0.92683808  0.69111717  1
  Zn  Zn116  1  0.06406698  0.05598468  0.30867410  1
  Zn  Zn117  1  0.06116754  0.05286712  0.81602559  1
  Zn  Zn118  1  0.06398690  0.56426965  0.31016246  1
  Zn  Zn119  1  0.05488905  0.56416288  0.81340747  1
  Zn  Zn120  1  0.60627639  0.09726882  0.28104011  1
  Zn  Zn121  1  0.55771419  0.06458263  0.81956102  1
  Zn  Zn122  1  0.55624582  0.55392958  0.31184647  1
  Zn  Zn123  1  0.57611586  0.59157905  0.82070107  1
  Zn  Zn124  1  0.46176587  0.17104278  0.55661845  1
  Zn  Zn125  1  0.44445185  0.20397968  0.93649172  1
  Zn  Zn126  1  0.43301151  0.66790925  0.44726031  1
  Zn  Zn127  1  0.41682164  0.68442648  0.93669306  1
  Zn  Zn128  1  0.94417810  0.18713900  0.43172406  1
  Zn  Zn129  1  0.93755417  0.16812940  0.92234407  1
  Zn  Zn130  1  0.92932533  0.69169464  0.43786818  1
  Zn  Zn131  1  0.94509664  0.69495528  0.93890323  1
  Zn  Zn132  1  0.06275591  0.31314305  0.06316169  1
  Zn  Zn133  1  0.05980236  0.31018954  0.55847323  1
  Zn  Zn134  1  0.10030106  0.83975783  0.04254739  1
  Zn  Zn135  1  0.06250772  0.82026344  0.55148707  1
  Zn  Zn136  1  0.56846466  0.30443372  0.06441055  1
  Zn  Zn137  1  0.54094674  0.34697603  0.60235204  1
  Zn  Zn138  1  0.58594474  0.64296586  0.05414898  1
  Zn  Zn139  1  0.54939245  0.81613213  0.56202266  1
  O  O140  1  0.12273579  0.11135663  0.13446149  1
  O  O141  1  0.11038807  0.12648724  0.61168642  1
  O  O142  1  0.12124858  0.61703040  0.11536174  1
  O  O143  1  0.11219711  0.61560155  0.61593990  1
  O  O144  1  0.62480596  0.12503876  0.10843321  1
  O  O145  1  0.66924430  0.11201688  0.58366089  1
  O  O146  1  0.63408873  0.61649983  0.16195225  1
  O  O147  1  0.67164215  0.60534974  0.63568958  1
  O  O148  1  0.37927106  0.38697722  0.37849901  1
  O  O149  1  0.39375266  0.37788918  0.85536268  1
  O  O150  1  0.36800026  0.86004696  0.39248804  1
  O  O151  1  0.36972635  0.87867133  0.88120096  1
  O  O152  1  0.88962623  0.37251908  0.37918596  1
  O  O153  1  0.87780340  0.38684090  0.88082912  1
  O  O154  1  0.83579835  0.86400916  0.40177466  1
  O  O155  1  0.87839027  0.86887325  0.86863173  1
  O  O156  1  0.24741272  0.00405477  0.35873898  1
  O  O157  1  0.25106060  0.02388975  0.87181683  1
  O  O158  1  0.25792791  0.49936276  0.37072490  1
  O  O159  1  0.23065641  0.48472637  0.86455195  1
  O  O160  1  0.77856828  0.01710485  0.34249314  1
  O  O161  1  0.74662601  0.01624464  0.88001945  1
  O  O162  1  0.76738939  0.51839066  0.37164507  1
  O  O163  1  0.76913089  0.52294048  0.87471086  1
  O  O164  1  0.23668420  0.49194814  0.13666245  1
  O  O165  1  0.22922394  0.48841899  0.63148663  1
  O  O166  1  0.24088147  1.00801236  0.13909186  1
  O  O167  1  0.24548109  0.98530588  0.64190004  1
  O  O168  1  0.73632186  0.48520527  0.13380233  1
  O  O169  1  0.76083261  0.48252143  0.63401273  1
  O  O170  1  0.73524030  0.98518580  0.11859399  1
  O  O171  1  0.75189396  0.98312778  0.62897495  1
  O  O172  1  0.01186465  0.37120303  0.25743954  1
  O  O173  1  -0.00370965  0.36502026  0.75658329  1
  O  O174  1  0.00755560  0.85780522  0.24670500  1
  O  O175  1  -0.00067249  0.88631637  0.76819326  1
  O  O176  1  0.51284589  0.37532675  0.25754786  1
  O  O177  1  0.50206144  0.35041478  0.71151872  1
  O  O178  1  0.51331150  0.91615672  0.28194853  1
  O  O179  1  0.50311652  0.87447763  0.74341583  1
  O  O180  1  0.50460209  0.11223434  0.23692540  1
  O  O181  1  0.53125718  0.12884382  0.73052702  1
  O  O182  1  0.48828761  0.63628090  0.26796430  1
  O  O183  1  0.48014136  0.59047601  0.75442775  1
  O  O184  1  1.01134875  0.14733852  0.25989709  1
  O  O185  1  1.00430909  0.12809605  0.73466563  1
  O  O186  1  1.00630404  0.63591327  0.24060471  1
  O  O187  1  1.00071005  0.62226081  0.73093805  1
  O  O188  1  0.38731502  0.29236647  -0.01186109  1
  O  O189  1  0.35824841  0.23604934  0.51324357  1
  O  O190  1  0.34758413  0.74516622  0.01708227  1
  O  O191  1  0.36105618  0.74430804  0.50363298  1
  O  O192  1  0.88609948  0.22402119  0.02477367  1
  O  O193  1  0.88298484  0.26087906  0.50250161  1
  O  O194  1  0.87843611  0.75538029  0.01628461  1
  O  O195  1  0.88655052  0.76611858  0.51014817  1
  O  O196  1  0.12673339  0.24494202  0.49137076  1
  O  O197  1  0.11232334  0.24877192  0.98243398  1
  O  O198  1  0.13008340  0.73527343  0.49971264  1
  O  O199  1  0.12393400  0.73228445  0.99551715  1
  O  O200  1  0.64569616  0.25473779  0.48886665  1
  O  O201  1  0.61813600  0.23043345  0.98616439  1
  O  O202  1  0.58084795  0.75311549  0.45641523  1
  O  O203  1  0.64978294  0.73527476  1.00707117  1
  O  O204  1  0.50161560  0.23685618  0.12625774  1
  O  O205  1  0.53572938  0.23303320  0.61023848  1
  O  O206  1  0.50084755  0.70081448  0.11217041  1
  O  O207  1  0.56763914  0.74728797  0.64483286  1
  O  O208  1  1.01196936  0.25666976  0.14283305  1
  O  O209  1  0.99169850  0.24721302  0.62815365  1
  O  O210  1  0.99816725  0.74206206  0.12467050  1
  O  O211  1  1.00894101  0.73909687  0.62166461  1
  O  O212  1  0.01071048  0.26342790  0.37107772  1
  O  O213  1  -0.00057375  0.25142792  0.86466871  1
  O  O214  1  0.00116682  0.74271654  0.36015051  1
  O  O215  1  0.00955683  0.76958811  0.88259451  1
  O  O216  1  0.46194119  0.24438000  0.33626247  1
  O  O217  1  0.52073237  0.24368738  0.85968436  1
  O  O218  1  0.52282054  0.74168377  0.40899105  1
  O  O219  1  0.50472563  0.75617644  0.93758589  1
  O  O220  1  0.23421627  0.13689972  0.50796055  1
  O  O221  1  0.24712540  0.13128138  0.99618849  1
  O  O222  1  0.24157147  0.62879504  0.50170836  1
  O  O223  1  0.23048582  0.60701233  0.99142595  1
  O  O224  1  0.76382012  0.14054354  0.47548410  1
  O  O225  1  0.75192196  0.11938240  1.00005496  1
  O  O226  1  0.75823053  0.63305343  0.48344080  1
  O  O227  1  0.77249581  0.64274706  1.01587337  1
  O  O228  1  0.23672166  0.37328924  0.01875455  1
  O  O229  1  0.24076329  0.36358376  0.51253919  1
  O  O230  1  0.21081644  0.86262061  0.01237030  1
  O  O231  1  0.24793423  0.85462676  0.50134021  1
  O  O232  1  0.73815219  0.39130297  0.00903745  1
  O  O233  1  0.76466880  0.36631030  0.48093060  1
  O  O234  1  0.73689167  0.86701150  0.01469174  1
  O  O235  1  0.74075700  0.91795382  0.59725095  1
  O  O236  1  0.12982985  0.49069735  0.24460365  1
  O  O237  1  0.11764619  0.48831710  0.74410296  1
  O  O238  1  0.14259934  0.99368178  0.24480328  1
  O  O239  1  0.14328679  0.98937761  0.76223533  1
  O  O240  1  0.62343394  0.48400676  0.24787830  1
  O  O241  1  0.63630422  0.51235323  0.75974425  1
  O  O242  1  0.65023573  0.98851907  0.24903394  1
  O  O243  1  0.62368936  0.98094843  0.76791015  1
  O  O244  1  0.35423545  -0.02346855  0.24557491  1
  O  O245  1  0.34295349  -0.01212616  0.76886645  1
  O  O246  1  0.36373280  0.49621238  0.25686114  1
  O  O247  1  0.34500672  0.49980189  0.75311184  1
  O  O248  1  0.85122270  0.03574406  0.19175042  1
  O  O249  1  0.87044266  0.01610883  0.73493914  1
  O  O250  1  0.90357922  0.51374029  0.25563850  1
  O  O251  1  0.88241541  0.50432569  0.76386640  1
  O  O252  1  0.11946615  0.37103878  0.37100315  1
  O  O253  1  0.10744795  0.36139329  0.86401775  1
  O  O254  1  0.12285772  0.88121901  0.35139863  1
  O  O255  1  0.13032323  0.86209765  0.86808250  1
  O  O256  1  0.62526152  0.37021989  0.36030448  1
  O  O257  1  0.64887255  0.35742869  0.87949086  1
  O  O258  1  0.65329341  0.87063235  0.35389750  1
  O  O259  1  0.62631022  0.84959024  0.89040046  1
  O  O260  1  0.37261568  0.14059394  0.13019803  1
  O  O261  1  0.39650553  0.09284776  0.61436606  1
  O  O262  1  0.31803221  0.70279976  0.07597629  1
  O  O263  1  0.35476004  0.62241566  0.65809050  1
  O  O264  1  0.87784833  0.18077104  0.08480574  1
  O  O265  1  0.88658112  0.12990556  0.62185927  1
  O  O266  1  0.89740542  0.61712183  0.13026591  1
  O  O267  1  0.88478660  0.64341662  0.61588140  1
  O  O268  1  0.24565552  0.26447240  0.13681749  1
  O  O269  1  0.23733083  0.26309700  0.61749626  1
  O  O270  1  0.26996727  0.74587640  0.12281884  1
  O  O271  1  0.24331758  0.75049495  0.61299536  1
  O  O272  1  0.74918523  0.27124427  0.11369845  1
  O  O273  1  0.76483474  0.26365561  0.60070700  1
  O  O274  1  0.77767097  0.77233794  0.12076295  1
  O  O275  1  0.75688950  0.75183578  0.60547922  1
  O  O276  1  0.24490569  0.24784625  0.39250394  1
  O  O277  1  0.22821836  0.24614943  0.87138869  1
  O  O278  1  0.24821368  0.72854983  0.38950194  1
  O  O279  1  0.23295538  0.74201542  0.87241851  1
  O  O280  1  0.75995965  0.24557045  0.37404957  1
  O  O281  1  0.74196805  0.23083943  0.88222524  1
  O  O282  1  0.74309391  0.72105560  0.33134127  1
  O  O283  1  0.76914566  0.74529413  0.89930337  1
  O  O284  1  0.00565843  0.10406582  -0.01658733  1
  O  O285  1  0.00785577  0.12277331  0.50790987  1
  O  O286  1  0.00875860  0.61637196  0.00728738  1
  O  O287  1  0.00368625  0.61833474  0.50295531  1
  O  O288  1  0.49647079  0.13133832  0.01079488  1
  O  O289  1  0.53558978  0.08842000  0.49690140  1
  O  O290  1  0.49834490  0.59660813  -0.02654708  1
  O  O291  1  0.48824691  0.59696451  0.51382571  1
  O  O292  1  0.50996564  0.40013378  0.50286275  1
  O  O293  1  0.52221811  0.38447718  0.98668469  1
  O  O294  1  0.47678199  0.88727552  0.50964824  1
  O  O295  1  0.48017425  0.88849411  1.02833425  1
  O  O296  1  0.99360405  0.38362414  0.49270296  1
  O  O297  1  1.00662012  0.38381294  0.98854553  1
  O  O298  1  0.99636757  0.88225271  0.48226793  1
  O  O299  1  1.00829292  0.88823507  0.98552270  1
  O  O300  1  0.48166030  0.50319127  0.38883795  1
  O  O301  1  0.51833001  0.54399547  0.91817266  1
  O  O302  1  0.42547763  1.07389008  0.36603981  1
  O  O303  1  0.46736490  1.01187672  0.86662213  1
  O  O304  1  1.00995629  0.49178336  0.38591326  1
  O  O305  1  0.99087671  0.49175892  0.88123381  1
  O  O306  1  0.97388860  0.99049954  0.30920402  1
  O  O307  1  1.00067522  0.98725953  0.88493983  1
  O  O308  1  0.01405047  0.00064688  0.10969586  1
  O  O309  1  -0.00091882  0.00844047  0.62704395  1
  O  O310  1  0.01380452  0.50262666  0.11925913  1
  O  O311  1  0.00021590  0.50765369  0.61606461  1
  O  O312  1  0.48642992  0.02938270  0.11469885  1
  O  O313  1  0.44774422  0.02632979  0.63172428  1
  O  O314  1  0.51700963  0.50287585  0.13308552  1
  O  O315  1  0.55069859  0.49937103  0.62108967  1
  O  O316  1  0.24254565  0.38142748  0.24917952  1
  O  O317  1  0.22953632  0.37937750  0.73809853  1
  O  O318  1  0.24172269  0.86420588  0.24925670  1
  O  O319  1  0.25365641  0.85470834  0.73540728  1
  O  O320  1  0.73487540  0.37124644  0.23595518  1
  O  O321  1  0.77039400  0.35995847  0.74202590  1
  O  O322  1  0.77626531  0.89351435  0.23186258  1
  O  O323  1  0.68935976  0.83251372  0.74020617  1
  O  O324  1  0.25810161  0.12021966  0.25866184  1
  O  O325  1  0.24456751  0.11957141  0.74129819  1
  O  O326  1  0.24100018  0.61531017  0.26493605  1
  O  O327  1  0.22670158  0.60187906  0.75224916  1
  O  O328  1  0.73539953  0.12491518  0.25224150  1
  O  O329  1  0.75513286  0.12286347  0.72984836  1
  O  O330  1  0.78286437  0.61389784  0.22698692  1
  O  O331  1  0.74692809  0.65817538  0.76847583  1
  O  O332  1  0.38315094  0.12123855  0.40371421  1
  O  O333  1  0.35281761  0.15044266  0.88144132  1
  O  O334  1  0.35531087  0.60802191  0.38423773  1
  O  O335  1  0.36011439  0.61547075  0.86652277  1
  O  O336  1  0.87164332  0.13544357  0.36094350  1
  O  O337  1  0.85493113  0.12903015  0.85466691  1
  O  O338  1  0.86918894  0.63483013  0.35811238  1
  O  O339  1  0.87735114  0.62137253  0.87693391  1
  O  O340  1  0.12928744  0.38149496  0.13552616  1
  O  O341  1  0.11379122  0.38259129  0.63262461  1
  O  O342  1  0.12042076  0.89467136  0.14267007  1
  O  O343  1  0.13860830  0.86837331  0.62409161  1
  O  O344  1  0.62711840  0.38194657  0.13393473  1
  O  O345  1  0.65195930  0.38561161  0.63497154  1
  O  O346  1  0.63693786  0.86707636  0.15027110  1
  O  O347  1  0.59269643  0.91918410  0.61815219  1
  O  O348  1  0.12856938  0.26061982  0.26553836  1
  O  O349  1  0.10838755  0.25632950  0.75015610  1
  O  O350  1  0.11900738  0.75757083  0.23989961  1
  O  O351  1  0.12059532  0.74932173  0.76037617  1
  O  O352  1  0.62234625  0.25720049  0.24396481  1
  O  O353  1  0.64103355  0.24474135  0.75994441  1
  O  O354  1  0.58395670  0.77184052  0.24844540  1
  O  O355  1  0.58023200  0.71498871  0.80618265  1
  O  O356  1  0.40230418  0.24018691  0.29153691  1
  O  O357  1  0.37572433  0.26327126  0.73065914  1
  O  O358  1  0.41303879  0.77847789  0.22833880  1
  O  O359  1  0.39385673  0.72853453  0.76933623  1
  O  O360  1  0.89286020  0.25799275  0.25001678  1
  O  O361  1  0.88455234  0.23211614  0.73173624  1
  O  O362  1  0.89458483  0.74456131  0.23303949  1
  O  O363  1  0.86185294  0.77369073  0.72158191  1
  O  O364  1  0.35838723  0.49387916  0.49704389  1
  O  O365  1  0.37354642  0.46628964  0.99221540  1
  O  O366  1  0.34584743  0.98233009  0.48893555  1
  O  O367  1  0.35670532  0.99891137  0.98380543  1
  O  O368  1  0.88432595  0.49171454  0.50689131  1
  O  O369  1  0.88823827  0.50802877  0.99629470  1
  O  O370  1  0.86198672  0.97932919  0.50149358  1
  O  O371  1  0.88860118  1.00067234  1.00805022  1
  O  O372  1  0.13151118  0.00365110  0.01361832  1
  O  O373  1  0.13434140  0.01262971  0.49275612  1
  O  O374  1  0.11274526  0.50532287  0.00505085  1
  O  O375  1  0.11333929  0.50361799  0.50992138  1
  O  O376  1  0.61355676  0.02254153  -0.01683109  1
  O  O377  1  0.66743762  -0.00899733  0.47735323  1
  O  O378  1  0.63280828  0.52951784  0.03262003  1
  O  O379  1  0.63050927  0.51048908  0.48401738  1
  O  O380  1  0.35858927  0.37807991  0.13375001  1
  O  O381  1  0.35066149  0.38659194  0.62915917  1
  O  O382  1  0.43829418  0.86220689  0.07988598  1
  O  O383  1  0.35123444  0.87323434  0.61033199  1
  O  O384  1  0.86030024  0.38436508  0.12218470  1
  O  O385  1  0.87226746  0.36821411  0.61265942  1
  O  O386  1  0.89905185  0.87604233  0.12735913  1
  O  O387  1  0.88314037  0.86753513  0.60474476  1
  O  O388  1  0.12225710  0.13184175  0.38808003  1
  O  O389  1  0.12903832  0.13774895  0.86629560  1
  O  O390  1  0.13994237  0.60731203  0.38853294  1
  O  O391  1  0.10938509  0.63484734  0.88415841  1
  O  O392  1  0.65298321  0.12181281  0.38317742  1
  O  O393  1  0.63743276  0.13114302  0.88152928  1
  O  O394  1  0.64470704  0.61502687  0.35441158  1
  O  O395  1  0.65826077  0.63490181  0.89685714  1
