# generated using pymatgen
data_V35Zn35O128
_symmetry_space_group_name_H-M   'P 1'
_cell_length_a   16.87992534
_cell_length_b   16.92082352
_cell_length_c   16.95137242
_cell_angle_alpha   89.50908780
_cell_angle_beta   90.10373702
_cell_angle_gamma   89.95168289
_symmetry_Int_Tables_number   1
_chemical_formula_structural   V35Zn35O128
_chemical_formula_sum   'V70 Zn70 O256'
_cell_volume   4841.50148307
_cell_formula_units_Z   2
loop_
 _symmetry_equiv_pos_site_id
 _symmetry_equiv_pos_as_xyz
  1  'x, y, z'
loop_
 _atom_site_type_symbol
 _atom_site_label
 _atom_site_symmetry_multiplicity
 _atom_site_fract_x
 _atom_site_fract_y
 _atom_site_fract_z
 _atom_site_occupancy
  V  V0  1  0.27585698  0.49734168  0.74892506  1
  V  V1  1  0.49970114  -0.00962846  0.49504717  1
  V  V2  1  0.61861799  0.49431999  0.63257739  1
  V  V3  1  0.49965752  0.88587609  0.87826674  1
  V  V4  1  0.23812927  0.63170782  0.36635306  1
  V  V5  1  0.00162495  0.75700095  0.73896578  1
  V  V6  1  0.75192761  0.63159712  0.85105179  1
  V  V7  1  0.37328419  0.37710272  0.50680188  1
  V  V8  1  0.75701123  0.24053236  0.00180012  1
  V  V9  1  0.37890939  -0.01228175  0.37428088  1
  V  V10  1  0.00260751  0.49517847  0.48264068  1
  V  V11  1  0.12020821  -0.00233458  0.13587281  1
  V  V12  1  0.37217064  0.86548597  0.51814476  1
  V  V13  1  0.01383729  0.87013807  0.37268140  1
  V  V14  1  0.13083224  0.88210739  0.72498832  1
  V  V15  1  0.75942716  0.86864584  0.62383737  1
  V  V16  1  0.48986563  0.37810298  0.35034955  1
  V  V17  1  -0.00636016  -0.00098236  -0.01089235  1
  V  V18  1  0.49516139  0.74906420  0.25806000  1
  V  V19  1  0.75664731  0.73604987  0.49970730  1
  V  V20  1  -0.00479053  -0.00046311  0.49834511  1
  V  V21  1  0.62697183  0.87212646  0.75073018  1
  V  V22  1  0.60736167  0.01427456  0.13080957  1
  V  V23  1  0.49715630  0.13022475  0.61377758  1
  V  V24  1  0.87119350  0.38155753  0.48765655  1
  V  V25  1  0.00734934  0.75171797  0.25158951  1
  V  V26  1  -0.00431005  0.66192044  0.08457893  1
  V  V27  1  0.62209329  0.75265850  0.37729131  1
  V  V28  1  0.75149527  0.74197898  0.01586651  1
  V  V29  1  0.87762311  0.62156818  0.26145357  1
  V  V30  1  0.87111965  0.87556832  0.48679178  1
  V  V31  1  0.38370764  0.88884582  -0.00060291  1
  V  V32  1  0.49918240  0.24854444  0.75864129  1
  V  V33  1  0.26243629  0.62066000  0.86418752  1
  V  V34  1  0.86760802  0.48882130  0.88231248  1
  V  V35  1  0.24989663  0.13128161  0.37135070  1
  V  V36  1  0.62504507  -0.00142738  0.61584498  1
  V  V37  1  0.75511983  0.00187516  0.75823155  1
  V  V38  1  0.12832811  0.23538505  0.83954049  1
  V  V39  1  0.77305572  0.09584670  0.36029568  1
  V  V40  1  0.11977421  0.12852212  0.49231455  1
  V  V41  1  0.24393007  0.74811940  -0.00606220  1
  V  V42  1  0.24144175  0.74998504  0.51516327  1
  V  V43  1  0.48448504  0.74827234  0.75100661  1
  V  V44  1  -0.00278887  0.12855234  0.62199343  1
  V  V45  1  0.74712444  0.88912417  0.13726403  1
  V  V46  1  0.86788805  0.88000733  -0.00232434  1
  V  V47  1  0.48710642  0.62747196  0.63089657  1
  V  V48  1  0.36105491  0.50631161  0.36984873  1
  V  V49  1  0.66111544  0.23257536  0.38610923  1
  V  V50  1  0.25023560  0.24959954  0.51310702  1
  V  V51  1  0.87128826  0.12808561  0.75311748  1
  V  V52  1  0.25939523  -0.00227609  0.25030032  1
  V  V53  1  0.74583095  0.47900603  0.74339124  1
  V  V54  1  0.51535632  0.62029850  0.12473110  1
  V  V55  1  0.36876264  0.11118793  0.74460092  1
  V  V56  1  0.39435401  0.13395949  0.25064469  1
  V  V57  1  0.37736757  0.24626704  0.10367456  1
  V  V58  1  0.25439208  0.10549799  0.87258429  1
  V  V59  1  0.12654724  0.12631195  0.00253452  1
  V  V60  1  0.52507945  0.50092036  0.00296061  1
  V  V61  1  0.11823668  0.62197763  0.51736646  1
  V  V62  1  0.85693989  0.25592893  0.61588555  1
  V  V63  1  0.25539767  0.87719548  0.13060122  1
  V  V64  1  0.62596900  0.74692058  0.88283543  1
  V  V65  1  0.61678527  0.12371902  -0.02196128  1
  V  V66  1  0.37523734  0.74083264  0.12801562  1
  V  V67  1  0.34933656  0.39795981  -0.01154223  1
  V  V68  1  0.01749327  0.48602915  -0.01514643  1
  V  V69  1  0.61448146  0.61927057  0.49954876  1
  Zn  Zn70  1  0.62484485  0.88475070  0.25873585  1
  Zn  Zn71  1  0.09806368  0.40526164  0.72985785  1
  Zn  Zn72  1  0.50061564  0.37901763  0.88214886  1
  Zn  Zn73  1  0.66624682  0.30736192  0.81230410  1
  Zn  Zn74  1  0.22095255  0.50213654  0.21898724  1
  Zn  Zn75  1  0.24522471  0.36328208  0.64593266  1
  Zn  Zn76  1  0.20822155  0.18073733  0.17459835  1
  Zn  Zn77  1  0.18297913  0.06171416  0.68276021  1
  Zn  Zn78  1  0.17299394  0.69079764  0.17980869  1
  Zn  Zn79  1  0.18557752  0.68764880  0.69693966  1
  Zn  Zn80  1  0.65974026  0.19311168  0.20731108  1
  Zn  Zn81  1  0.68217358  0.18146186  0.67877993  1
  Zn  Zn82  1  0.69146851  0.68589363  0.19423285  1
  Zn  Zn83  1  0.67726859  0.68978998  0.68004827  1
  Zn  Zn84  1  0.31546280  0.31278599  0.31459218  1
  Zn  Zn85  1  0.31873544  0.29915596  0.81811252  1
  Zn  Zn86  1  0.30780975  0.80786197  0.31879837  1
  Zn  Zn87  1  0.30862306  0.82752945  0.81462572  1
  Zn  Zn88  1  0.82405510  0.32060724  0.30369491  1
  Zn  Zn89  1  0.94181274  0.30296820  0.80757076  1
  Zn  Zn90  1  0.81156832  0.79691654  0.30928065  1
  Zn  Zn91  1  0.81697376  0.81963234  0.82054060  1
  Zn  Zn92  1  0.18754357  0.44196349  0.44465762  1
  Zn  Zn93  1  0.18320747  0.43810538  0.89191604  1
  Zn  Zn94  1  0.18815742  0.93933717  0.54698986  1
  Zn  Zn95  1  0.19097046  0.93906241  0.94869012  1
  Zn  Zn96  1  0.66338364  0.40622523  0.44943753  1
  Zn  Zn97  1  0.67841313  0.44257941  0.93310089  1
  Zn  Zn98  1  0.68930030  0.93250635  0.43447126  1
  Zn  Zn99  1  0.68108523  0.94212946  0.94456324  1
  Zn  Zn100  1  0.31952361  0.07060650  0.06350437  1
  Zn  Zn101  1  0.31896579  0.06601612  0.55494973  1
  Zn  Zn102  1  0.30807329  0.56257623  0.05829627  1
  Zn  Zn103  1  0.30376245  0.55936670  0.56416050  1
  Zn  Zn104  1  0.79886577  0.05871649  0.06050054  1
  Zn  Zn105  1  0.80766186  0.06184563  0.55736103  1
  Zn  Zn106  1  0.83235534  0.56245083  0.07400329  1
  Zn  Zn107  1  0.78631106  0.52744838  0.53365205  1
  Zn  Zn108  1  0.40041767  0.44673512  0.16945728  1
  Zn  Zn109  1  0.43627353  0.43131783  0.67976080  1
  Zn  Zn110  1  0.44325996  0.93474168  0.19009679  1
  Zn  Zn111  1  0.43846490  0.93609119  0.68640245  1
  Zn  Zn112  1  1.01197442  0.50677542  0.18253596  1
  Zn  Zn113  1  0.91435965  0.43416772  0.68880913  1
  Zn  Zn114  1  0.93631422  0.92997548  0.18487123  1
  Zn  Zn115  1  0.94017544  0.93802701  0.68751346  1
  Zn  Zn116  1  0.11383027  0.00137959  0.35825348  1
  Zn  Zn117  1  0.05501760  0.05689884  0.81098054  1
  Zn  Zn118  1  0.07116538  0.56946283  0.32097270  1
  Zn  Zn119  1  0.08728002  0.57792558  0.81891138  1
  Zn  Zn120  1  0.57943895  0.06876060  0.32252378  1
  Zn  Zn121  1  0.56427605  0.06546644  0.80194140  1
  Zn  Zn122  1  0.54382932  0.56536336  0.31893004  1
  Zn  Zn123  1  0.56021036  0.56269274  0.81574796  1
  Zn  Zn124  1  0.43451366  0.19220210  0.43135392  1
  Zn  Zn125  1  0.43622733  0.17758843  0.93050439  1
  Zn  Zn126  1  0.42860728  0.68420145  0.44079300  1
  Zn  Zn127  1  0.43763309  0.68955611  0.94583535  1
  Zn  Zn128  1  0.89893980  0.17534375  0.43793938  1
  Zn  Zn129  1  0.93502226  0.17640909  0.94411533  1
  Zn  Zn130  1  0.93822344  0.68204818  0.43081930  1
  Zn  Zn131  1  0.94757039  0.67961820  0.88025170  1
  Zn  Zn132  1  0.05511199  0.31020575  -0.03931277  1
  Zn  Zn133  1  0.06160766  0.31179933  0.57064831  1
  Zn  Zn134  1  0.06222954  0.82332226  0.06322145  1
  Zn  Zn135  1  0.05117487  0.80146663  0.56677226  1
  Zn  Zn136  1  0.56542696  0.29620305  0.06230515  1
  Zn  Zn137  1  0.55901419  0.31149144  0.55307554  1
  Zn  Zn138  1  0.56561242  0.81616286  0.06894803  1
  Zn  Zn139  1  0.56226206  0.80921523  0.56331562  1
  O  O140  1  0.14475501  0.10534679  0.10987926  1
  O  O141  1  0.10253243  0.11920029  0.61266930  1
  O  O142  1  0.09196189  0.63941414  0.11777900  1
  O  O143  1  0.12256577  0.62513300  0.61658245  1
  O  O144  1  0.61919123  0.11626462  0.13078852  1
  O  O145  1  0.61088902  0.10782515  0.62285935  1
  O  O146  1  0.61441600  0.62711830  0.13009148  1
  O  O147  1  0.61210118  0.62005557  0.61788599  1
  O  O148  1  0.37084282  0.38694380  0.38379314  1
  O  O149  1  0.38825695  0.35457641  0.89921368  1
  O  O150  1  0.37250896  0.88504618  0.37975105  1
  O  O151  1  0.38374561  0.87435062  0.89146756  1
  O  O152  1  0.88047312  0.37833900  0.38978056  1
  O  O153  1  0.88279618  0.39189909  0.86630146  1
  O  O154  1  0.87064576  0.86644519  0.38706495  1
  O  O155  1  0.86084530  0.89163629  0.89932974  1
  O  O156  1  0.26083075  0.00558472  0.36223492  1
  O  O157  1  0.23902932  0.00563408  0.86824587  1
  O  O158  1  0.24494997  0.51866088  0.38033959  1
  O  O159  1  0.27241303  0.51674275  0.86805472  1
  O  O160  1  0.74854801  -0.00358555  0.36508096  1
  O  O161  1  0.74167126  -0.00697853  0.85531337  1
  O  O162  1  0.70793678  0.50502095  0.31166636  1
  O  O163  1  0.74532852  0.51244969  0.85721277  1
  O  O164  1  0.29127213  0.48496773  0.13543247  1
  O  O165  1  0.25101412  0.50177728  0.64848321  1
  O  O166  1  0.25531094  0.99358887  0.13358541  1
  O  O167  1  0.24877792  1.00440025  0.61409759  1
  O  O168  1  0.76282136  0.47916811  0.13245139  1
  O  O169  1  0.73479523  0.50523104  0.63721556  1
  O  O170  1  0.73774648  0.99305162  0.13490574  1
  O  O171  1  0.74133833  0.98908058  0.62423281  1
  O  O172  1  0.03695701  0.36369185  0.17367252  1
  O  O173  1  -0.00735081  0.37214241  0.73574544  1
  O  O174  1  -0.01239611  0.87063729  0.26721137  1
  O  O175  1  0.01286337  0.86917658  0.74230778  1
  O  O176  1  0.46721456  0.38708356  0.25240527  1
  O  O177  1  0.48701678  0.34919151  0.74159530  1
  O  O178  1  0.50793966  0.85257188  0.24306865  1
  O  O179  1  0.50822987  0.86580780  0.75526714  1
  O  O180  1  0.49244538  0.12256136  0.26445838  1
  O  O181  1  0.49416664  0.12791158  0.73497792  1
  O  O182  1  0.49884400  0.63610025  0.23718695  1
  O  O183  1  0.50011401  0.63965062  0.74575015  1
  O  O184  1  0.99277316  0.23731275  0.38121905  1
  O  O185  1  0.98274582  0.10943041  0.73062483  1
  O  O186  1  1.00095105  0.64667347  0.26465067  1
  O  O187  1  1.01697495  0.65954609  0.78672588  1
  O  O188  1  0.36300266  0.21637015  0.00835214  1
  O  O189  1  0.35799488  0.26019895  0.49172047  1
  O  O190  1  0.36954643  0.76149858  0.01704882  1
  O  O191  1  0.36736436  0.76097384  0.50113374  1
  O  O192  1  0.85839005  0.22883954  0.00909956  1
  O  O193  1  0.87521428  0.26966804  0.50630957  1
  O  O194  1  0.85444921  0.77232889  0.00222455  1
  O  O195  1  0.86087883  0.74924011  0.49687818  1
  O  O196  1  0.13192693  0.23503880  0.50166088  1
  O  O197  1  0.12124715  0.22568863  1.00884744  1
  O  O198  1  0.13191868  0.74036977  0.50711431  1
  O  O199  1  0.14708213  0.76591999  1.01486969  1
  O  O200  1  0.63493228  0.29025604  0.47174799  1
  O  O201  1  0.63366493  0.23229657  0.99355935  1
  O  O202  1  0.62949092  0.74006273  0.49651832  1
  O  O203  1  0.63763661  0.76057361  0.98925804  1
  O  O204  1  0.47887281  0.25270189  0.12368056  1
  O  O205  1  0.50720462  0.23190863  0.61838526  1
  O  O206  1  0.49300622  0.74174588  0.13035400  1
  O  O207  1  0.50468830  0.74219721  0.64210613  1
  O  O208  1  1.03320978  0.19507719  0.19210871  1
  O  O209  1  0.98556989  0.23230823  0.61498779  1
  O  O210  1  0.99710561  0.76114408  0.13769844  1
  O  O211  1  0.98207900  0.74626576  0.64108550  1
  O  O212  1  -0.01637473  0.28528907  0.32078163  1
  O  O213  1  0.00943554  0.23801076  0.87786173  1
  O  O214  1  0.00046308  0.76372373  0.37289287  1
  O  O215  1  0.06916807  0.82473907  0.89083911  1
  O  O216  1  0.48734040  0.27909945  0.37940558  1
  O  O217  1  0.50206900  0.24381762  0.86023089  1
  O  O218  1  0.49946604  0.73909925  0.36318909  1
  O  O219  1  0.50870717  0.75556621  0.86614390  1
  O  O220  1  0.24483017  0.13355060  0.49104821  1
  O  O221  1  0.23785793  0.10874157  0.98396378  1
  O  O222  1  0.23683777  0.63323891  0.50138487  1
  O  O223  1  0.25776400  0.64454218  0.99969794  1
  O  O224  1  0.78635969  0.12698106  0.46730481  1
  O  O225  1  0.73852188  0.13383323  1.00281417  1
  O  O226  1  0.73788074  0.63182465  0.50919187  1
  O  O227  1  0.75806712  0.64253079  1.01733894  1
  O  O228  1  0.25068848  0.39127771  -0.02261311  1
  O  O229  1  0.24477839  0.35585869  0.49448821  1
  O  O230  1  0.26561765  0.87232176  0.01106541  1
  O  O231  1  0.25872663  0.85986145  0.49973738  1
  O  O232  1  0.75300603  0.34525404  -0.04652240  1
  O  O233  1  0.76868319  0.41595210  0.49150834  1
  O  O234  1  0.75388149  0.88241204  0.01454515  1
  O  O235  1  0.75790401  0.86299681  0.50443903  1
  O  O236  1  0.11021581  0.50667355  0.23684107  1
  O  O237  1  0.14540811  0.48833552  0.78665286  1
  O  O238  1  0.14207266  1.00394950  0.24028887  1
  O  O239  1  0.11571827  0.98827833  0.74362113  1
  O  O240  1  0.65286040  0.52309765  0.26572339  1
  O  O241  1  0.63286797  0.50903214  0.74025814  1
  O  O242  1  0.61257143  0.99811328  0.23942602  1
  O  O243  1  0.63405509  0.98924054  0.73724013  1
  O  O244  1  0.37694009  0.00472528  0.25678411  1
  O  O245  1  0.38760953  0.01219194  0.75184564  1
  O  O246  1  0.34824357  0.49662057  0.27133031  1
  O  O247  1  0.37646682  0.50169815  0.74836638  1
  O  O248  1  0.88205752  0.04292238  0.20962696  1
  O  O249  1  0.86077630  0.00471656  0.74267397  1
  O  O250  1  0.91180985  0.52644637  0.23351679  1
  O  O251  1  0.84989183  0.50047220  0.75618485  1
  O  O252  1  0.15821634  0.37404881  0.34058001  1
  O  O253  1  0.12601069  0.33783383  0.86665941  1
  O  O254  1  0.11278924  0.88123926  0.37507713  1
  O  O255  1  0.11974723  0.87466485  0.86527683  1
  O  O256  1  0.58735949  0.40980637  0.36632341  1
  O  O257  1  0.60999870  0.38818773  0.86314910  1
  O  O258  1  0.62185678  0.85760270  0.37696785  1
  O  O259  1  0.62167173  0.86786962  0.86879824  1
  O  O260  1  0.37639518  0.13027161  0.14345987  1
  O  O261  1  0.38767641  0.11960568  0.63295415  1
  O  O262  1  0.37773471  0.64116286  0.12571764  1
  O  O263  1  0.38956130  0.62139657  0.61629937  1
  O  O264  1  0.87552599  0.09689137  0.15760776  1
  O  O265  1  0.87760199  0.13244393  0.62196642  1
  O  O266  1  0.90065631  0.63983827  0.12488884  1
  O  O267  1  0.93848657  0.59401217  0.64357816  1
  O  O268  1  0.28012753  0.25938963  0.14728298  1
  O  O269  1  0.25267478  0.24335572  0.61064910  1
  O  O270  1  0.26139249  0.75790008  0.12812180  1
  O  O271  1  0.25109236  0.74190391  0.61315604  1
  O  O272  1  0.74241495  0.27951976  0.10174358  1
  O  O273  1  0.75800099  0.24022047  0.61764049  1
  O  O274  1  0.73444404  0.76546007  0.11519015  1
  O  O275  1  0.74063343  0.75792169  0.60973848  1
  O  O276  1  0.25012585  0.23308400  0.37189552  1
  O  O277  1  0.23565827  0.22333506  0.85936275  1
  O  O278  1  0.25565756  0.73584030  0.38895488  1
  O  O279  1  0.25156025  0.76606801  0.89420223  1
  O  O280  1  0.76148761  0.25466583  0.37230777  1
  O  O281  1  0.75302574  0.28260805  0.89476283  1
  O  O282  1  0.73812708  0.74740380  0.39180687  1
  O  O283  1  0.74624768  0.74119022  0.88255334  1
  O  O284  1  0.01383374  0.10873272  0.00234744  1
  O  O285  1  -0.00238187  0.11804577  0.50009718  1
  O  O286  1  -0.00869287  0.68355944  -0.01410358  1
  O  O287  1  0.01093460  0.61566635  0.49537889  1
  O  O288  1  0.51641990  0.12401720  -0.00994071  1
  O  O289  1  0.48669777  0.11350022  0.50956231  1
  O  O290  1  0.49986209  0.62247733  0.01649314  1
  O  O291  1  0.50725714  0.63564113  0.51656322  1
  O  O292  1  0.47466487  0.37682016  0.50357756  1
  O  O293  1  0.52000723  0.39563375  1.01174962  1
  O  O294  1  0.48534929  0.87765908  0.50700269  1
  O  O295  1  0.49112770  0.86765215  0.99364644  1
  O  O296  1  0.99396575  0.39049445  0.51029842  1
  O  O297  1  0.99598767  0.38909891  1.00662718  1
  O  O298  1  0.98615825  0.87094664  0.49381044  1
  O  O299  1  0.98100419  0.88867951  1.01340419  1
  O  O300  1  0.46873789  0.50034640  0.37505158  1
  O  O301  1  0.50595758  0.50995822  0.89960698  1
  O  O302  1  0.49547357  1.00463895  0.38923045  1
  O  O303  1  0.51065749  0.98369811  0.86678081  1
  O  O304  1  1.00583246  0.49345784  0.38473254  1
  O  O305  1  0.97575062  0.52174041  0.89037947  1
  O  O306  1  0.99520395  0.98125973  0.38848947  1
  O  O307  1  0.99666586  0.99717690  0.89052409  1
  O  O308  1  0.01911238  -0.00490169  0.13346298  1
  O  O309  1  -0.01597218  0.00963825  0.60622787  1
  O  O310  1  -0.00966176  0.53676822  0.07141350  1
  O  O311  1  -0.01881386  0.53309011  0.64238784  1
  O  O312  1  0.50896706  -0.00535368  0.11858992  1
  O  O313  1  0.50631486  0.00208231  0.61446321  1
  O  O314  1  0.49251747  0.51572492  0.12033390  1
  O  O315  1  0.50850655  0.51713081  0.63941216  1
  O  O316  1  0.21351548  0.37798380  0.28622250  1
  O  O317  1  0.26657530  0.38744081  0.76156724  1
  O  O318  1  0.26321223  0.88395742  0.24155376  1
  O  O319  1  0.22941750  0.87301231  0.74823385  1
  O  O320  1  0.76317461  0.38749502  0.22793129  1
  O  O321  1  0.74071423  0.38121798  0.74828972  1
  O  O322  1  0.74495372  0.86266996  0.23934094  1
  O  O323  1  0.74729721  0.87989800  0.74369810  1
  O  O324  1  0.26311058  0.11371604  0.25511648  1
  O  O325  1  0.26197161  0.11317110  0.75300177  1
  O  O326  1  0.23271236  0.63184829  0.26366807  1
  O  O327  1  0.25535415  0.61715317  0.75558403  1
  O  O328  1  0.73555283  0.13200953  0.26971776  1
  O  O329  1  0.75740158  0.11026200  0.73983996  1
  O  O330  1  0.77887047  0.62756372  0.23206936  1
  O  O331  1  0.75418131  0.63956014  0.75200962  1
  O  O332  1  0.36945850  0.11206241  0.37004583  1
  O  O333  1  0.36030343  0.11687037  0.86514164  1
  O  O334  1  0.35648405  0.61446784  0.38610372  1
  O  O335  1  0.36036259  0.65261892  0.87587589  1
  O  O336  1  0.87446928  0.10714442  0.34648567  1
  O  O337  1  0.87894436  0.12866006  0.85132466  1
  O  O338  1  0.87318310  0.61734937  0.36367015  1
  O  O339  1  0.85099732  0.61542613  0.87831326  1
  O  O340  1  0.10637247  0.34995227  0.15467453  1
  O  O341  1  0.13420510  0.37192633  0.62958990  1
  O  O342  1  0.14256065  0.89117648  0.12168175  1
  O  O343  1  0.12144792  0.87768818  0.62018708  1
  O  O344  1  0.66728123  0.29045137  0.13743232  1
  O  O345  1  0.60871842  0.39642259  0.61780074  1
  O  O346  1  0.63298671  0.88813889  0.12603573  1
  O  O347  1  0.63154957  0.87748554  0.63403502  1
  O  O348  1  0.09517191  0.21211091  0.22867520  1
  O  O349  1  0.11870819  0.22699579  0.74471708  1
  O  O350  1  0.10833022  0.75982700  0.24774583  1
  O  O351  1  0.11434411  0.76866342  0.73878672  1
  O  O352  1  0.62061107  0.25741914  0.29760953  1
  O  O353  1  0.60980024  0.23818648  0.74385212  1
  O  O354  1  0.61600744  0.74210830  0.26459939  1
  O  O355  1  0.62376594  0.76130176  0.75933598  1
  O  O356  1  0.37964193  0.23266605  0.26359904  1
  O  O357  1  0.38780221  0.22646525  0.75326127  1
  O  O358  1  0.38558481  0.75632671  0.24075538  1
  O  O359  1  0.38727220  0.76390012  0.75308434  1
  O  O360  1  0.92362079  0.26778940  0.26894005  1
  O  O361  1  0.87222773  0.23425828  0.73298646  1
  O  O362  1  0.89056835  0.73819192  0.25515542  1
  O  O363  1  0.91074717  0.76214465  0.79807330  1
  O  O364  1  0.34968711  0.48222698  0.49146690  1
  O  O365  1  0.38129764  0.49497231  0.99509217  1
  O  O366  1  0.37982176  0.98515602  0.49333376  1
  O  O367  1  0.37682602  0.98743678  1.00711907  1
  O  O368  1  0.89548239  0.49634071  0.51012130  1
  O  O369  1  0.84626128  0.49272937  0.98124111  1
  O  O370  1  0.87534974  0.97888308  0.49861352  1
  O  O371  1  0.88734490  1.00202241  1.01234721  1
  O  O372  1  0.11127891  -0.00189014  0.00996351  1
  O  O373  1  0.11028144  0.01010143  0.49470372  1
  O  O374  1  0.11525603  0.49403341  -0.02885602  1
  O  O375  1  0.11304619  0.50858066  0.50538106  1
  O  O376  1  0.63360956  0.01729820  0.01514401  1
  O  O377  1  0.61495199  -0.01805338  0.50848588  1
  O  O378  1  0.62561430  0.51122351  0.00779017  1
  O  O379  1  0.62898475  0.51466728  0.51411708  1
  O  O380  1  0.37830755  0.35837182  0.08335660  1
  O  O381  1  0.35989330  0.37678148  0.61064376  1
  O  O382  1  0.37332372  0.86959259  0.11784713  1
  O  O383  1  0.37150302  0.87464479  0.61667452  1
  O  O384  1  0.80708920  0.42919141  0.17489539  1
  O  O385  1  0.86501213  0.36072817  0.61668841  1
  O  O386  1  0.85465681  0.88515659  0.12119431  1
  O  O387  1  0.86315171  0.87344569  0.61773818  1
  O  O388  1  0.13779499  0.11229395  0.38273910  1
  O  O389  1  0.12784578  0.12390671  0.88039258  1
  O  O390  1  0.13536344  0.62900495  0.39399025  1
  O  O391  1  0.16220256  0.63994102  0.88024703  1
  O  O392  1  0.64053196  0.13001450  0.39845978  1
  O  O393  1  0.63025843  0.11489488  0.87859856  1
  O  O394  1  0.61073896  0.62896324  0.39501042  1
  O  O395  1  0.63892539  0.63717510  0.86841916  1
