# generated using pymatgen
data_V35Zn35O128
_symmetry_space_group_name_H-M   'P 1'
_cell_length_a   16.87874493
_cell_length_b   16.87618015
_cell_length_c   16.85543301
_cell_angle_alpha   89.83205422
_cell_angle_beta   89.96062872
_cell_angle_gamma   89.96091165
_symmetry_Int_Tables_number   1
_chemical_formula_structural   V35Zn35O128
_chemical_formula_sum   'V70 Zn70 O256'
_cell_volume   4801.22598911
_cell_formula_units_Z   2
loop_
 _symmetry_equiv_pos_site_id
 _symmetry_equiv_pos_as_xyz
  1  'x, y, z'
loop_
 _atom_site_type_symbol
 _atom_site_label
 _atom_site_symmetry_multiplicity
 _atom_site_fract_x
 _atom_site_fract_y
 _atom_site_fract_z
 _atom_site_occupancy
  V  V0  1  0.24623615  0.25954531  0.50123685  1
  V  V1  1  0.24998234  0.24209711  -0.00486889  1
  V  V2  1  0.87532260  0.12313129  0.76069073  1
  V  V3  1  0.50025817  0.24676118  0.25075694  1
  V  V4  1  0.00732844  0.12696610  0.62308270  1
  V  V5  1  0.87801903  -0.00336337  0.37309651  1
  V  V6  1  0.86155775  0.75999592  0.63002018  1
  V  V7  1  0.62741309  0.24833552  0.37661814  1
  V  V8  1  0.13332966  -0.01071100  0.63171598  1
  V  V9  1  0.48616070  0.75614092  0.76369081  1
  V  V10  1  0.74553156  0.00380657  0.24566028  1
  V  V11  1  0.25887384  0.87997555  0.11651080  1
  V  V12  1  0.10923731  0.48830131  0.63347619  1
  V  V13  1  0.74794491  0.88691159  0.10401297  1
  V  V14  1  0.12691879  0.75006755  0.85492961  1
  V  V15  1  0.25202352  0.11725158  0.38433052  1
  V  V16  1  0.87969883  0.25378746  0.62567199  1
  V  V17  1  0.87259677  0.63062649  0.74959321  1
  V  V18  1  0.62312396  0.74183574  0.87828845  1
  V  V19  1  0.25313508  0.75954989  0.52883637  1
  V  V20  1  0.24979912  0.61253064  0.87833398  1
  V  V21  1  -0.00239974  0.12750084  0.13016993  1
  V  V22  1  0.76296915  0.38591496  0.13329737  1
  V  V23  1  -0.03630612  0.41414432  0.38563842  1
  V  V24  1  0.61613802  0.51330128  0.11917377  1
  V  V25  1  0.75685247  0.12366131  0.37472572  1
  V  V26  1  0.23939480  0.74260454  0.01051851  1
  V  V27  1  0.37578382  0.11325007  0.25091569  1
  V  V28  1  -0.01152715  -0.00768044  -0.01024476  1
  V  V29  1  0.37470566  0.24842490  0.12432688  1
  V  V30  1  0.07492945  -0.04820952  0.17442907  1
  V  V31  1  0.50334559  -0.00670441  -0.01056190  1
  V  V32  1  0.75157880  0.25476921  -0.01661386  1
  V  V33  1  0.62851567  0.37464639  0.24488835  1
  V  V34  1  0.40198316  0.73682407  0.11722353  1
  V  V35  1  0.38098101  0.37520726  -0.00763711  1
  V  V36  1  0.62766215  0.87046736  0.73527305  1
  V  V37  1  0.87844227  0.74302687  0.12536348  1
  V  V38  1  0.52655045  0.36638432  0.86805475  1
  V  V39  1  0.51796139  0.11608302  0.12501040  1
  V  V40  1  0.49173068  0.48800678  0.52254317  1
  V  V41  1  0.39905048  0.13317820  0.75724304  1
  V  V42  1  0.85892370  0.87251936  0.50187208  1
  V  V43  1  0.25152957  0.01678949  0.75566346  1
  V  V44  1  0.00630320  0.37880951  0.85305282  1
  V  V45  1  0.47848656  -0.00458927  0.50860106  1
  V  V46  1  0.01657703  -0.00785824  0.49563248  1
  V  V47  1  0.88888016  0.37577619  0.00188021  1
  V  V48  1  0.25091558  -0.00708790  0.24470532  1
  V  V49  1  0.11820235  0.24638639  0.86517761  1
  V  V50  1  0.38675858  0.24839723  0.62320833  1
  V  V51  1  0.36842263  0.59694684  0.75789855  1
  V  V52  1  0.37088188  0.60193296  0.27607443  1
  V  V53  1  0.13055410  0.11399900  0.00012395  1
  V  V54  1  0.75858096  0.25830038  0.50295335  1
  V  V55  1  0.48869224  0.37538131  0.38315788  1
  V  V56  1  0.23503149  0.38422831  0.13174413  1
  V  V57  1  0.63245861  0.12945958  -0.02221107  1
  V  V58  1  -0.00100468  0.87296929  0.85888766  1
  V  V59  1  0.74867046  0.72101748  -0.00673302  1
  V  V60  1  0.01002977  0.65008081  0.63086622  1
  V  V61  1  0.75926385  -0.01008871  0.74711004  1
  V  V62  1  0.49339977  0.51520247  -0.00260844  1
  V  V63  1  0.12442888  0.25404026  0.36691940  1
  V  V64  1  0.87160501  0.50253187  0.86475886  1
  V  V65  1  0.13662520  0.62132671  0.49963780  1
  V  V66  1  0.61990355  0.87351924  0.25790874  1
  V  V67  1  0.49524145  0.63291250  0.63240673  1
  V  V68  1  0.61733394  0.11685209  0.51074855  1
  V  V69  1  0.24707352  0.37753052  0.64446696  1
  Zn  Zn70  1  -0.00015183  0.26730294  0.25668309  1
  Zn  Zn71  1  0.46471762  0.87182035  0.39913778  1
  Zn  Zn72  1  0.37689368  -0.00520668  0.87522322  1
  Zn  Zn73  1  0.62139457  0.62900445  0.49252359  1
  Zn  Zn74  1  0.51101894  0.73315723  0.27974764  1
  Zn  Zn75  1  0.87005142  0.23883783  0.14544710  1
  Zn  Zn76  1  0.18557804  0.18473061  0.18589166  1
  Zn  Zn77  1  0.18985322  0.18540237  0.68378419  1
  Zn  Zn78  1  0.19120024  0.68967744  0.21132094  1
  Zn  Zn79  1  0.19857821  0.68004592  0.68578026  1
  Zn  Zn80  1  0.69645858  0.19416633  0.18596116  1
  Zn  Zn81  1  0.71211066  0.14429127  0.66564476  1
  Zn  Zn82  1  0.68389147  0.70125343  0.17864683  1
  Zn  Zn83  1  0.66114851  0.63850965  0.72370494  1
  Zn  Zn84  1  0.30874210  0.31087481  0.31085412  1
  Zn  Zn85  1  0.31440745  0.30420103  0.81186524  1
  Zn  Zn86  1  0.30990857  0.76747904  0.34048439  1
  Zn  Zn87  1  0.30495915  0.81389663  0.81808214  1
  Zn  Zn88  1  0.82073577  0.31957864  0.31815302  1
  Zn  Zn89  1  0.81693852  0.31414467  0.80362610  1
  Zn  Zn90  1  0.80786366  0.81578101  0.31412921  1
  Zn  Zn91  1  0.80702036  0.81313097  0.81484139  1
  Zn  Zn92  1  0.20176959  0.44028831  0.43824751  1
  Zn  Zn93  1  0.20030121  0.41510599  0.92874899  1
  Zn  Zn94  1  0.21685238  0.93772524  0.44509599  1
  Zn  Zn95  1  0.18660209  0.92998247  0.93151678  1
  Zn  Zn96  1  0.67496494  0.44131234  0.45123773  1
  Zn  Zn97  1  0.69157284  0.44953962  0.94821712  1
  Zn  Zn98  1  0.68143674  0.93744441  0.43915883  1
  Zn  Zn99  1  0.67350081  0.94061646  0.91801643  1
  Zn  Zn100  1  0.32131004  0.06134461  0.06195502  1
  Zn  Zn101  1  0.31804826  0.06794629  0.57200213  1
  Zn  Zn102  1  0.31363941  0.56311502  0.06736907  1
  Zn  Zn103  1  0.31433212  0.55394888  0.56614333  1
  Zn  Zn104  1  0.81301299  0.06535163  0.05471197  1
  Zn  Zn105  1  0.81787126  0.06064251  0.56215476  1
  Zn  Zn106  1  0.82211836  0.54861271  0.08214711  1
  Zn  Zn107  1  0.78745488  0.59479819  0.55284788  1
  Zn  Zn108  1  0.43508088  0.43717657  0.18531503  1
  Zn  Zn109  1  0.43583398  0.42267759  0.69613830  1
  Zn  Zn110  1  0.40614824  0.88977978  0.23473121  1
  Zn  Zn111  1  0.43843762  0.94304102  0.68978332  1
  Zn  Zn112  1  0.93513189  0.45020277  0.21460797  1
  Zn  Zn113  1  0.89649931  0.46712901  0.64323656  1
  Zn  Zn114  1  0.90747314  0.89271473  0.20679735  1
  Zn  Zn115  1  0.94092657  0.94117985  0.68276835  1
  Zn  Zn116  1  0.06624017  0.06963328  0.31954068  1
  Zn  Zn117  1  0.06154257  0.06335197  0.81128239  1
  Zn  Zn118  1  0.09924015  0.52515398  0.34731295  1
  Zn  Zn119  1  0.06233221  0.56238015  0.80998694  1
  Zn  Zn120  1  0.55824394  0.05279206  0.32360004  1
  Zn  Zn121  1  0.57327835  0.05698365  0.80427785  1
  Zn  Zn122  1  0.55362392  0.54991727  0.30502872  1
  Zn  Zn123  1  0.55101973  0.55233749  0.82383319  1
  Zn  Zn124  1  0.43346684  0.18449070  0.44016270  1
  Zn  Zn125  1  0.44591886  0.19022983  0.93496901  1
  Zn  Zn126  1  0.41855398  0.66889825  0.44975506  1
  Zn  Zn127  1  0.43091048  0.81617819  0.94743075  1
  Zn  Zn128  1  0.94192711  0.18126105  0.44202443  1
  Zn  Zn129  1  0.94467931  0.18955734  0.94223738  1
  Zn  Zn130  1  0.95881069  0.70148623  0.44696278  1
  Zn  Zn131  1  0.92146628  0.71643725  0.91731218  1
  Zn  Zn132  1  0.06457225  0.30494482  0.05967393  1
  Zn  Zn133  1  0.06104134  0.31639184  0.54951154  1
  Zn  Zn134  1  0.06128643  0.80714716  0.05434938  1
  Zn  Zn135  1  0.07218406  0.81782616  0.55937478  1
  Zn  Zn136  1  0.56735449  0.30921733  0.05995447  1
  Zn  Zn137  1  0.57607626  0.30853296  0.56921031  1
  Zn  Zn138  1  0.57801169  0.81907319  0.06632879  1
  Zn  Zn139  1  0.55294573  0.80513702  0.55898275  1
  O  O140  1  0.11664515  0.12720296  0.10805001  1
  O  O141  1  0.11156444  0.12007008  0.62764416  1
  O  O142  1  0.12208657  0.60405284  0.16264816  1
  O  O143  1  0.11608707  0.61585835  0.63098469  1
  O  O144  1  0.61867749  0.12919427  0.12860276  1
  O  O145  1  0.61617899  0.14253010  0.60911917  1
  O  O146  1  0.62711458  0.61067691  0.13782042  1
  O  O147  1  0.59773724  0.62672022  0.62587227  1
  O  O148  1  0.39069031  0.35612029  0.37705110  1
  O  O149  1  0.36878349  0.36929544  0.89184707  1
  O  O150  1  0.37014910  0.86206199  0.34139868  1
  O  O151  1  0.37091642  0.88070866  0.87810147  1
  O  O152  1  0.86157480  0.40722610  0.37951266  1
  O  O153  1  0.88702440  0.38257588  0.87273633  1
  O  O154  1  0.86999439  0.87966639  0.39046545  1
  O  O155  1  0.89896404  0.85042050  0.87397330  1
  O  O156  1  0.24792969  0.01094698  0.36412346  1
  O  O157  1  0.24886983  -0.00591748  0.85691660  1
  O  O158  1  0.20456743  0.49784642  0.34428079  1
  O  O159  1  0.23279329  0.51492976  0.89281764  1
  O  O160  1  0.75703841  0.00637502  0.36928468  1
  O  O161  1  0.73784430  0.00336696  0.84616730  1
  O  O162  1  0.70586335  0.52602946  0.36729496  1
  O  O163  1  0.77301127  0.49679836  0.87876872  1
  O  O164  1  0.24822140  0.48320833  0.11605823  1
  O  O165  1  0.24667406  0.47943342  0.62693099  1
  O  O166  1  0.25549264  0.98853308  0.12377472  1
  O  O167  1  0.23742322  1.01264157  0.63227676  1
  O  O168  1  0.71885696  0.48546528  0.09492811  1
  O  O169  1  0.81518090  0.49567260  0.57516070  1
  O  O170  1  0.75964861  0.99800647  0.13690820  1
  O  O171  1  0.74338658  1.02624807  0.64548527  1
  O  O172  1  -0.00502719  0.38308157  0.28524547  1
  O  O173  1  0.00354496  0.37018274  0.75772015  1
  O  O174  1  0.01490061  0.90282314  0.23719659  1
  O  O175  1  0.00431347  0.88472685  0.76006158  1
  O  O176  1  0.50412511  0.36149015  0.25791223  1
  O  O177  1  0.51028978  0.38054638  0.76862485  1
  O  O178  1  0.52214976  0.89773332  0.24779341  1
  O  O179  1  0.50768664  0.86005665  0.74060634  1
  O  O180  1  0.49841663  0.12539147  0.24346200  1
  O  O181  1  0.49799771  0.12419943  0.74866597  1
  O  O182  1  0.47814980  0.62396601  0.26497572  1
  O  O183  1  0.48345761  0.63015383  0.75253944  1
  O  O184  1  1.00643739  0.11017184  0.22958891  1
  O  O185  1  0.99030215  0.11194600  0.73224730  1
  O  O186  1  1.03726069  0.70628582  0.29712250  1
  O  O187  1  0.99204757  0.62146760  0.73442599  1
  O  O188  1  0.37017582  0.25148541  0.00575036  1
  O  O189  1  0.36219717  0.23978326  0.51415837  1
  O  O190  1  0.35702867  0.75420865  0.01552187  1
  O  O191  1  0.33141648  0.74087671  0.45776726  1
  O  O192  1  0.86386562  0.25642445  -0.00848391  1
  O  O193  1  0.86529825  0.24603052  0.50382614  1
  O  O194  1  0.85386011  0.74393648  0.00323737  1
  O  O195  1  0.88483722  0.76557841  0.51187749  1
  O  O196  1  0.14250266  0.24437147  0.49416074  1
  O  O197  1  0.13311583  0.23710361  0.99241287  1
  O  O198  1  0.14476858  0.74029747  0.51678768  1
  O  O199  1  0.13633712  0.74448717  0.99481795  1
  O  O200  1  0.63529823  0.24107947  0.49224335  1
  O  O201  1  0.64091558  0.24151877  1.00260087  1
  O  O202  1  0.57386856  0.73932824  0.46005086  1
  O  O203  1  0.63860698  0.75689811  0.98716591  1
  O  O204  1  0.49704687  0.24226842  0.13509094  1
  O  O205  1  0.48495833  0.26070321  0.61837627  1
  O  O206  1  0.49818390  0.73991800  0.08957885  1
  O  O207  1  0.48823181  0.73678626  0.63908672  1
  O  O208  1  1.00273315  0.23553493  0.13046081  1
  O  O209  1  0.99314548  0.23483295  0.60770529  1
  O  O210  1  0.97677922  0.74997996  0.10324356  1
  O  O211  1  1.01037259  0.75080867  0.63471121  1
  O  O212  1  0.02200777  0.22956153  0.37851069  1
  O  O213  1  0.01149141  0.25973315  0.87533043  1
  O  O214  1  0.00218452  0.75597749  0.35098878  1
  O  O215  1  0.01848800  0.75467918  0.87406226  1
  O  O216  1  0.50847953  0.24940727  0.36946163  1
  O  O217  1  0.50797302  0.26677377  0.87964875  1
  O  O218  1  0.50403046  0.74601739  0.40590776  1
  O  O219  1  0.50744164  0.75760612  0.87077617  1
  O  O220  1  0.25739285  0.12662040  0.48638506  1
  O  O221  1  0.24100400  0.12810671  1.00449576  1
  O  O222  1  0.24102903  0.63039760  0.51951099  1
  O  O223  1  0.25293237  0.63575491  0.99374623  1
  O  O224  1  0.74169299  0.13108656  0.49162089  1
  O  O225  1  0.74160928  0.13748607  0.99953560  1
  O  O226  1  0.72713126  0.66641852  0.50149893  1
  O  O227  1  0.74754500  0.62369061  1.00422059  1
  O  O228  1  0.26201993  0.36228997  0.01198238  1
  O  O229  1  0.25456554  0.36158575  0.50247266  1
  O  O230  1  0.24266703  0.86478547  0.01118921  1
  O  O231  1  0.24841952  0.86142390  0.51734952  1
  O  O232  1  0.76091026  0.36593752  0.00762139  1
  O  O233  1  0.73981766  0.35673677  0.49594201  1
  O  O234  1  0.73625527  0.89796973  0.00564773  1
  O  O235  1  0.75983834  0.87759047  0.50379589  1
  O  O236  1  0.07796777  0.55292359  0.20699941  1
  O  O237  1  0.12286550  0.49828261  0.73265068  1
  O  O238  1  0.13536001  1.00847061  0.23983167  1
  O  O239  1  0.13878172  1.00622078  0.74188027  1
  O  O240  1  0.61177053  0.48308944  0.22998491  1
  O  O241  1  0.63341324  0.53203926  0.75320915  1
  O  O242  1  0.64159823  0.99761797  0.25679450  1
  O  O243  1  0.62524144  0.97581859  0.74089306  1
  O  O244  1  0.36766371  0.00722830  0.24115863  1
  O  O245  1  0.37068711  0.02042371  0.75070085  1
  O  O246  1  0.36399492  0.50791407  0.23965464  1
  O  O247  1  0.37584199  0.49857711  0.76317478  1
  O  O248  1  0.86367338  -0.01362614  0.26570271  1
  O  O249  1  0.86715652  0.00599164  0.74626472  1
  O  O250  1  0.83111980  0.46759968  0.17687671  1
  O  O251  1  0.87873962  0.50985064  0.75715116  1
  O  O252  1  0.13283253  0.35221159  0.38084515  1
  O  O253  1  0.11474255  0.36285359  0.87946566  1
  O  O254  1  0.15166251  0.85913302  0.37074130  1
  O  O255  1  0.11742313  0.85889208  0.87561587  1
  O  O256  1  0.61776310  0.36197337  0.36742102  1
  O  O257  1  0.62512774  0.38004558  0.88511510  1
  O  O258  1  0.63547778  0.87155795  0.35965209  1
  O  O259  1  0.63169878  0.85666120  0.85138905  1
  O  O260  1  0.38782741  0.13275265  0.13056582  1
  O  O261  1  0.37393101  0.14082594  0.63923592  1
  O  O262  1  0.37039793  0.63897435  0.13376188  1
  O  O263  1  0.38058698  0.60880480  0.64811772  1
  O  O264  1  0.89299004  0.12547830  0.11394440  1
  O  O265  1  0.88614805  0.12989427  0.63105802  1
  O  O266  1  0.85750316  0.64404201  0.13423011  1
  O  O267  1  0.89227996  0.64642728  0.62833809  1
  O  O268  1  0.25914499  0.24817224  0.11507720  1
  O  O269  1  0.24840984  0.25721921  0.61469152  1
  O  O270  1  0.23601940  0.75730242  0.11950391  1
  O  O271  1  0.27335098  0.74391880  0.62627425  1
  O  O272  1  0.75797641  0.26546682  0.12090174  1
  O  O273  1  0.76465782  0.23877035  0.61085846  1
  O  O274  1  0.74746229  0.76253551  0.10296471  1
  O  O275  1  0.76650000  0.75302219  0.62749667  1
  O  O276  1  0.24757413  0.24053255  0.38346135  1
  O  O277  1  0.23737165  0.25843143  0.88822109  1
  O  O278  1  0.18414390  0.79168612  0.35683077  1
  O  O279  1  0.23971670  0.74426312  0.88618606  1
  O  O280  1  0.74720420  0.24284021  0.38312869  1
  O  O281  1  0.75006421  0.26214531  0.88438879  1
  O  O282  1  0.74880037  0.71348517  0.33588342  1
  O  O283  1  0.74292663  0.74319519  0.88406798  1
  O  O284  1  0.01064659  0.11381231  0.00504162  1
  O  O285  1  -0.00699063  0.10403872  0.51463140  1
  O  O286  1  0.05682511  0.57926620  0.01606537  1
  O  O287  1  0.01826076  0.63665804  0.52049687  1
  O  O288  1  0.51847669  0.13402505  0.01048744  1
  O  O289  1  0.51167632  0.11507932  0.49056854  1
  O  O290  1  0.47981648  0.60929420  -0.00963503  1
  O  O291  1  0.48437525  0.61189797  0.52460477  1
  O  O292  1  0.51095643  0.37806757  0.49310845  1
  O  O293  1  0.48786233  0.36806491  0.99654786  1
  O  O294  1  0.48936353  0.88665006  0.51066248  1
  O  O295  1  0.50867262  0.89038836  1.00264453  1
  O  O296  1  0.99729081  0.37097336  0.47180729  1
  O  O297  1  0.99026993  0.36350610  0.99087760  1
  O  O298  1  0.99951241  0.88894833  0.50222067  1
  O  O299  1  1.00510319  0.89001315  0.99335405  1
  O  O300  1  0.49665374  0.47590724  0.37357307  1
  O  O301  1  0.49655150  0.48142021  0.89370600  1
  O  O302  1  0.50675492  0.98761300  0.39852232  1
  O  O303  1  0.50671536  1.00277020  0.88565259  1
  O  O304  1  0.99296333  0.51312178  0.37788047  1
  O  O305  1  0.99594534  0.48650286  0.86998528  1
  O  O306  1  0.99616999  1.00787630  0.38936309  1
  O  O307  1  1.00669684  0.98667538  0.88069411  1
  O  O308  1  0.01003693  0.00549767  0.10776713  1
  O  O309  1  0.01523423  0.00392640  0.61670435  1
  O  O310  1  0.00088370  0.54660779  0.18109386  1
  O  O311  1  0.00871117  0.49491860  0.62129385  1
  O  O312  1  0.50558586  0.01766281  0.10874761  1
  O  O313  1  0.49336304  0.00396663  0.61064845  1
  O  O314  1  0.50644195  0.49380964  0.11263736  1
  O  O315  1  0.49790997  0.49149390  0.62495900  1
  O  O316  1  0.25499725  0.36490402  0.22975936  1
  O  O317  1  0.24306650  0.36721523  0.74366071  1
  O  O318  1  0.24540902  0.88805135  0.23169106  1
  O  O319  1  0.27986342  0.89681422  0.73007521  1
  O  O320  1  0.73581197  0.36528260  0.24680459  1
  O  O321  1  0.74076858  0.37771518  0.73298792  1
  O  O322  1  0.74313201  0.88823797  0.24482745  1
  O  O323  1  0.74701521  0.88140343  0.74163958  1
  O  O324  1  0.25959153  0.11482504  0.24807503  1
  O  O325  1  0.25716163  0.11920821  0.75231641  1
  O  O326  1  0.28561241  0.67422975  0.27368109  1
  O  O327  1  0.26007917  0.61811357  0.76168580  1
  O  O328  1  0.74872810  0.11474690  0.25919434  1
  O  O329  1  0.76912557  0.12420510  0.76046841  1
  O  O330  1  0.75389997  0.66685783  0.27500611  1
  O  O331  1  0.77434374  0.62664058  0.73660937  1
  O  O332  1  0.36391688  0.13205009  0.36070209  1
  O  O333  1  0.38299264  0.12874032  0.86128331  1
  O  O334  1  0.37322617  0.59226876  0.37593230  1
  O  O335  1  0.35541461  0.61903026  0.86759590  1
  O  O336  1  0.86612730  0.11055974  0.38538410  1
  O  O337  1  0.89496009  0.12882764  0.85803923  1
  O  O338  1  0.88133852  0.63157798  0.37806001  1
  O  O339  1  0.88890790  0.61743732  0.86092283  1
  O  O340  1  0.13524553  0.37049108  0.11853646  1
  O  O341  1  0.13255099  0.38035772  0.61752314  1
  O  O342  1  0.12752381  0.88090175  0.12189935  1
  O  O343  1  0.12823496  0.89075601  0.63171776  1
  O  O344  1  0.63412776  0.37064680  0.13266401  1
  O  O345  1  0.64092768  0.37423473  0.64476052  1
  O  O346  1  0.64331783  0.87912776  0.13715843  1
  O  O347  1  0.62666021  0.84711520  0.63671339  1
  O  O348  1  0.12255611  0.24598281  0.26039164  1
  O  O349  1  0.13135612  0.23986031  0.76693824  1
  O  O350  1  0.08512984  0.74406213  0.24634776  1
  O  O351  1  0.14058978  0.75476520  0.75625502  1
  O  O352  1  0.61759365  0.25161435  0.25730728  1
  O  O353  1  0.68001375  0.33546181  0.70363157  1
  O  O354  1  0.61369241  0.76570061  0.24285866  1
  O  O355  1  0.61357387  0.74511978  0.75994408  1
  O  O356  1  0.38423522  0.23795878  0.24315589  1
  O  O357  1  0.37651845  0.24091929  0.74098834  1
  O  O358  1  0.41431829  0.76572521  0.22013803  1
  O  O359  1  0.38587917  0.74724466  0.76401533  1
  O  O360  1  0.88608479  0.25140479  0.25809897  1
  O  O361  1  0.87385448  0.23685153  0.73505817  1
  O  O362  1  0.87669323  0.77650971  0.22767344  1
  O  O363  1  0.87650252  0.74374824  0.74246666  1
  O  O364  1  0.39088279  0.49163413  0.50590827  1
  O  O365  1  0.38156216  0.48128413  1.01142114  1
  O  O366  1  0.37805920  1.00636000  0.49833857  1
  O  O367  1  0.39864714  1.01491599  0.99293863  1
  O  O368  1  0.83770935  0.58319902  0.41432404  1
  O  O369  1  0.87786139  0.48250462  0.99253440  1
  O  O370  1  0.88158218  0.98646478  0.49638864  1
  O  O371  1  0.88998479  1.00485673  0.99331221  1
  O  O372  1  0.12504444  0.01181350  -0.01007958  1
  O  O373  1  0.12168727  -0.00554598  0.50703215  1
  O  O374  1  0.08204195  0.51264443  0.03072818  1
  O  O375  1  0.13546254  0.51399306  0.51681058  1
  O  O376  1  0.61779435  0.02058729  -0.00884315  1
  O  O377  1  0.63173496  0.01584621  0.50560734  1
  O  O378  1  0.60512906  0.50526852  0.00716924  1
  O  O379  1  0.59735262  0.51242254  0.49551471  1
  O  O380  1  0.37575152  0.35838374  0.11806507  1
  O  O381  1  0.35833271  0.35857720  0.63528290  1
  O  O382  1  0.36001770  0.86404910  0.12250110  1
  O  O383  1  0.33369177  0.88682166  0.67117228  1
  O  O384  1  0.88250276  0.35918914  0.10482157  1
  O  O385  1  0.88788013  0.35156659  0.63044048  1
  O  O386  1  0.85295495  0.86885686  0.10927513  1
  O  O387  1  0.87940512  0.86931711  0.61675107  1
  O  O388  1  0.14763352  0.13236132  0.36995157  1
  O  O389  1  0.11522863  0.13599960  0.88744246  1
  O  O390  1  0.12561251  0.62985341  0.40078468  1
  O  O391  1  0.13545192  0.63725027  0.86387346  1
  O  O392  1  0.63404158  0.13388485  0.37991674  1
  O  O393  1  0.62416009  0.13345488  0.87940537  1
  O  O394  1  0.65214419  0.58369539  0.36344868  1
  O  O395  1  0.61517440  0.64178496  0.87608983  1
