# generated using pymatgen
data_V35Zn35O128
_symmetry_space_group_name_H-M   'P 1'
_cell_length_a   16.84612531
_cell_length_b   16.85704436
_cell_length_c   16.81873902
_cell_angle_alpha   90.14011193
_cell_angle_beta   90.01708576
_cell_angle_gamma   90.00300935
_symmetry_Int_Tables_number   1
_chemical_formula_structural   V35Zn35O128
_chemical_formula_sum   'V70 Zn70 O256'
_cell_volume   4776.10174106
_cell_formula_units_Z   2
loop_
 _symmetry_equiv_pos_site_id
 _symmetry_equiv_pos_as_xyz
  1  'x, y, z'
loop_
 _atom_site_type_symbol
 _atom_site_label
 _atom_site_symmetry_multiplicity
 _atom_site_fract_x
 _atom_site_fract_y
 _atom_site_fract_z
 _atom_site_occupancy
  V  V0  1  0.67102944  0.47876749  0.66694579  1
  V  V1  1  0.50218463  -0.00332351  -0.00846926  1
  V  V2  1  0.11716472  0.38410394  0.25495766  1
  V  V3  1  0.00556725  0.88354121  0.88007755  1
  V  V4  1  0.50171992  0.62343395  0.13084552  1
  V  V5  1  0.88635888  0.25528316  0.12719172  1
  V  V6  1  0.24832630  0.24951293  0.48435048  1
  V  V7  1  0.75682403  0.27498407  0.48675793  1
  V  V8  1  0.73791654  0.85847216  0.64704929  1
  V  V9  1  0.76336223  0.10626281  0.37903146  1
  V  V10  1  0.49835602  0.34644818  0.87014946  1
  V  V11  1  0.36359463  0.13313776  0.25452650  1
  V  V12  1  0.62873182  0.13217666  -0.00526351  1
  V  V13  1  0.10640957  0.25148002  0.36882398  1
  V  V14  1  0.70882694  0.74683746  0.49043273  1
  V  V15  1  0.75295682  0.88066260  0.13848740  1
  V  V16  1  0.38292657  0.87209432  -0.00919487  1
  V  V17  1  0.75110875  0.51516623  0.24754920  1
  V  V18  1  0.49571546  0.77327879  0.77836500  1
  V  V19  1  0.37033100  0.38384132  0.01001765  1
  V  V20  1  0.37172726  0.74655957  0.13810688  1
  V  V21  1  0.61442216  0.49327176  0.13184778  1
  V  V22  1  0.74999422  0.01600907  0.74883603  1
  V  V23  1  0.36190047  -0.00705639  0.36760414  1
  V  V24  1  0.37725810  0.37870948  0.49817438  1
  V  V25  1  0.37824715  0.49827698  0.36029144  1
  V  V26  1  0.11964302  0.75499530  0.35521150  1
  V  V27  1  0.25780245  0.88979054  0.13598143  1
  V  V28  1  -0.01420898  0.60794903  0.12198207  1
  V  V29  1  0.74838499  0.65431285  0.87577000  1
  V  V30  1  0.50092481  0.50496852  -0.01287423  1
  V  V31  1  0.13270255  0.62558233  0.49477513  1
  V  V32  1  -0.00212787  0.11911412  0.13260116  1
  V  V33  1  0.87569804  0.01772139  0.87089973  1
  V  V34  1  0.12732074  0.11826156  -0.00602829  1
  V  V35  1  0.50037558  0.13742672  0.14025980  1
  V  V36  1  0.12796967  0.74779850  0.87864706  1
  V  V37  1  0.00551015  0.62581292  0.62533069  1
  V  V38  1  0.49009500  -0.01470535  0.50330767  1
  V  V39  1  0.49504988  0.13822222  0.63055810  1
  V  V40  1  0.52325340  0.75083360  0.25430363  1
  V  V41  1  0.62640169  -0.00470951  0.14315904  1
  V  V42  1  0.00440692  0.76557882  0.74263093  1
  V  V43  1  0.88082422  0.50199816  0.35960306  1
  V  V44  1  0.24951446  0.51139262  0.76775268  1
  V  V45  1  0.26171694  0.75436404  0.50462423  1
  V  V46  1  0.13350349  0.37309348  0.74615410  1
  V  V47  1  -0.00528398  0.38585366  0.88042898  1
  V  V48  1  0.49438658  0.51766309  0.51772730  1
  V  V49  1  0.86459868  0.86747983  -0.01195381  1
  V  V50  1  0.59602291  0.16396520  0.48019311  1
  V  V51  1  0.74592140  0.36581582  0.12439237  1
  V  V52  1  0.36277313  0.25212920  0.63501688  1
  V  V53  1  0.87466412  0.26408177  0.61792419  1
  V  V54  1  0.87612987  0.61782234  0.75585351  1
  V  V55  1  0.00100671  0.23927214  0.74999660  1
  V  V56  1  0.25697273  0.61985938  0.35440182  1
  V  V57  1  0.25230175  0.25708301  0.02203197  1
  V  V58  1  0.12543139  -0.00922129  0.62344681  1
  V  V59  1  0.39102041  0.62094867  0.75744835  1
  V  V60  1  0.00008188  0.12183822  0.60732179  1
  V  V61  1  0.13342993  0.00279147  0.13795759  1
  V  V62  1  0.87115387  0.74385569  0.13369727  1
  V  V63  1  0.13962712  0.24600310  0.87199991  1
  V  V64  1  0.13934040  0.49418829  0.61907432  1
  V  V65  1  0.51413261  0.87276661  0.37222692  1
  V  V66  1  0.61749823  -0.01187952  0.62864528  1
  V  V67  1  0.26451449  0.01181675  0.75796748  1
  V  V68  1  -0.00553212  0.49072531  0.49408445  1
  V  V69  1  0.14282855  0.49557611  0.12090541  1
  Zn  Zn70  1  0.25223710  0.87288855  0.62181916  1
  Zn  Zn71  1  0.13300048  0.11431659  0.48543157  1
  Zn  Zn72  1  0.12254890  0.61466844  -0.00349141  1
  Zn  Zn73  1  0.25254564  0.74774836  -0.00277101  1
  Zn  Zn74  1  0.86358364  0.74281823  0.60233557  1
  Zn  Zn75  1  0.74962277  0.25131189  -0.02017121  1
  Zn  Zn76  1  0.18240232  0.19137829  0.19452095  1
  Zn  Zn77  1  0.18740850  0.18127841  0.67947324  1
  Zn  Zn78  1  0.18682387  0.67854250  0.17332564  1
  Zn  Zn79  1  0.18693802  0.69174833  0.68984616  1
  Zn  Zn80  1  0.69835474  0.17201044  0.18916959  1
  Zn  Zn81  1  0.69192744  0.18239676  0.65355072  1
  Zn  Zn82  1  0.68724428  0.68785503  0.16974977  1
  Zn  Zn83  1  0.66106480  0.66764089  0.71291024  1
  Zn  Zn84  1  0.30835159  0.31476037  0.30819275  1
  Zn  Zn85  1  0.31857505  0.32142555  0.81945339  1
  Zn  Zn86  1  0.31262954  0.81248570  0.31874412  1
  Zn  Zn87  1  0.31095354  0.81586169  0.80331869  1
  Zn  Zn88  1  0.81897565  0.32050537  0.30585594  1
  Zn  Zn89  1  0.83039004  0.29474950  0.82246798  1
  Zn  Zn90  1  0.77793141  0.77852894  0.29961801  1
  Zn  Zn91  1  0.82180829  0.81909824  0.79514543  1
  Zn  Zn92  1  0.19613428  0.43275252  0.43210383  1
  Zn  Zn93  1  0.17690662  0.42917960  0.93920141  1
  Zn  Zn94  1  0.17985093  0.93124467  0.43689491  1
  Zn  Zn95  1  0.19858594  0.93307622  0.94023845  1
  Zn  Zn96  1  0.67729867  0.46248921  0.43208172  1
  Zn  Zn97  1  0.67807045  0.42916611  0.93783666  1
  Zn  Zn98  1  0.69123219  0.93314586  0.45352873  1
  Zn  Zn99  1  0.69580369  0.95661708  0.94240853  1
  Zn  Zn100  1  0.32180613  0.07147099  0.05314955  1
  Zn  Zn101  1  0.30959367  0.06534720  0.56173279  1
  Zn  Zn102  1  0.30549505  0.57047957  -0.05371824  1
  Zn  Zn103  1  0.32181012  0.57274038  0.56884444  1
  Zn  Zn104  1  0.81556046  0.06066914  0.05821139  1
  Zn  Zn105  1  0.81899857  0.07711046  0.54309146  1
  Zn  Zn106  1  0.79034301  0.57142310  0.05387829  1
  Zn  Zn107  1  0.81275249  0.57027351  0.55800674  1
  Zn  Zn108  1  0.30870968  0.43801833  0.18687472  1
  Zn  Zn109  1  0.43228366  0.43096898  0.69483062  1
  Zn  Zn110  1  0.43994528  0.93785559  0.19176221  1
  Zn  Zn111  1  0.43268810  0.94454563  0.70635912  1
  Zn  Zn112  1  0.93386978  0.43109449  0.18758908  1
  Zn  Zn113  1  0.94765082  0.43862010  0.69098327  1
  Zn  Zn114  1  0.95527710  0.92130011  0.17740643  1
  Zn  Zn115  1  0.90993548  0.95388856  0.65095990  1
  Zn  Zn116  1  0.05950115  0.06369331  0.31160488  1
  Zn  Zn117  1  0.07321366  0.05696962  0.80514868  1
  Zn  Zn118  1  0.06086366  0.57244041  0.30288503  1
  Zn  Zn119  1  0.06337725  0.56432591  0.81004764  1
  Zn  Zn120  1  0.56393973  0.06202869  0.31956669  1
  Zn  Zn121  1  0.55970948  0.07198918  0.81153676  1
  Zn  Zn122  1  0.56381103  0.56283133  0.32171842  1
  Zn  Zn123  1  0.58592724  0.54050465  0.79700538  1
  Zn  Zn124  1  0.42608394  0.17923631  0.43919112  1
  Zn  Zn125  1  0.42853701  0.18143260  0.94579874  1
  Zn  Zn126  1  0.44102282  0.68626021  0.43117983  1
  Zn  Zn127  1  0.44112911  0.68715983  0.93729609  1
  Zn  Zn128  1  0.93231506  0.19163010  0.43232632  1
  Zn  Zn129  1  0.94315073  0.19614442  0.94924554  1
  Zn  Zn130  1  0.94025635  0.67612795  0.42109868  1
  Zn  Zn131  1  0.94160002  0.68654474  0.93807872  1
  Zn  Zn132  1  0.06439349  0.31790370  0.06164864  1
  Zn  Zn133  1  0.06590932  0.31198154  0.56009236  1
  Zn  Zn134  1  0.05967470  0.81907707  0.06679451  1
  Zn  Zn135  1  0.06385219  0.81086409  0.54693733  1
  Zn  Zn136  1  0.55831107  0.31634372  0.06157590  1
  Zn  Zn137  1  0.56255622  0.32759983  0.56399228  1
  Zn  Zn138  1  0.56299590  0.81864257  0.06874799  1
  Zn  Zn139  1  0.55485485  0.78452377  0.59887033  1
  O  O140  1  0.12435694  0.11700804  0.12006697  1
  O  O141  1  0.11404249  0.11986182  0.61371703  1
  O  O142  1  0.10985409  0.60530124  0.12538153  1
  O  O143  1  0.12342608  0.61520550  0.61748587  1
  O  O144  1  0.61942906  0.11176721  0.12719832  1
  O  O145  1  0.60684834  0.12460882  0.60336550  1
  O  O146  1  0.61199741  0.61580444  0.12140272  1
  O  O147  1  0.62133744  0.57020730  0.66459218  1
  O  O148  1  0.36629903  0.38932531  0.38407659  1
  O  O149  1  0.38897852  0.37108003  0.89212867  1
  O  O150  1  0.38778337  0.88764675  0.36850248  1
  O  O151  1  0.37501261  0.86461396  0.89256115  1
  O  O152  1  0.87656846  0.39960957  0.37004436  1
  O  O153  1  0.89625839  0.37832577  0.85389982  1
  O  O154  1  0.94442330  0.94968103  0.34509247  1
  O  O155  1  0.88083526  0.88017134  0.87784661  1
  O  O156  1  0.26285120  -0.01006875  0.37802444  1
  O  O157  1  0.24581365  -0.01016943  0.85604562  1
  O  O158  1  0.26036497  0.51250059  0.37601223  1
  O  O159  1  0.23766768  0.50248202  0.87110938  1
  O  O160  1  0.75284664  0.00603385  0.39450441  1
  O  O161  1  0.75773678  0.00838012  0.85972232  1
  O  O162  1  0.75899935  0.49558276  0.35083547  1
  O  O163  1  0.77448244  0.49757618  0.90639870  1
  O  O164  1  0.24141247  0.50737993  0.12420451  1
  O  O165  1  0.24006868  0.50407455  0.63126067  1
  O  O166  1  0.25204681  0.99809572  0.12150268  1
  O  O167  1  0.24068504  0.99994625  0.62618990  1
  O  O168  1  0.73687759  0.49713327  0.12590536  1
  O  O169  1  0.76151802  0.49152713  0.61906678  1
  O  O170  1  0.74210510  0.99147987  0.12351155  1
  O  O171  1  0.72935863  0.98586172  0.63187433  1
  O  O172  1  0.01478460  0.37753572  0.24776210  1
  O  O173  1  0.01818188  0.36538235  0.75235740  1
  O  O174  1  0.03244560  0.84034148  0.17809124  1
  O  O175  1  -0.00697250  0.86599644  0.75187875  1
  O  O176  1  0.59040189  0.28850595  0.27897044  1
  O  O177  1  0.49228343  0.37359977  0.77128397  1
  O  O178  1  0.50540965  0.86493395  0.26044416  1
  O  O179  1  0.49464498  0.87429814  0.76995317  1
  O  O180  1  0.50384515  0.12459382  0.24420107  1
  O  O181  1  0.50360350  0.12784229  0.72962098  1
  O  O182  1  0.50949364  0.64125939  0.24946487  1
  O  O183  1  0.48747259  0.59760757  0.76141053  1
  O  O184  1  1.01004673  0.13083533  0.23138173  1
  O  O185  1  1.01202504  0.13766931  0.74201134  1
  O  O186  1  0.99439071  0.62241354  0.22360949  1
  O  O187  1  1.00066343  0.63336123  0.74120742  1
  O  O188  1  0.35824092  0.25980280  0.00726423  1
  O  O189  1  0.36445949  0.26064649  0.49457181  1
  O  O190  1  0.38694266  0.76108527  0.01649650  1
  O  O191  1  0.36002284  0.74422371  0.49107957  1
  O  O192  1  0.85967819  0.23349864  0.02048348  1
  O  O193  1  0.86890961  0.25935392  0.50734230  1
  O  O194  1  0.87198974  0.76559115  -0.00336020  1
  O  O195  1  0.91209354  0.77089751  0.49362299  1
  O  O196  1  0.13536046  0.25737149  0.48637639  1
  O  O197  1  0.13720077  0.25328062  0.99071657  1
  O  O198  1  0.13433482  0.73833851  0.48602390  1
  O  O199  1  0.12178781  0.76262546  0.98586637  1
  O  O200  1  0.64859906  0.25375699  0.52036489  1
  O  O201  1  0.62351661  0.23470740  1.01046229  1
  O  O202  1  0.61060650  0.73248899  0.51453660  1
  O  O203  1  0.63411357  0.79453038  0.96648828  1
  O  O204  1  0.50554862  0.23598867  0.12784250  1
  O  O205  1  0.49196909  0.24279942  0.61601791  1
  O  O206  1  0.50177348  0.74840816  0.13780007  1
  O  O207  1  0.43489120  0.79608400  0.61725263  1
  O  O208  1  0.99130300  0.24399860  0.12064557  1
  O  O209  1  1.00404402  0.24261195  0.63019744  1
  O  O210  1  0.97406204  0.74376944  0.11539538  1
  O  O211  1  1.01464024  0.74278435  0.63361400  1
  O  O212  1  0.00768348  0.26017904  0.38122643  1
  O  O213  1  0.00786854  0.25089574  0.85983304  1
  O  O214  1  0.02114486  0.72875354  0.36321953  1
  O  O215  1  0.00613995  0.76565808  0.86495732  1
  O  O216  1  0.53249234  0.22814925  0.43354828  1
  O  O217  1  0.49022436  0.24465727  0.87734057  1
  O  O218  1  0.50029613  0.75955233  0.36450252  1
  O  O219  1  0.51736018  0.74319661  0.87272234  1
  O  O220  1  0.25070514  0.14387156  0.49854432  1
  O  O221  1  0.23409300  0.14654205  1.01249106  1
  O  O222  1  0.24407918  0.63127273  0.49882175  1
  O  O223  1  0.23671471  0.63582371  1.00656213  1
  O  O224  1  0.74552362  0.14417701  0.49071301  1
  O  O225  1  0.73245265  0.12351863  1.00979803  1
  O  O226  1  0.77692775  0.67985824  0.53459683  1
  O  O227  1  0.74152641  0.64048120  0.97660673  1
  O  O228  1  0.25967659  0.36833488  -0.00596913  1
  O  O229  1  0.26012400  0.36292015  0.49965289  1
  O  O230  1  0.26893965  0.87044813  0.01036028  1
  O  O231  1  0.24922068  0.85852019  0.50008586  1
  O  O232  1  0.73917130  0.36898878  0.01827349  1
  O  O233  1  0.74046646  0.37355339  0.48265592  1
  O  O234  1  0.76328021  0.88372443  0.00311989  1
  O  O235  1  0.72948003  0.84746108  0.52397976  1
  O  O236  1  0.12196291  0.49301647  0.23961013  1
  O  O237  1  0.13211409  0.49558148  0.73809175  1
  O  O238  1  0.13053883  1.00268347  0.23727424  1
  O  O239  1  0.13437230  0.99676246  0.73059841  1
  O  O240  1  0.63419774  0.50524427  0.23899533  1
  O  O241  1  0.67349912  0.46504890  0.77155038  1
  O  O242  1  0.62501732  0.99719119  0.24224226  1
  O  O243  1  0.62867367  1.01382326  0.73652069  1
  O  O244  1  0.37990514  0.00714719  0.26171581  1
  O  O245  1  0.36678305  0.02298552  0.74716116  1
  O  O246  1  0.38158531  0.49169355  0.26087671  1
  O  O247  1  0.35388835  0.50314783  0.75362277  1
  O  O248  1  0.92617281  -0.01581942  0.27302565  1
  O  O249  1  0.85896104  -0.00251022  0.75280175  1
  O  O250  1  0.86924168  0.50810806  0.25154375  1
  O  O251  1  0.89230859  0.51872090  0.74830404  1
  O  O252  1  0.12578992  0.37086688  0.36437289  1
  O  O253  1  0.11727283  0.36124163  0.86537940  1
  O  O254  1  0.12462997  0.85540995  0.37258291  1
  O  O255  1  0.10860999  0.87801801  0.87957730  1
  O  O256  1  0.59624519  0.38903912  0.36671564  1
  O  O257  1  0.59751556  0.36432070  0.89462886  1
  O  O258  1  0.61285755  0.88034022  0.37987627  1
  O  O259  1  0.63209776  0.84779631  0.91319556  1
  O  O260  1  0.39240946  0.11703291  0.14087843  1
  O  O261  1  0.38476916  0.14077916  0.61416384  1
  O  O262  1  0.38989028  0.64445337  0.12916487  1
  O  O263  1  0.36702390  0.62756287  0.65725341  1
  O  O264  1  0.89361135  0.11889615  0.12185687  1
  O  O265  1  0.89436168  0.14238670  0.61781600  1
  O  O266  1  0.87089317  0.63601762  0.10966950  1
  O  O267  1  0.89481484  0.63023599  0.62917117  1
  O  O268  1  0.23914482  0.26280736  0.12012743  1
  O  O269  1  0.25919115  0.24724238  0.61367625  1
  O  O270  1  0.26362807  0.75867948  0.12651186  1
  O  O271  1  0.24508365  0.75024895  0.61076018  1
  O  O272  1  0.74065859  0.26209004  0.13408084  1
  O  O273  1  0.77053702  0.25799483  0.62074354  1
  O  O274  1  0.75654557  0.76682318  0.12055138  1
  O  O275  1  0.71555117  0.76158685  0.66071835  1
  O  O276  1  0.24180785  0.25108657  0.38161310  1
  O  O277  1  0.24091892  0.25103140  0.87325733  1
  O  O278  1  0.24644969  0.73606415  0.38052169  1
  O  O279  1  0.23048530  0.76383690  0.87034955  1
  O  O280  1  0.76341396  0.25242240  0.38586759  1
  O  O281  1  0.74366852  0.25019901  0.86625122  1
  O  O282  1  0.72476729  0.74916388  0.38985233  1
  O  O283  1  0.75318810  0.75295468  0.85968855  1
  O  O284  1  0.02201201  0.13528813  0.01308476  1
  O  O285  1  0.00401567  0.12955775  0.50498263  1
  O  O286  1  0.00632968  0.63268786  0.01391126  1
  O  O287  1  0.01618647  0.61694053  0.50581817  1
  O  O288  1  0.50855697  0.11206986  0.02023881  1
  O  O289  1  0.49987473  0.10650218  0.50770628  1
  O  O290  1  0.49102814  0.60971143  0.01277435  1
  O  O291  1  0.47988400  0.61830131  0.51250262  1
  O  O292  1  0.48122843  0.38124843  0.49705821  1
  O  O293  1  0.48706221  0.38435546  0.99854958  1
  O  O294  1  0.49670210  0.88177939  0.48909781  1
  O  O295  1  0.49645599  0.88448260  1.00296876  1
  O  O296  1  1.01181678  0.39286067  0.49872518  1
  O  O297  1  0.99802089  0.36086732  0.97893934  1
  O  O298  1  0.96271670  0.83494406  0.49156482  1
  O  O299  1  0.98669729  0.87931059  0.98491511  1
  O  O300  1  0.47891986  0.51115247  0.38935834  1
  O  O301  1  0.51328834  0.50542435  0.88919741  1
  O  O302  1  0.49865271  0.98947005  0.38654552  1
  O  O303  1  0.50363032  1.00599183  0.89230959  1
  O  O304  1  0.99352443  0.51206585  0.38296206  1
  O  O305  1  1.01604514  0.48507988  0.87476534  1
  O  O306  1  1.00320280  0.98708730  0.38302440  1
  O  O307  1  0.98778709  0.98972093  0.85680942  1
  O  O308  1  0.01982256  0.00949657  0.12225136  1
  O  O309  1  0.01022438  0.01555138  0.63163935  1
  O  O310  1  -0.02153797  0.50697338  0.11300620  1
  O  O311  1  0.01455410  0.50792799  0.61493428  1
  O  O312  1  0.51698900  -0.00351470  0.12449744  1
  O  O313  1  0.49964944  0.00381678  0.62038914  1
  O  O314  1  0.50908511  0.50692168  0.13146567  1
  O  O315  1  0.47879763  0.49631561  0.61534454  1
  O  O316  1  0.23464544  0.37669085  0.24803567  1
  O  O317  1  0.23876077  0.38834437  0.75865351  1
  O  O318  1  0.25691064  0.87683232  0.23471767  1
  O  O319  1  0.27719503  0.89281540  0.73011837  1
  O  O320  1  0.75688436  0.39258868  0.23041348  1
  O  O321  1  0.66910450  0.29993722  0.77482282  1
  O  O322  1  0.76119503  0.87754687  0.23809022  1
  O  O323  1  0.73877119  0.89208271  0.74847009  1
  O  O324  1  0.26444556  0.12669658  0.24165070  1
  O  O325  1  0.23874652  0.11188879  0.75023717  1
  O  O326  1  0.25316453  0.62311230  0.25561004  1
  O  O327  1  0.24186018  0.61268639  0.75562905  1
  O  O328  1  0.73627977  0.12608794  0.28117401  1
  O  O329  1  0.75020460  0.11401005  0.72809904  1
  O  O330  1  0.74768786  0.61615135  0.23911775  1
  O  O331  1  0.77646709  0.63135121  0.74290215  1
  O  O332  1  0.38006688  0.10769757  0.36424608  1
  O  O333  1  0.35425044  0.09968191  0.94358092  1
  O  O334  1  0.36338196  0.61594710  0.37297237  1
  O  O335  1  0.36919015  0.62651121  0.86841750  1
  O  O336  1  0.86530299  0.11759808  0.38180983  1
  O  O337  1  0.88893580  0.11561861  0.87671181  1
  O  O338  1  0.86165676  0.60149255  0.39392417  1
  O  O339  1  0.86684962  0.63389847  0.86425849  1
  O  O340  1  0.12109807  0.38811319  0.13339852  1
  O  O341  1  0.12512562  0.38759132  0.63002532  1
  O  O342  1  0.14869992  0.89596152  0.10977319  1
  O  O343  1  0.11908604  0.88728277  0.61314949  1
  O  O344  1  0.62811802  0.38592736  0.13004733  1
  O  O345  1  0.62035297  0.39649164  0.63035672  1
  O  O346  1  0.64108923  0.88372086  0.12332748  1
  O  O347  1  0.61503116  0.88469508  0.63423610  1
  O  O348  1  0.12296118  0.26190493  0.26210516  1
  O  O349  1  0.12278740  0.25471666  0.75112379  1
  O  O350  1  0.14010862  0.74255124  0.25696933  1
  O  O351  1  0.11389522  0.75162841  0.76119911  1
  O  O352  1  0.63146031  0.32729063  0.32999299  1
  O  O353  1  0.62696949  0.24843036  0.74266857  1
  O  O354  1  0.62288515  0.75325092  0.24726250  1
  O  O355  1  0.56355025  0.73615987  0.70689699  1
  O  O356  1  0.37817270  0.23287416  0.26768424  1
  O  O357  1  0.36369802  0.25683740  0.73399658  1
  O  O358  1  0.38574687  0.75754108  0.24015170  1
  O  O359  1  0.39415154  0.73857542  0.76407307  1
  O  O360  1  0.86569764  0.24575492  0.22691321  1
  O  O361  1  0.89581652  0.24987766  0.73684454  1
  O  O362  1  0.86755666  0.74940183  0.23516367  1
  O  O363  1  0.89655522  0.74030337  0.74513826  1
  O  O364  1  0.37072864  0.48961180  0.50007918  1
  O  O365  1  0.38349267  0.49204479  0.99516856  1
  O  O366  1  0.38482703  1.00289742  0.49084355  1
  O  O367  1  0.39293562  0.98174590  1.01361393  1
  O  O368  1  0.89368478  0.49934063  0.50355183  1
  O  O369  1  0.82942011  0.49735977  0.96165287  1
  O  O370  1  0.87167142  0.98291063  0.54756515  1
  O  O371  1  0.86976005  0.99435186  0.97619044  1
  O  O372  1  0.13798721  0.01672403  0.00136128  1
  O  O373  1  0.13003582  0.00233856  0.51076503  1
  O  O374  1  0.12336362  0.49338750  0.01633964  1
  O  O375  1  0.12839321  0.50424371  0.50688298  1
  O  O376  1  0.61607350  0.00584948  0.00991048  1
  O  O377  1  0.60892817  -0.00710681  0.51803248  1
  O  O378  1  0.60785499  0.49387964  0.01506996  1
  O  O379  1  0.59629308  0.50032717  0.50740545  1
  O  O380  1  0.37478698  0.38171139  0.11058661  1
  O  O381  1  0.37712180  0.35969977  0.61228955  1
  O  O382  1  0.37165527  0.86888208  0.12281441  1
  O  O383  1  0.39887104  0.86463444  0.61601923  1
  O  O384  1  0.86507391  0.36193255  0.12016662  1
  O  O385  1  0.89275719  0.36211069  0.62733109  1
  O  O386  1  0.86718555  0.87220096  0.11196492  1
  O  O387  1  0.84463358  0.85203142  0.63949594  1
  O  O388  1  0.11671141  0.14386213  0.37250241  1
  O  O389  1  0.11931256  0.13108269  0.88672482  1
  O  O390  1  0.14092447  0.62237431  0.37784157  1
  O  O391  1  0.11405619  0.64428013  0.87803618  1
  O  O392  1  0.63213853  0.11535515  0.39656486  1
  O  O393  1  0.61876209  0.12231311  0.89508855  1
  O  O394  1  0.63867802  0.57444938  0.40638017  1
  O  O395  1  0.65569866  0.62786713  0.83445976  1
