# generated using pymatgen
data_V35Zn35O128
_symmetry_space_group_name_H-M   'P 1'
_cell_length_a   16.93828383
_cell_length_b   16.91292892
_cell_length_c   16.97611256
_cell_angle_alpha   89.75225053
_cell_angle_beta   90.19331953
_cell_angle_gamma   90.38606138
_symmetry_Int_Tables_number   1
_chemical_formula_structural   V35Zn35O128
_chemical_formula_sum   'V70 Zn70 O256'
_cell_volume   4863.06559086
_cell_formula_units_Z   2
loop_
 _symmetry_equiv_pos_site_id
 _symmetry_equiv_pos_as_xyz
  1  'x, y, z'
loop_
 _atom_site_type_symbol
 _atom_site_label
 _atom_site_symmetry_multiplicity
 _atom_site_fract_x
 _atom_site_fract_y
 _atom_site_fract_z
 _atom_site_occupancy
  V  V0  1  0.54452847  0.80701434  0.69518453  1
  V  V1  1  0.61728442  0.73874803  0.88515278  1
  V  V2  1  0.36856632  0.37554654  0.00567613  1
  V  V3  1  0.39012082  0.50743777  0.37659415  1
  V  V4  1  0.26209720  0.10508270  0.37358615  1
  V  V5  1  0.00088249  0.11776330  0.13944153  1
  V  V6  1  0.09962267  0.37909748  0.77668924  1
  V  V7  1  0.89683832  0.36384519  -0.00201234  1
  V  V8  1  0.89601121  0.62624220  0.73600549  1
  V  V9  1  0.49954748  0.00163857  -0.00120614  1
  V  V10  1  0.12889720  0.12173827  -0.00016804  1
  V  V11  1  0.62218960  0.25504930  0.88188078  1
  V  V12  1  0.24692190  0.24662979  -0.01497201  1
  V  V13  1  0.24142634  0.39526855  0.62113041  1
  V  V14  1  0.12832901  -0.00314132  0.13358891  1
  V  V15  1  0.00056243  0.61102215  0.12372518  1
  V  V16  1  0.75555479  0.76406120  0.50571881  1
  V  V17  1  0.84721323  0.25387776  0.64500984  1
  V  V18  1  0.62624405  0.88371292  0.23225079  1
  V  V19  1  0.01604589  0.26112924  0.26463737  1
  V  V20  1  0.37403513  0.62831108  0.24210569  1
  V  V21  1  0.24434032  0.61248015  0.85874600  1
  V  V22  1  0.49492573  0.12053354  0.12695848  1
  V  V23  1  -0.00976073  0.51762520  0.50800231  1
  V  V24  1  0.12877236  0.86116146  0.25435724  1
  V  V25  1  0.87237518  0.24821457  0.13163102  1
  V  V26  1  0.48871781  0.24623402  0.75463255  1
  V  V27  1  0.23485025  0.89488986  0.64717251  1
  V  V28  1  0.36890423  0.86973059  0.00319371  1
  V  V29  1  0.49068422  0.37700933  0.88301227  1
  V  V30  1  0.35937647  0.74980846  0.62310590  1
  V  V31  1  0.25452997  0.47664426  0.26025011  1
  V  V32  1  0.61851385  0.61228691  0.50263369  1
  V  V33  1  0.50063459  0.11176377  0.62239649  1
  V  V34  1  0.12102955  0.75190929  0.87191540  1
  V  V35  1  0.75794753  0.72383072  -0.01001168  1
  V  V36  1  0.13049688  0.61074168  0.00602129  1
  V  V37  1  0.86930123  0.61223767  0.25270703  1
  V  V38  1  0.62021966  0.37937564  0.73397656  1
  V  V39  1  0.75571385  0.87502304  0.09364514  1
  V  V40  1  0.50771620  0.24702000  0.24891307  1
  V  V41  1  0.64078821  0.74117117  0.36713504  1
  V  V42  1  -0.00992342  0.86320330  0.38015283  1
  V  V43  1  0.35135876  0.12378448  0.75917349  1
  V  V44  1  0.25424222  0.74048741  0.00965260  1
  V  V45  1  0.35989075  0.25098015  0.13945699  1
  V  V46  1  0.51396715  0.36876506  0.37423996  1
  V  V47  1  0.50191891  0.61924018  0.10539869  1
  V  V48  1  -0.00982862  0.75230551  0.23656215  1
  V  V49  1  0.62653032  0.12820455  0.00379304  1
  V  V50  1  0.51157553  0.73234945  0.24644355  1
  V  V51  1  0.36624063  0.49165053  0.87266585  1
  V  V52  1  0.25126414  0.87309191  0.12752041  1
  V  V53  1  0.37790480  0.36609332  0.49440708  1
  V  V54  1  0.36725329  0.25143917  0.62230896  1
  V  V55  1  0.74180924  0.36960368  0.12373952  1
  V  V56  1  0.49602738  0.61624019  0.61543637  1
  V  V57  1  0.86732291  0.36104089  0.48797134  1
  V  V58  1  0.38775571  0.62810010  0.75467640  1
  V  V59  1  0.35027109  0.00116337  0.87622096  1
  V  V60  1  0.61928860  0.49921090  0.11315641  1
  V  V61  1  0.13136087  0.66034728  0.48512143  1
  V  V62  1  0.49907652  0.87193734  0.87481917  1
  V  V63  1  0.88211587  0.50349625  0.87860514  1
  V  V64  1  0.92900989  -0.01930369  0.87392443  1
  V  V65  1  0.78146350  -0.00231352  0.22627454  1
  V  V66  1  0.13520505  0.48223221  0.13675036  1
  V  V67  1  0.87991318  -0.00435848  0.38964135  1
  V  V68  1  0.62854241  0.22197152  0.38528184  1
  V  V69  1  0.75328801  0.13153250  0.86697373  1
  Zn  Zn70  1  0.08253427  0.04928144  0.60227062  1
  Zn  Zn71  1  0.15086623  0.17315229  0.47420222  1
  Zn  Zn72  1  0.75034703  0.48293581  0.25754987  1
  Zn  Zn73  1  0.37549308  0.09860326  0.25285999  1
  Zn  Zn74  1  0.26054460  0.79358385  0.47151296  1
  Zn  Zn75  1  0.87654338  0.12769487  0.27033843  1
  Zn  Zn76  1  0.18817173  0.17740061  0.20767530  1
  Zn  Zn77  1  0.12754570  0.20831996  0.67163197  1
  Zn  Zn78  1  0.18846750  0.68342020  0.19111290  1
  Zn  Zn79  1  0.13135522  0.74073679  0.66273161  1
  Zn  Zn80  1  0.68824076  0.17490525  0.18923240  1
  Zn  Zn81  1  0.67822364  0.18787317  0.69167309  1
  Zn  Zn82  1  0.69151529  0.68161918  0.16572103  1
  Zn  Zn83  1  0.68502974  0.70035380  0.67572217  1
  Zn  Zn84  1  0.30631806  0.29185687  0.33204483  1
  Zn  Zn85  1  0.26738138  0.29574027  0.78323715  1
  Zn  Zn86  1  0.31413431  0.90170776  0.32917183  1
  Zn  Zn87  1  0.29992713  0.80544986  0.82110335  1
  Zn  Zn88  1  0.80471788  0.29990451  0.30973767  1
  Zn  Zn89  1  0.80196291  0.33814100  0.82094453  1
  Zn  Zn90  1  0.81306886  0.81021129  0.29366924  1
  Zn  Zn91  1  0.81900136  0.80462297  0.82405787  1
  Zn  Zn92  1  0.23428146  0.50388812  0.47777084  1
  Zn  Zn93  1  0.18031301  0.42858465  0.94154073  1
  Zn  Zn94  1  0.21302300  0.98015593  0.47331182  1
  Zn  Zn95  1  0.09638930  0.92684108  0.94649695  1
  Zn  Zn96  1  0.71850726  0.45474602  0.44660293  1
  Zn  Zn97  1  0.70662978  0.43120764  0.94453216  1
  Zn  Zn98  1  0.70274181  0.93260828  0.40710769  1
  Zn  Zn99  1  0.67574342  0.95136855  0.89093300  1
  Zn  Zn100  1  0.30956430  0.05985686  0.06365493  1
  Zn  Zn101  1  0.26686120  0.09428851  0.59657643  1
  Zn  Zn102  1  0.31126571  0.55157375  0.07035801  1
  Zn  Zn103  1  0.22487319  0.60471591  0.62996639  1
  Zn  Zn104  1  0.78869638  0.02158320  0.01172436  1
  Zn  Zn105  1  0.87434277  0.03876728  0.58884663  1
  Zn  Zn106  1  0.81813078  0.54428352  0.05897943  1
  Zn  Zn107  1  0.82943208  0.61401693  0.53646900  1
  Zn  Zn108  1  0.44182355  0.43440648  0.18963506  1
  Zn  Zn109  1  0.43290201  0.43692915  0.69013913  1
  Zn  Zn110  1  0.44860218  0.92307680  0.17996210  1
  Zn  Zn111  1  0.41736207  0.93914906  0.69260653  1
  Zn  Zn112  1  0.94073448  0.43168317  0.19710450  1
  Zn  Zn113  1  0.91970114  0.44307831  0.68951713  1
  Zn  Zn114  1  0.94274332  0.93914236  0.06177405  1
  Zn  Zn115  1  0.95740405  1.09921069  0.71101554  1
  Zn  Zn116  1  0.06853041  0.04936761  0.32317564  1
  Zn  Zn117  1  0.10026481  0.05994636  0.80888252  1
  Zn  Zn118  1  0.07418693  0.57138581  0.31397616  1
  Zn  Zn119  1  0.06014709  0.55412719  0.80784834  1
  Zn  Zn120  1  0.55596775  0.02189493  0.35772940  1
  Zn  Zn121  1  0.55500870  0.06160194  0.80691753  1
  Zn  Zn122  1  0.59644576  0.54174031  0.31913247  1
  Zn  Zn123  1  0.55911070  0.55353447  0.82147886  1
  Zn  Zn124  1  0.43562563  0.17651239  0.43814792  1
  Zn  Zn125  1  0.42791464  0.18799644  0.94121354  1
  Zn  Zn126  1  0.40784828  0.72716749  0.40793525  1
  Zn  Zn127  1  0.43158542  0.68578010  0.93304832  1
  Zn  Zn128  1  0.93578148  0.19531989  0.44679127  1
  Zn  Zn129  1  0.92300942  0.14789778  0.97050972  1
  Zn  Zn130  1  0.94174129  0.68641853  0.42864627  1
  Zn  Zn131  1  0.94305778  0.68293181  0.94115468  1
  Zn  Zn132  1  0.06703367  0.29927862  0.07499307  1
  Zn  Zn133  1  0.02330787  0.36281345  0.59670913  1
  Zn  Zn134  1  0.06707333  0.79854703  0.06346738  1
  Zn  Zn135  1  0.09594399  0.86880748  0.53195851  1
  Zn  Zn136  1  0.55391058  0.31050581  0.06534312  1
  Zn  Zn137  1  0.55939949  0.29903301  0.55742546  1
  Zn  Zn138  1  0.56441741  0.80927656  0.05910348  1
  Zn  Zn139  1  0.58647595  0.87438554  0.51171958  1
  O  O140  1  0.12298228  0.11293544  0.13330096  1
  O  O141  1  0.16185710  0.14064881  0.58533103  1
  O  O142  1  0.12511244  0.61120710  0.12310226  1
  O  O143  1  0.12067715  0.64705105  0.60259981  1
  O  O144  1  0.60861858  0.13378979  0.11143140  1
  O  O145  1  0.59968568  0.12459051  0.64018901  1
  O  O146  1  0.61529862  0.60895620  0.11062148  1
  O  O147  1  0.60387651  0.63798411  0.61555553  1
  O  O148  1  0.38373198  0.37023717  0.38252110  1
  O  O149  1  0.37394147  0.37796219  0.88497293  1
  O  O150  1  0.45083640  0.88742194  0.49451704  1
  O  O151  1  0.37399147  0.88279435  0.88354677  1
  O  O152  1  0.85516657  0.36477250  0.38754352  1
  O  O153  1  0.88946977  0.34084561  0.90117767  1
  O  O154  1  0.88549170  0.87400690  0.36053300  1
  O  O155  1  0.88378083  0.89179806  0.86047806  1
  O  O156  1  0.25734007  -0.00947417  0.36833220  1
  O  O157  1  0.25482984  -0.00330313  0.88139474  1
  O  O158  1  0.27570269  0.50111436  0.36610149  1
  O  O159  1  0.25696226  0.50196316  0.88480434  1
  O  O160  1  0.77958768  -0.01451599  0.34320171  1
  O  O161  1  0.75908556  0.02925958  0.89698665  1
  O  O162  1  0.70338665  0.50943458  0.35550856  1
  O  O163  1  0.78453424  0.45055801  0.86598089  1
  O  O164  1  0.24742466  0.49182955  0.14778686  1
  O  O165  1  0.25239250  0.49788851  0.60074661  1
  O  O166  1  0.24391837  0.98414215  0.12423183  1
  O  O167  1  0.23089645  0.99513545  0.65228966  1
  O  O168  1  0.74600383  0.48017819  0.12345976  1
  O  O169  1  0.73037162  0.53577445  0.66963134  1
  O  O170  1  0.75490339  0.98973190  0.12014235  1
  O  O171  1  0.78442524  0.96714816  0.64180339  1
  O  O172  1  0.00172493  0.36103069  0.25964205  1
  O  O173  1  0.00799152  0.37118706  0.72870070  1
  O  O174  1  0.00831125  0.85389614  0.23203250  1
  O  O175  1  -0.04750544  0.84801079  0.69370738  1
  O  O176  1  0.49558900  0.35380684  0.25632729  1
  O  O177  1  0.49217517  0.36220453  0.76405527  1
  O  O178  1  0.52201667  0.84587275  0.22118500  1
  O  O179  1  0.48906764  0.87053172  0.75870260  1
  O  O180  1  0.49102599  0.13116613  0.23666665  1
  O  O181  1  0.48366570  0.13371325  0.75300412  1
  O  O182  1  0.50086317  0.62462461  0.23707033  1
  O  O183  1  0.48920256  0.62318338  0.75263165  1
  O  O184  1  1.00402112  0.11965068  0.24506175  1
  O  O185  1  0.98789323  0.22080002  0.79959399  1
  O  O186  1  0.99520127  0.62698407  0.24231051  1
  O  O187  1  0.99557766  0.63188755  0.75422562  1
  O  O188  1  0.35911913  0.25015620  0.01337740  1
  O  O189  1  0.38094382  0.25910894  0.50550370  1
  O  O190  1  0.36526077  0.75839655  -0.00696330  1
  O  O191  1  0.36895934  0.73930358  0.52221444  1
  O  O192  1  0.88811061  0.24804633  0.02735152  1
  O  O193  1  0.86335961  0.25740406  0.50706352  1
  O  O194  1  0.85501600  0.74651244  -0.02233724  1
  O  O195  1  0.85175947  0.72592141  0.49055055  1
  O  O196  1  0.11647720  0.31679425  0.44502029  1
  O  O197  1  0.14300060  0.24080372  1.01231876  1
  O  O198  1  0.14797194  0.76406383  0.48915928  1
  O  O199  1  0.13827666  0.72890634  0.99841921  1
  O  O200  1  0.61982974  0.23823809  0.48436075  1
  O  O201  1  0.60640808  0.23900488  0.98970014  1
  O  O202  1  0.63280538  0.76818507  0.47173564  1
  O  O203  1  0.62528940  0.73993703  0.98807231  1
  O  O204  1  0.48903897  0.24190340  0.13526890  1
  O  O205  1  0.48499205  0.23866346  0.63836604  1
  O  O206  1  0.51171609  0.72473723  0.12436688  1
  O  O207  1  0.48123804  0.74156575  0.64343753  1
  O  O208  1  0.99889018  0.23889400  0.14755445  1
  O  O209  1  1.03390332  0.24219494  0.59074894  1
  O  O210  1  1.01047797  0.72417402  0.13167111  1
  O  O211  1  0.91824967  0.82618977  0.63360529  1
  O  O212  1  -0.00243373  0.23327301  0.36063984  1
  O  O213  1  0.00604134  0.21990667  0.87018887  1
  O  O214  1  -0.00681628  0.75683095  0.34951535  1
  O  O215  1  0.02187569  0.74321204  0.89007289  1
  O  O216  1  0.50214980  0.24838065  0.36220914  1
  O  O217  1  0.49461067  0.25454075  0.87107559  1
  O  O218  1  0.50910427  0.74830945  0.34923567  1
  O  O219  1  0.50409032  0.75757559  0.88071404  1
  O  O220  1  0.27063037  0.08563030  0.48298726  1
  O  O221  1  0.24170959  0.13634281  1.01059831  1
  O  O222  1  0.22680135  0.61840145  0.49795157  1
  O  O223  1  0.24815305  0.62502415  1.00594216  1
  O  O224  1  0.75615135  0.10821291  0.53355474  1
  O  O225  1  0.72668536  0.12955374  1.00593525  1
  O  O226  1  0.72011536  0.64319187  0.51000053  1
  O  O227  1  0.75474703  0.62527682  1.00467323  1
  O  O228  1  0.25558324  0.35650559  -0.00012092  1
  O  O229  1  0.27489319  0.38471613  0.50371307  1
  O  O230  1  0.25654418  0.86007971  0.01060743  1
  O  O231  1  0.25190559  0.88733598  0.53731637  1
  O  O232  1  0.77062031  0.36176538  0.02147799  1
  O  O233  1  0.78202145  0.40839375  0.52173490  1
  O  O234  1  0.73639854  0.89795108  -0.00372835  1
  O  O235  1  0.75853249  0.86076726  0.47856251  1
  O  O236  1  0.14705468  0.50292854  0.25104555  1
  O  O237  1  0.12908529  0.47557519  0.75824524  1
  O  O238  1  0.11638368  0.97839755  0.23844526  1
  O  O239  1  0.07480230  1.10953267  0.71519454  1
  O  O240  1  0.63286125  0.49635684  0.21867545  1
  O  O241  1  0.60499502  0.47722537  0.75637494  1
  O  O242  1  0.61742726  0.98116585  0.24903958  1
  O  O243  1  0.63468526  0.98973492  0.79153567  1
  O  O244  1  0.40227486  -0.02486602  0.27352662  1
  O  O245  1  0.36632901  0.01189380  0.76692275  1
  O  O246  1  0.36981588  0.49973393  0.25500150  1
  O  O247  1  0.37844077  0.50880945  0.76555392  1
  O  O248  1  0.87934445  -0.00085024  0.22951050  1
  O  O249  1  0.90565038  0.04341358  0.80030326  1
  O  O250  1  0.87106354  0.50665341  0.24715552  1
  O  O251  1  0.87298307  0.51945380  0.75936900  1
  O  O252  1  0.13420251  0.35507863  0.38611241  1
  O  O253  1  0.10511177  0.37217052  0.87850736  1
  O  O254  1  0.10437256  0.87324225  0.35250893  1
  O  O255  1  0.14632939  0.84936727  0.88235477  1
  O  O256  1  0.61185006  0.35415036  0.37388192  1
  O  O257  1  0.60870266  0.36308182  0.88227725  1
  O  O258  1  0.63941933  0.84955926  0.33439005  1
  O  O259  1  0.60419747  0.86093454  0.88197320  1
  O  O260  1  0.37831375  0.13364515  0.12714396  1
  O  O261  1  0.36851779  0.13189686  0.64436550  1
  O  O262  1  0.39215088  0.60615738  0.13524499  1
  O  O263  1  0.38181559  0.63134840  0.64427363  1
  O  O264  1  0.89665482  0.13206660  0.12445548  1
  O  O265  1  0.88594042  0.15437717  0.63607195  1
  O  O266  1  0.89813339  0.60448145  0.12351212  1
  O  O267  1  0.87678432  0.62592422  0.63805862  1
  O  O268  1  0.26047741  0.24522046  0.13675735  1
  O  O269  1  0.26787554  0.27074270  0.62138803  1
  O  O270  1  0.24632472  0.75499557  0.11664458  1
  O  O271  1  0.26085744  0.72941677  0.63697607  1
  O  O272  1  0.76634801  0.24746229  0.13565659  1
  O  O273  1  0.74811422  0.24726241  0.62568614  1
  O  O274  1  0.74170661  0.76111213  0.09221233  1
  O  O275  1  0.74448983  0.76535288  0.60600452  1
  O  O276  1  0.24777676  0.21465122  0.39064613  1
  O  O277  1  0.25355111  0.24550169  0.88690871  1
  O  O278  1  0.32633198  0.80277609  0.38177424  1
  O  O279  1  0.24407372  0.72633334  0.88959162  1
  O  O280  1  0.72612823  0.23177980  0.35974229  1
  O  O281  1  0.72367675  0.25313411  0.87630061  1
  O  O282  1  0.74200042  0.73912891  0.36303503  1
  O  O283  1  0.72822112  0.75769188  0.88552772  1
  O  O284  1  0.02401505  0.14116983  0.02520532  1
  O  O285  1  0.03663694  0.20576448  0.51654970  1
  O  O286  1  0.01594588  0.61855924  0.01617311  1
  O  O287  1  0.01739919  0.62758719  0.49385583  1
  O  O288  1  0.49538061  0.11908664  0.00728365  1
  O  O289  1  0.48852423  0.12469434  0.52313230  1
  O  O290  1  0.48612718  0.61844185  0.00783440  1
  O  O291  1  0.50239415  0.62818215  0.51284258  1
  O  O292  1  0.49590732  0.36578780  0.47984577  1
  O  O293  1  0.48013442  0.35987685  0.99234051  1
  O  O294  1  0.60222893  0.96221923  0.44570960  1
  O  O295  1  0.48872344  0.88014986  0.99740438  1
  O  O296  1  0.96956195  0.40023305  0.49492963  1
  O  O297  1  0.99536699  0.36682345  1.01666359  1
  O  O298  1  0.99474776  0.84757673  0.47767164  1
  O  O299  1  1.01354122  0.87555062  1.00519622  1
  O  O300  1  0.49776109  0.47762887  0.35509814  1
  O  O301  1  0.48377674  0.48498323  0.88083097  1
  O  O302  1  0.45801178  0.96224142  0.33826540  1
  O  O303  1  0.48705458  0.98924959  0.88517406  1
  O  O304  1  1.05263176  0.49333723  0.40747045  1
  O  O305  1  0.98026364  0.48517455  0.86523794  1
  O  O306  1  0.98744344  0.97659210  0.36842930  1
  O  O307  1  1.03467048  0.98033691  0.86174950  1
  O  O308  1  0.00981433  0.01306985  0.12335829  1
  O  O309  1  -0.02390494  0.01652544  0.63008693  1
  O  O310  1  0.02293174  0.50487752  0.14433751  1
  O  O311  1  -0.00276646  0.49710613  0.60767862  1
  O  O312  1  0.48822320  0.00830607  0.11074069  1
  O  O313  1  0.48234885  0.01275971  0.63759750  1
  O  O314  1  0.51090108  0.49976931  0.12128738  1
  O  O315  1  0.49091516  0.51823806  0.62927171  1
  O  O316  1  0.25544454  0.37846286  0.26693446  1
  O  O317  1  0.27376082  0.39121576  0.71812528  1
  O  O318  1  0.23675530  0.86469524  0.24079253  1
  O  O319  1  0.25183328  0.86982481  0.74451227  1
  O  O320  1  0.75853574  0.36823274  0.22917768  1
  O  O321  1  0.71811685  0.36629911  0.74386439  1
  O  O322  1  0.74700489  0.88169154  0.22432826  1
  O  O323  1  0.75931223  0.87822604  0.73706379  1
  O  O324  1  0.25946223  0.10845205  0.26223857  1
  O  O325  1  0.25478403  0.13109294  0.75676203  1
  O  O326  1  0.27225113  0.62463867  0.24412712  1
  O  O327  1  0.25424251  0.61188901  0.75829566  1
  O  O328  1  0.75982067  0.10026416  0.23609316  1
  O  O329  1  0.74221032  0.13001621  0.76835932  1
  O  O330  1  0.77157668  0.62651747  0.22409557  1
  O  O331  1  0.72898604  0.59078840  0.71873499  1
  O  O332  1  0.37145573  0.11877069  0.36766585  1
  O  O333  1  0.37023065  0.11288887  0.87102732  1
  O  O334  1  0.39505097  0.61272066  0.35807021  1
  O  O335  1  0.36555470  0.61292908  0.87028363  1
  O  O336  1  0.89038096  0.10119201  0.38310627  1
  O  O337  1  0.84648389  0.16245298  0.88898378  1
  O  O338  1  0.87656417  0.62827518  0.34989782  1
  O  O339  1  0.87567179  0.60295025  0.89146374  1
  O  O340  1  0.12573849  0.38471392  0.13208043  1
  O  O341  1  0.14328674  0.37914888  0.61102792  1
  O  O342  1  0.13478081  0.87643884  0.13000360  1
  O  O343  1  0.13452635  0.85376891  0.64035547  1
  O  O344  1  0.63692843  0.36823609  0.11843142  1
  O  O345  1  0.59901299  0.36783042  0.63645238  1
  O  O346  1  0.63795117  0.87005072  0.12500282  1
  O  O347  1  0.58635967  0.86198828  0.62302899  1
  O  O348  1  0.11644763  0.24935192  0.25394128  1
  O  O349  1  0.15253953  0.28912341  0.74846914  1
  O  O350  1  0.11694709  0.75527907  0.24454937  1
  O  O351  1  0.13153170  0.73264114  0.77447718  1
  O  O352  1  0.60890147  0.23747897  0.24967423  1
  O  O353  1  0.60485722  0.25562028  0.76523594  1
  O  O354  1  0.62272836  0.72707083  0.24972235  1
  O  O355  1  0.61795802  0.75825639  0.75070389  1
  O  O356  1  0.37893777  0.24781618  0.24291419  1
  O  O357  1  0.37101984  0.24051377  0.74878265  1
  O  O358  1  0.39605610  0.72944935  0.24109616  1
  O  O359  1  0.36808828  0.72934683  0.76063749  1
  O  O360  1  0.88557876  0.24072954  0.24464169  1
  O  O361  1  0.85321525  0.26874551  0.74413076  1
  O  O362  1  0.88627504  0.73926313  0.23349780  1
  O  O363  1  0.84792233  0.70992089  0.77094900  1
  O  O364  1  0.38996219  0.49003378  0.47551229  1
  O  O365  1  0.36518412  0.48160841  0.99668818  1
  O  O366  1  0.42004171  0.95334524  0.48737807  1
  O  O367  1  0.37525199  0.99277809  0.99040096  1
  O  O368  1  0.89252515  0.53545114  0.48478585  1
  O  O369  1  0.87926964  0.47470902  0.99048747  1
  O  O370  1  0.86476420  0.98561230  0.48610612  1
  O  O371  1  0.90359913  1.02042935  0.97443762  1
  O  O372  1  0.13068482  0.01411221  0.01765739  1
  O  O373  1  0.10868898  -0.01933437  0.51507127  1
  O  O374  1  0.14270068  0.50086365  0.02508079  1
  O  O375  1  0.10549676  0.50396235  0.47341938  1
  O  O376  1  0.60731558  0.01917513  -0.01168246  1
  O  O377  1  0.69913285  0.07068124  0.50772361  1
  O  O378  1  0.63512913  0.48372409  0.01214231  1
  O  O379  1  0.62524699  0.51490274  0.50244062  1
  O  O380  1  0.38027606  0.35839472  0.11936437  1
  O  O381  1  0.39151090  0.36951332  0.60533642  1
  O  O382  1  0.36591309  0.87861816  0.11305014  1
  O  O383  1  0.35884770  0.85465526  0.64039450  1
  O  O384  1  0.87823421  0.35859460  0.12575034  1
  O  O385  1  0.89212804  0.35253336  0.61944675  1
  O  O386  1  0.85640958  0.87430958  0.10086920  1
  O  O387  1  0.80154751  0.94087524  0.71389274  1
  O  O388  1  0.14543005  0.10458058  0.38268732  1
  O  O389  1  0.12406553  0.12023187  0.90131547  1
  O  O390  1  0.12382949  0.64471903  0.38405433  1
  O  O391  1  0.13286139  0.61075726  0.89027922  1
  O  O392  1  0.60284282  0.12455513  0.37092559  1
  O  O393  1  0.62381887  0.13965742  0.88529686  1
  O  O394  1  0.60943282  0.63708432  0.39247535  1
  O  O395  1  0.61501865  0.64058391  0.86518525  1
