# generated using pymatgen
data_V35Zn35O128
_symmetry_space_group_name_H-M   'P 1'
_cell_length_a   16.90507829
_cell_length_b   16.87312088
_cell_length_c   16.89337656
_cell_angle_alpha   89.82683733
_cell_angle_beta   90.04453643
_cell_angle_gamma   90.17137782
_symmetry_Int_Tables_number   1
_chemical_formula_structural   V35Zn35O128
_chemical_formula_sum   'V70 Zn70 O256'
_cell_volume   4818.64589248
_cell_formula_units_Z   2
loop_
 _symmetry_equiv_pos_site_id
 _symmetry_equiv_pos_as_xyz
  1  'x, y, z'
loop_
 _atom_site_type_symbol
 _atom_site_label
 _atom_site_symmetry_multiplicity
 _atom_site_fract_x
 _atom_site_fract_y
 _atom_site_fract_z
 _atom_site_occupancy
  V  V0  1  0.63321043  0.63189588  -0.00740816  1
  V  V1  1  0.12689614  0.87080288  0.26322465  1
  V  V2  1  0.12689092  0.49170792  0.13026363  1
  V  V3  1  0.24142055  0.85854579  0.12528948  1
  V  V4  1  0.37481550  0.86878106  0.49833343  1
  V  V5  1  0.01791231  0.49834950  0.50138909  1
  V  V6  1  0.75945943  0.01109924  0.26036959  1
  V  V7  1  0.23624665  0.12827273  0.38831060  1
  V  V8  1  0.88665888  0.87083045  -0.00288536  1
  V  V9  1  0.49523334  0.87539546  0.86528093  1
  V  V10  1  0.37381784  0.00581574  0.36767739  1
  V  V11  1  0.23947660  0.14216290  0.87641861  1
  V  V12  1  0.10970372  0.86942900  0.75255990  1
  V  V13  1  0.91577815  0.15994116  0.24578600  1
  V  V14  1  0.49817194  0.00639491  0.00326226  1
  V  V15  1  0.61227169  0.24799413  0.37852362  1
  V  V16  1  0.87222731  0.48569982  0.38847654  1
  V  V17  1  0.47225843  0.62153266  0.13047803  1
  V  V18  1  -0.02408240  0.00004434  0.49213034  1
  V  V19  1  0.88908549  0.00042163  0.86743037  1
  V  V20  1  0.62632108  0.00407398  0.11797146  1
  V  V21  1  -0.00141509  0.62090343  0.12509230  1
  V  V22  1  0.48236546  0.75399540  0.23699016  1
  V  V23  1  0.36801435  0.86461558  0.00909453  1
  V  V24  1  -0.01466453  0.86824886  0.38091922  1
  V  V25  1  0.74497139  0.62675720  0.38880153  1
  V  V26  1  0.12132724  -0.00191773  0.61454945  1
  V  V27  1  0.00109287  0.23688234  0.75543939  1
  V  V28  1  0.74196371  0.86893259  0.62143249  1
  V  V29  1  -0.01107373  0.11919504  0.62225090  1
  V  V30  1  0.62716025  0.87216270  0.24788497  1
  V  V31  1  0.75397889  0.87396515  0.12360433  1
  V  V32  1  0.61946123  0.51801580  0.61033764  1
  V  V33  1  0.49597698  0.50285044  -0.01126868  1
  V  V34  1  0.49757932  0.12354348  0.13490166  1
  V  V35  1  0.24594402  0.38003666  0.13044064  1
  V  V36  1  0.25288539  0.00045328  0.75312951  1
  V  V37  1  0.50021951  0.87038354  0.37569022  1
  V  V38  1  0.52451409  0.49182440  0.44909470  1
  V  V39  1  0.37986284  0.74149231  0.63601158  1
  V  V40  1  0.36835793  0.38233684  -0.01301366  1
  V  V41  1  0.24223854  0.00819344  0.24058144  1
  V  V42  1  0.86860712  0.61278789  0.25274790  1
  V  V43  1  0.36534335  0.24624942  0.12220097  1
  V  V44  1  0.59386337  0.28395124  0.87446850  1
  V  V45  1  0.50877695  0.00783824  0.50436321  1
  V  V46  1  0.72481328  0.36310214  0.13393848  1
  V  V47  1  0.73039335  0.37505060  0.62594094  1
  V  V48  1  0.86373096  0.49614255  0.87438372  1
  V  V49  1  0.01045621  -0.00021404  0.01868516  1
  V  V50  1  0.74362996  0.23751184  0.49691243  1
  V  V51  1  0.87456541  0.74596479  0.12471220  1
  V  V52  1  0.25616838  0.87568809  0.62854966  1
  V  V53  1  0.22322282  0.33806054  0.62840992  1
  V  V54  1  0.50183626  0.73420289  0.75632662  1
  V  V55  1  0.36745230  0.00788129  0.87776779  1
  V  V56  1  0.13425947  0.62922107  -0.00358484  1
  V  V57  1  0.00386307  0.37718146  0.85815783  1
  V  V58  1  0.50521081  0.26914267  0.24574396  1
  V  V59  1  0.75271539  0.12260108  0.90107254  1
  V  V60  1  0.73867980  0.50227039  0.75027751  1
  V  V61  1  0.12106522  0.13811761  0.00859271  1
  V  V62  1  0.86585982  0.25601308  0.63361771  1
  V  V63  1  0.11709122  0.74845658  0.87000517  1
  V  V64  1  0.74804303  0.00202249  0.74948757  1
  V  V65  1  0.26143105  0.61517899  0.85569029  1
  V  V66  1  -0.00332889  0.49341316  -0.00384092  1
  V  V67  1  0.88468030  0.63168868  0.74743962  1
  V  V68  1  0.87813006  0.75299037  0.60558990  1
  V  V69  1  0.23054843  0.73360823  0.50169775  1
  Zn  Zn70  1  0.63146527  0.74658020  0.37041096  1
  Zn  Zn71  1  0.00476448  0.74006048  0.26380757  1
  Zn  Zn72  1  0.37078612  0.22088026  0.61046114  1
  Zn  Zn73  1  0.65430098  0.84907728  0.77707846  1
  Zn  Zn74  1  0.80009098  0.28398513  0.00399640  1
  Zn  Zn75  1  0.18143744  0.32180859  0.80123438  1
  Zn  Zn76  1  0.17233256  0.18430337  0.18868298  1
  Zn  Zn77  1  0.17837472  0.17337818  0.68697755  1
  Zn  Zn78  1  0.18097710  0.68616829  0.18977503  1
  Zn  Zn79  1  0.19540956  0.68961018  0.69275478  1
  Zn  Zn80  1  0.69007886  0.18903245  0.17986837  1
  Zn  Zn81  1  0.68221379  0.18772721  0.71318202  1
  Zn  Zn82  1  0.68788480  0.68568363  0.17883027  1
  Zn  Zn83  1  0.69172054  0.68772483  0.69294189  1
  Zn  Zn84  1  0.29532384  0.29118433  0.29187308  1
  Zn  Zn85  1  0.36038661  0.38765910  0.77114315  1
  Zn  Zn86  1  0.32393032  0.76034557  0.33812164  1
  Zn  Zn87  1  0.30670793  0.80757513  0.82116283  1
  Zn  Zn88  1  0.81194312  0.30164814  0.30789887  1
  Zn  Zn89  1  0.79873377  0.30614112  0.81179893  1
  Zn  Zn90  1  0.81366787  0.80600770  0.30795750  1
  Zn  Zn91  1  0.81825270  0.81185606  0.81518363  1
  Zn  Zn92  1  0.19255463  0.41566612  0.45734546  1
  Zn  Zn93  1  0.18663508  0.44017110  0.94099381  1
  Zn  Zn94  1  0.19295746  0.93306069  0.43656273  1
  Zn  Zn95  1  0.18446556  0.93154858  0.93795997  1
  Zn  Zn96  1  0.69708013  0.42751046  0.42797849  1
  Zn  Zn97  1  0.67248258  0.43651901  0.94904654  1
  Zn  Zn98  1  0.68770356  0.93861347  0.43747915  1
  Zn  Zn99  1  0.70457607  0.91212387  0.92577606  1
  Zn  Zn100  1  0.30555077  0.06545289  0.05668940  1
  Zn  Zn101  1  0.31514455  0.05597275  0.55941756  1
  Zn  Zn102  1  0.31139405  0.56177820  0.06056872  1
  Zn  Zn103  1  0.32701992  0.57695853  0.43074704  1
  Zn  Zn104  1  0.83020576  0.06013906  0.07892663  1
  Zn  Zn105  1  0.80335543  0.06302868  0.56585098  1
  Zn  Zn106  1  0.80592567  0.54489067  0.06153594  1
  Zn  Zn107  1  0.81374157  0.56719904  0.56493132  1
  Zn  Zn108  1  0.42317080  0.43677063  0.19473869  1
  Zn  Zn109  1  0.42936501  0.55751159  0.69068786  1
  Zn  Zn110  1  0.43155963  0.93534116  0.18797625  1
  Zn  Zn111  1  0.44475478  1.05096651  0.68779690  1
  Zn  Zn112  1  0.93754750  0.42259126  0.19949791  1
  Zn  Zn113  1  0.92894482  0.44498982  0.68583645  1
  Zn  Zn114  1  0.94030951  0.93932052  0.19447502  1
  Zn  Zn115  1  0.92820631  0.92896583  0.68065385  1
  Zn  Zn116  1  0.06044383  0.06265867  0.31439976  1
  Zn  Zn117  1  0.06755422  0.05812201  0.81558351  1
  Zn  Zn118  1  0.05594695  0.54520933  0.31302626  1
  Zn  Zn119  1  0.05952263  0.56767401  0.81185651  1
  Zn  Zn120  1  0.56999314  0.06438982  0.31145320  1
  Zn  Zn121  1  0.57911399  0.05270804  0.83105502  1
  Zn  Zn122  1  0.57950550  0.56919951  0.27986232  1
  Zn  Zn123  1  0.53985675  0.46114695  0.79793647  1
  Zn  Zn124  1  0.42760758  0.19018335  0.43315241  1
  Zn  Zn125  1  0.43193518  0.19320612  0.93713314  1
  Zn  Zn126  1  0.45383961  0.68126259  0.44100012  1
  Zn  Zn127  1  0.43777784  0.68475542  0.93882225  1
  Zn  Zn128  1  0.92964131  0.18665375  0.43918507  1
  Zn  Zn129  1  0.93247483  0.17999166  0.93817810  1
  Zn  Zn130  1  0.94461947  0.67715969  0.44221298  1
  Zn  Zn131  1  0.93444792  0.68142649  0.93423448  1
  Zn  Zn132  1  0.00699502  0.28642200  0.03639573  1
  Zn  Zn133  1  0.02014258  0.34704034  0.58056101  1
  Zn  Zn134  1  0.06411614  0.80834230  0.06477481  1
  Zn  Zn135  1  0.05670784  0.81294840  0.56435053  1
  Zn  Zn136  1  0.55868005  0.31680713  0.05745897  1
  Zn  Zn137  1  0.52416958  0.30253840  0.53303031  1
  Zn  Zn138  1  0.56041876  0.81566083  0.05720826  1
  Zn  Zn139  1  0.52834464  0.87768862  0.63728038  1
  O  O140  1  0.13363211  0.11815883  0.10653572  1
  O  O141  1  0.10320413  0.10805183  0.63173811  1
  O  O142  1  0.11949539  0.61649876  0.11537182  1
  O  O143  1  0.12820511  0.58842174  0.65523347  1
  O  O144  1  0.61246056  0.11200283  0.12689044  1
  O  O145  1  0.59081463  0.12326954  0.67538348  1
  O  O146  1  0.59673899  0.62640732  0.12464176  1
  O  O147  1  0.65142954  0.61253163  0.61612634  1
  O  O148  1  0.33853388  0.43352793  0.34521909  1
  O  O149  1  0.36536075  0.37135648  0.88815737  1
  O  O150  1  0.38258920  0.87086585  0.38255562  1
  O  O151  1  0.37545634  0.88446409  0.88791285  1
  O  O152  1  0.85845312  0.38825727  0.37129980  1
  O  O153  1  0.88558464  0.38975058  0.86541127  1
  O  O154  1  0.88736405  0.87325833  0.36704965  1
  O  O155  1  0.87857769  0.88215475  0.89335412  1
  O  O156  1  0.25807557  0.00458690  0.36809539  1
  O  O157  1  0.25367743  -0.00272827  0.86988052  1
  O  O158  1  0.28250926  0.47413427  0.39781070  1
  O  O159  1  0.24067728  0.51543507  0.87391211  1
  O  O160  1  0.74238517  -0.00438727  0.35875356  1
  O  O161  1  0.76750743  0.00144426  0.87395289  1
  O  O162  1  0.76152581  0.51377025  0.37555079  1
  O  O163  1  0.75685389  0.48759821  0.86266262  1
  O  O164  1  0.23873797  0.49368031  0.12432228  1
  O  O165  1  0.35517025  0.48703237  0.59936474  1
  O  O166  1  0.25598217  0.99949690  0.13937784  1
  O  O167  1  0.24054724  0.99323440  0.63377577  1
  O  O168  1  0.79214608  0.46154227  0.14070506  1
  O  O169  1  0.75061633  0.48756410  0.63020725  1
  O  O170  1  0.74284111  0.99178295  0.13421198  1
  O  O171  1  0.75536084  0.99193753  0.64167566  1
  O  O172  1  0.02534274  0.36445158  0.25174424  1
  O  O173  1  -0.00240669  0.36868108  0.75498466  1
  O  O174  1  0.01191923  0.88061173  0.26478250  1
  O  O175  1  0.01208674  0.87929668  0.74571431  1
  O  O176  1  0.50361344  0.36767853  0.23997003  1
  O  O177  1  0.49102855  0.30130669  0.70451484  1
  O  O178  1  0.50651258  0.87042545  0.25277213  1
  O  O179  1  0.50076761  0.87940165  0.76417949  1
  O  O180  1  0.49286831  0.12053637  0.23644064  1
  O  O181  1  0.53583563  0.11149390  0.73602376  1
  O  O182  1  0.49228045  0.64467269  0.24049906  1
  O  O183  1  0.48864118  0.63700184  0.75739947  1
  O  O184  1  1.01679723  0.13732393  0.24198956  1
  O  O185  1  0.99811472  0.13286923  0.74855239  1
  O  O186  1  0.99635198  0.62173085  0.23879279  1
  O  O187  1  0.98366040  0.61486871  0.74253073  1
  O  O188  1  0.38440166  0.26870603  0.01516310  1
  O  O189  1  0.41782490  0.26113591  0.51770580  1
  O  O190  1  0.37633496  0.76704405  -0.00180355  1
  O  O191  1  0.37976639  0.75964868  0.51675200  1
  O  O192  1  0.90565082  0.24591539  0.02471863  1
  O  O193  1  0.85638395  0.23728516  0.51982110  1
  O  O194  1  0.88458050  0.76127498  0.00715599  1
  O  O195  1  0.87217231  0.74091013  0.50697730  1
  O  O196  1  0.08353751  0.28007804  0.43415374  1
  O  O197  1  0.10554159  0.23862371  1.00963971  1
  O  O198  1  0.13280570  0.73805722  0.52673873  1
  O  O199  1  0.11925495  0.73413374  0.99378877  1
  O  O200  1  0.62144291  0.25133010  0.48750676  1
  O  O201  1  0.61836963  0.26656168  0.97158853  1
  O  O202  1  0.60751590  0.74213319  0.49757482  1
  O  O203  1  0.61595958  0.73301002  1.00905940  1
  O  O204  1  0.49536500  0.24326037  0.13056209  1
  O  O205  1  0.52703092  0.25917499  0.64902528  1
  O  O206  1  0.49522894  0.75054757  0.13354968  1
  O  O207  1  0.48759217  0.76646524  0.64603532  1
  O  O208  1  1.05555909  0.30329377  0.20981962  1
  O  O209  1  0.98436929  0.24324010  0.63467028  1
  O  O210  1  0.99261662  0.73513341  0.12368850  1
  O  O211  1  0.97755685  0.75836846  0.62531198  1
  O  O212  1  0.02170600  0.25664123  0.39107673  1
  O  O213  1  -0.01207527  0.26145294  0.86096972  1
  O  O214  1  -0.00121651  0.76273074  0.38108686  1
  O  O215  1  0.01604910  0.73821674  0.87508586  1
  O  O216  1  0.50187825  0.24991401  0.35728074  1
  O  O217  1  0.50044956  0.24375240  0.86165012  1
  O  O218  1  0.50686121  0.75937355  0.35985875  1
  O  O219  1  0.48370262  0.76381990  0.86354308  1
  O  O220  1  0.25132703  0.11523511  0.48723642  1
  O  O221  1  0.23429435  0.12640749  0.98760550  1
  O  O222  1  0.25571660  0.63570431  0.50244011  1
  O  O223  1  0.23410789  0.62285907  1.00056107  1
  O  O224  1  0.73158591  0.14013293  0.52373452  1
  O  O225  1  0.76208259  0.10726282  0.99941463  1
  O  O226  1  0.74994991  0.62743033  0.48756537  1
  O  O227  1  0.73052924  0.61645973  1.02658715  1
  O  O228  1  0.26098033  0.38098850  0.00883430  1
  O  O229  1  0.25810566  0.37747893  0.54247505  1
  O  O230  1  0.25569619  0.87845596  0.01360235  1
  O  O231  1  0.25579611  0.86981638  0.51278235  1
  O  O232  1  0.74769938  0.38592259  0.01326854  1
  O  O233  1  0.74260549  0.35662439  0.51986591  1
  O  O234  1  0.77224641  0.88521054  0.01767159  1
  O  O235  1  0.73495452  0.88149219  0.52147026  1
  O  O236  1  0.11634927  0.49543619  0.22893954  1
  O  O237  1  0.12484549  0.53362582  0.70766304  1
  O  O238  1  0.13636182  0.98849009  0.25398511  1
  O  O239  1  0.13093332  0.98623838  0.74536717  1
  O  O240  1  0.63629580  0.57009699  0.17790021  1
  O  O241  1  0.63502995  0.50321067  0.73493908  1
  O  O242  1  0.62718155  0.98752945  0.23960983  1
  O  O243  1  0.64871201  0.98097072  0.77032409  1
  O  O244  1  0.35920057  -0.01220146  0.26243869  1
  O  O245  1  0.36526347  0.00168507  0.76612336  1
  O  O246  1  0.36806326  0.48487712  0.29232522  1
  O  O247  1  0.44045003  0.46141349  0.74614707  1
  O  O248  1  0.85935513  -0.00509271  0.24975461  1
  O  O249  1  0.87672149  -0.00716903  0.76424426  1
  O  O250  1  0.88739666  0.50993403  0.26226210  1
  O  O251  1  0.86516693  0.50748202  0.75584911  1
  O  O252  1  0.13108189  0.33048578  0.39497933  1
  O  O253  1  0.11105575  0.38146074  0.86937093  1
  O  O254  1  0.12187404  0.87557268  0.36583160  1
  O  O255  1  0.13023697  0.86488874  0.85990011  1
  O  O256  1  0.64450013  0.34643124  0.36575973  1
  O  O257  1  0.59782900  0.39081588  0.86859492  1
  O  O258  1  0.61710105  0.87287927  0.36464943  1
  O  O259  1  0.59112143  0.88345909  0.89338002  1
  O  O260  1  0.37723730  0.14123294  0.11493180  1
  O  O261  1  0.36709060  0.11282632  0.63919081  1
  O  O262  1  0.37308681  0.63572524  0.12294224  1
  O  O263  1  0.38234192  0.64257533  0.62920469  1
  O  O264  1  0.87813029  0.12357243  0.15613813  1
  O  O265  1  0.88424746  0.12678684  0.62884426  1
  O  O266  1  0.88218073  0.62404668  0.13087295  1
  O  O267  1  0.86330528  0.64084900  0.63834795  1
  O  O268  1  0.25973809  0.25614835  0.12926246  1
  O  O269  1  0.25260448  0.23758777  0.62941193  1
  O  O270  1  0.24852161  0.75911914  0.13199525  1
  O  O271  1  0.26239388  0.75602622  0.62166945  1
  O  O272  1  0.73675306  0.25983001  0.10472353  1
  O  O273  1  0.75002218  0.25770748  0.63745009  1
  O  O274  1  0.76474120  0.75935613  0.13086845  1
  O  O275  1  0.75955631  0.76210605  0.63606242  1
  O  O276  1  0.26510118  0.22779549  0.37485296  1
  O  O277  1  0.24324721  0.24040438  0.86194759  1
  O  O278  1  0.23468053  0.76397498  0.40408211  1
  O  O279  1  0.23195863  0.73115305  0.86664755  1
  O  O280  1  0.75301290  0.24113244  0.39614368  1
  O  O281  1  0.78351471  0.22820028  0.89703512  1
  O  O282  1  0.75004404  0.73445013  0.36788921  1
  O  O283  1  0.71990469  0.81313238  0.86717602  1
  O  O284  1  0.01303287  0.10872526  -0.00486120  1
  O  O285  1  -0.00735933  0.10872126  0.50690462  1
  O  O286  1  0.00379390  0.61366350  0.00775247  1
  O  O287  1  -0.00297637  0.60033736  0.50370433  1
  O  O288  1  0.48972767  0.11149631  0.00856195  1
  O  O289  1  0.48676226  0.10427315  0.49386585  1
  O  O290  1  0.49390874  0.61879988  0.01575363  1
  O  O291  1  0.55194028  0.69257677  0.51341026  1
  O  O292  1  0.49629919  0.39972671  0.47578792  1
  O  O293  1  0.48371183  0.39382606  1.00719324  1
  O  O294  1  0.49220559  0.88318021  0.48771514  1
  O  O295  1  0.48113993  0.88635192  1.00206041  1
  O  O296  1  0.99065516  0.39177461  0.48374219  1
  O  O297  1  1.00294717  0.38865069  0.98337853  1
  O  O298  1  1.00017806  0.88575309  0.48957836  1
  O  O299  1  0.99358274  0.88221884  1.00869526  1
  O  O300  1  0.54210017  0.48922687  0.34961930  1
  O  O301  1  0.49169831  0.51707242  0.89213559  1
  O  O302  1  0.48755134  0.99087438  0.37193116  1
  O  O303  1  0.48672797  0.99777665  0.88263026  1
  O  O304  1  0.98243288  0.50133724  0.38412668  1
  O  O305  1  0.99418628  0.49127484  0.87330977  1
  O  O306  1  1.00153790  0.99197054  0.38867282  1
  O  O307  1  0.99181434  0.99777383  0.88032395  1
  O  O308  1  0.00310808  -0.00132993  0.11800966  1
  O  O309  1  -0.00127122  -0.00153674  0.61151542  1
  O  O310  1  0.00689347  0.50087988  0.11565873  1
  O  O311  1  0.00412954  0.47097665  0.60708268  1
  O  O312  1  0.50227324  0.00364288  0.12174388  1
  O  O313  1  0.49726327  -0.01603568  0.60856342  1
  O  O314  1  0.47853345  0.51913520  0.13765087  1
  O  O315  1  0.52152015  0.52455586  0.61745377  1
  O  O316  1  0.24607944  0.37319211  0.23136318  1
  O  O317  1  0.25407767  0.37467909  0.72639340  1
  O  O318  1  0.23649972  0.88167968  0.23946591  1
  O  O319  1  0.24729593  0.88295002  0.74365724  1
  O  O320  1  0.73861651  0.34760182  0.23410627  1
  O  O321  1  0.75459114  0.38746324  0.73742020  1
  O  O322  1  0.74451499  0.87933301  0.24131434  1
  O  O323  1  0.76828987  0.88827425  0.74055513  1
  O  O324  1  0.23947149  0.11212625  0.25649987  1
  O  O325  1  0.23500693  0.10946122  0.76726064  1
  O  O326  1  0.20804096  0.62192235  0.28743737  1
  O  O327  1  0.26120245  0.61887200  0.75345998  1
  O  O328  1  0.74157521  0.11015371  0.24519441  1
  O  O329  1  0.75348384  0.10652371  0.76073967  1
  O  O330  1  0.76917388  0.62257467  0.24364975  1
  O  O331  1  0.75773326  0.60580635  0.74913764  1
  O  O332  1  0.37224513  0.10732015  0.37125662  1
  O  O333  1  0.35335143  0.11848076  0.88719585  1
  O  O334  1  0.36952002  0.66094660  0.36906407  1
  O  O335  1  0.35747358  0.62814008  0.88270488  1
  O  O336  1  0.88944107  0.13773924  0.34500381  1
  O  O337  1  0.87258400  0.10409016  0.87914306  1
  O  O338  1  0.86736008  0.62350760  0.36309065  1
  O  O339  1  0.87825714  0.60725287  0.86365600  1
  O  O340  1  0.13623066  0.38702195  0.10971202  1
  O  O341  1  0.12423392  0.34134562  0.62264659  1
  O  O342  1  0.13659712  0.87248638  0.12833249  1
  O  O343  1  0.13238461  0.87859182  0.63625371  1
  O  O344  1  0.62591907  0.38264202  0.12383930  1
  O  O345  1  0.63147483  0.39168149  0.62544000  1
  O  O346  1  0.63441647  0.88038850  0.12822621  1
  O  O347  1  0.64145091  0.86701208  0.65150306  1
  O  O348  1  0.11729613  0.26946389  0.24772521  1
  O  O349  1  0.10534231  0.24561944  0.75004814  1
  O  O350  1  0.11811327  0.76615397  0.24622284  1
  O  O351  1  0.12500289  0.76232734  0.74932245  1
  O  O352  1  0.60605356  0.24455359  0.24751935  1
  O  O353  1  0.65997915  0.25931552  0.79835827  1
  O  O354  1  0.62026910  0.76339700  0.24303616  1
  O  O355  1  0.60567719  0.74230379  0.75034170  1
  O  O356  1  0.38794477  0.25701075  0.23084789  1
  O  O357  1  0.40809573  0.29003294  0.70649146  1
  O  O358  1  0.38438260  0.77048672  0.24292865  1
  O  O359  1  0.37741557  0.75843906  0.74142158  1
  O  O360  1  0.89787496  0.26194887  0.24274707  1
  O  O361  1  0.87979538  0.24858267  0.74021159  1
  O  O362  1  0.88497023  0.73611533  0.23990893  1
  O  O363  1  0.87542911  0.73235264  0.76375401  1
  O  O364  1  0.44903387  0.56151629  0.46795495  1
  O  O365  1  0.37891320  0.49106849  1.00276525  1
  O  O366  1  0.37556736  0.98583742  0.48342527  1
  O  O367  1  0.37679832  0.99490442  0.99438062  1
  O  O368  1  0.87002858  0.49987235  0.49028019  1
  O  O369  1  0.88265249  0.50668742  0.98129439  1
  O  O370  1  0.87704440  1.00032897  0.49821633  1
  O  O371  1  0.89291363  0.98946226  1.00047419  1
  O  O372  1  0.11170959  -0.00532736  -0.00295211  1
  O  O373  1  0.12427992  -0.01093921  0.51359264  1
  O  O374  1  0.11491581  0.51177005  0.00530565  1
  O  O375  1  0.11830983  0.49646782  0.48112750  1
  O  O376  1  0.61122436  -0.01158847  0.01303350  1
  O  O377  1  0.60675645  0.00182047  0.48802344  1
  O  O378  1  0.60077100  0.51108210  0.00626012  1
  O  O379  1  0.62376269  0.49962258  0.49880486  1
  O  O380  1  0.35927038  0.37231877  0.12023339  1
  O  O381  1  0.39213715  0.42521599  0.58637049  1
  O  O382  1  0.36047339  0.87921072  0.11569029  1
  O  O383  1  0.36343956  0.87528302  0.61697756  1
  O  O384  1  0.85251446  0.40096148  0.12570853  1
  O  O385  1  0.86892514  0.35807644  0.62603251  1
  O  O386  1  0.87532037  0.86470479  0.12343292  1
  O  O387  1  0.86220005  0.86257141  0.61856970  1
  O  O388  1  0.13682317  0.12207405  0.37889036  1
  O  O389  1  0.13292441  0.12291045  0.88575582  1
  O  O390  1  0.15099717  0.61846196  0.34032039  1
  O  O391  1  0.12821226  0.62520099  0.88425718  1
  O  O392  1  0.62577822  0.14556145  0.36593787  1
  O  O393  1  0.65174962  0.11887840  0.88756630  1
  O  O394  1  0.64193402  0.62517704  0.36300165  1
  O  O395  1  0.63203706  0.62243731  0.89609148  1
