# generated using pymatgen
data_V35Zn35O128
_symmetry_space_group_name_H-M   'P 1'
_cell_length_a   16.89470470
_cell_length_b   16.87508156
_cell_length_c   16.88891646
_cell_angle_alpha   89.84218847
_cell_angle_beta   90.06755461
_cell_angle_gamma   89.87367344
_symmetry_Int_Tables_number   1
_chemical_formula_structural   V35Zn35O128
_chemical_formula_sum   'V70 Zn70 O256'
_cell_volume   4814.98862305
_cell_formula_units_Z   2
loop_
 _symmetry_equiv_pos_site_id
 _symmetry_equiv_pos_as_xyz
  1  'x, y, z'
loop_
 _atom_site_type_symbol
 _atom_site_label
 _atom_site_symmetry_multiplicity
 _atom_site_fract_x
 _atom_site_fract_y
 _atom_site_fract_z
 _atom_site_occupancy
  V  V0  1  0.87768818  0.62178225  0.25281125  1
  V  V1  1  0.24550412  0.74023596  0.50046815  1
  V  V2  1  0.12100076  0.61867568  0.50824361  1
  V  V3  1  0.37598100  0.50858785  0.35575532  1
  V  V4  1  0.74811363  0.62401617  0.38538448  1
  V  V5  1  0.73593103  0.11120255  0.87350554  1
  V  V6  1  0.74724757  0.49681676  0.24902279  1
  V  V7  1  0.37640357  0.74780287  0.13068256  1
  V  V8  1  0.38180348  0.25737439  0.61920924  1
  V  V9  1  0.74855529  -0.00628413  0.24458080  1
  V  V10  1  0.88526240  0.48333210  0.38664994  1
  V  V11  1  0.50186955  -0.00668286  0.49352889  1
  V  V12  1  0.76730677  0.11614648  0.37937163  1
  V  V13  1  0.87680346  0.75569070  0.11705595  1
  V  V14  1  0.50390825  0.27284169  0.75251101  1
  V  V15  1  0.49918454  0.86686331  0.86525804  1
  V  V16  1  0.62520956  0.11908197  0.49711062  1
  V  V17  1  0.21923298  0.24958086  0.00786904  1
  V  V18  1  0.74708930  0.60724207  0.87423286  1
  V  V19  1  -0.00191619  0.60964780  0.11043357  1
  V  V20  1  0.75533630  0.84923611  0.61625797  1
  V  V21  1  0.37944931  0.89121724  0.00088081  1
  V  V22  1  0.36466551  0.87418442  0.49068264  1
  V  V23  1  0.74696279  0.74912661  -0.01319872  1
  V  V24  1  -0.00476322  0.75851148  0.73199307  1
  V  V25  1  0.38550329  0.38818173  0.49022249  1
  V  V26  1  0.62648528  0.26568048  0.87138247  1
  V  V27  1  0.24547935  0.90028735  0.11996231  1
  V  V28  1  0.63422286  -0.00519346  0.63708694  1
  V  V29  1  0.86596443  0.25881427  0.62938112  1
  V  V30  1  0.87023675  0.38477152  -0.01792527  1
  V  V31  1  0.60759564  0.61083024  0.49735424  1
  V  V32  1  0.61796578  0.37572366  0.24786220  1
  V  V33  1  0.75832131  0.36869136  0.12933922  1
  V  V34  1  0.25280301  0.47929844  0.75805529  1
  V  V35  1  0.61461022  0.61748537  0.01399076  1
  V  V36  1  0.49880785  0.12010792  0.63730771  1
  V  V37  1  0.10978181  0.27348126  0.86929684  1
  V  V38  1  0.85610565  0.10305631  0.75566331  1
  V  V39  1  0.88111636  0.12716202  0.23085323  1
  V  V40  1  0.13668394  0.48918954  0.11550826  1
  V  V41  1  0.49076902  0.24361660  0.24266819  1
  V  V42  1  0.12585467  0.37551773  0.26161081  1
  V  V43  1  0.36410317  0.62555862  0.75955551  1
  V  V44  1  0.00592521  0.75252248  0.25414469  1
  V  V45  1  -0.00186487  0.10606936  0.64302583  1
  V  V46  1  0.62832491  0.75566884  0.37815209  1
  V  V47  1  0.75274389  0.25833633  0.50462890  1
  V  V48  1  0.50962943  0.74097949  0.23980201  1
  V  V49  1  0.25128979  0.74488339  -0.00339299  1
  V  V50  1  -0.00414035  0.25411761  0.27548165  1
  V  V51  1  0.24188385  0.12946984  0.37714447  1
  V  V52  1  -0.01975174  0.87061224  0.88508723  1
  V  V53  1  0.12773854  0.89965905  0.24817384  1
  V  V54  1  0.13147803  0.48450786  0.62735075  1
  V  V55  1  0.38304497  0.75382026  0.62617960  1
  V  V56  1  0.61752290  0.25021309  0.37536469  1
  V  V57  1  0.49648620  0.47281128  -0.00535865  1
  V  V58  1  0.50411384  0.11099918  0.10914368  1
  V  V59  1  0.18708628  0.69060501  0.31826821  1
  V  V60  1  0.00500198  -0.00154150  0.00813715  1
  V  V61  1  0.74747787  0.24142178  0.00572014  1
  V  V62  1  -0.01371124  0.00987177  0.49126498  1
  V  V63  1  0.37509964  0.00869758  0.85268680  1
  V  V64  1  0.49861679  0.61274350  0.63366242  1
  V  V65  1  0.50128689  0.87684003  0.36394384  1
  V  V66  1  0.71285520  0.49259229  0.74472598  1
  V  V67  1  0.23039061  0.12406991  0.86692228  1
  V  V68  1  0.62527478  0.84715891  0.75026464  1
  V  V69  1  -0.01298742  0.25917576  0.75908149  1
  Zn  Zn70  1  0.23525556  0.25498191  0.49596001  1
  Zn  Zn71  1  0.75449840  0.87879213  0.11809636  1
  Zn  Zn72  1  0.36798763  0.10691605  0.24791168  1
  Zn  Zn73  1  0.11533105  0.74174764  0.88597718  1
  Zn  Zn74  1  0.36124606  0.62549380  0.24729431  1
  Zn  Zn75  1  0.02560102  0.46996868  0.93857388  1
  Zn  Zn76  1  0.20865492  0.22271007  0.21797856  1
  Zn  Zn77  1  0.19856029  0.15723500  0.65027945  1
  Zn  Zn78  1  0.17634928  0.69380763  0.14318829  1
  Zn  Zn79  1  0.18230959  0.69394293  0.68764516  1
  Zn  Zn80  1  0.68453647  0.17721060  0.18932796  1
  Zn  Zn81  1  0.68177679  0.18993020  0.68902828  1
  Zn  Zn82  1  0.69121298  0.68744239  0.18844818  1
  Zn  Zn83  1  0.68848178  0.67000835  0.68070771  1
  Zn  Zn84  1  0.31104445  0.32039890  0.32279409  1
  Zn  Zn85  1  0.28469141  0.26752161  0.76939379  1
  Zn  Zn86  1  0.30668977  0.95108287  0.31757464  1
  Zn  Zn87  1  0.32173503  0.80394442  0.81949992  1
  Zn  Zn88  1  0.81150886  0.30590608  0.31778086  1
  Zn  Zn89  1  0.80213708  0.31588369  0.80805049  1
  Zn  Zn90  1  0.81549712  0.80709034  0.31343508  1
  Zn  Zn91  1  0.81685477  0.79453963  0.79752121  1
  Zn  Zn92  1  0.20260373  0.43775324  0.44108639  1
  Zn  Zn93  1  0.20490512  0.43501670  0.94203150  1
  Zn  Zn94  1  0.16143484  0.94347488  0.43511506  1
  Zn  Zn95  1  0.16190474  0.94885868  0.89519348  1
  Zn  Zn96  1  0.68617585  0.43642207  0.43320317  1
  Zn  Zn97  1  0.68065359  0.43947889  0.94719027  1
  Zn  Zn98  1  0.69483122  0.93648909  0.43868996  1
  Zn  Zn99  1  0.68806248  0.92147742  0.93453221  1
  Zn  Zn100  1  0.32003174  0.08440024  0.05486381  1
  Zn  Zn101  1  0.32249964  0.06621878  0.54668143  1
  Zn  Zn102  1  0.32262299  0.55980473  0.05875381  1
  Zn  Zn103  1  0.31010344  0.56013173  0.56683575  1
  Zn  Zn104  1  0.81858505  0.05822240  0.05772132  1
  Zn  Zn105  1  0.81675793  0.05455260  0.56576417  1
  Zn  Zn106  1  0.80722855  0.56412706  0.06527542  1
  Zn  Zn107  1  0.79799557  0.53494088  0.56097578  1
  Zn  Zn108  1  0.42060408  0.43115631  0.17209730  1
  Zn  Zn109  1  0.43208256  0.44234208  0.68985392  1
  Zn  Zn110  1  0.44707692  0.93937170  0.18235992  1
  Zn  Zn111  1  0.43948844  0.93440329  0.68250311  1
  Zn  Zn112  1  0.93426630  0.43185488  0.19339775  1
  Zn  Zn113  1  0.99144789  0.46984198  0.74690393  1
  Zn  Zn114  1  0.93914662  0.94308997  0.18922027  1
  Zn  Zn115  1  0.92932019  0.92570939  0.69748068  1
  Zn  Zn116  1  0.06222029  0.07812310  0.31397572  1
  Zn  Zn117  1  0.04730827  0.05969697  0.81843898  1
  Zn  Zn118  1  0.06490619  0.55152759  0.30793125  1
  Zn  Zn119  1  0.09360601  0.58569426  0.81126358  1
  Zn  Zn120  1  0.56545280  0.06249518  0.30611961  1
  Zn  Zn121  1  0.56354549  0.05517755  0.82233507  1
  Zn  Zn122  1  0.55508060  0.55890412  0.31374959  1
  Zn  Zn123  1  0.55733932  0.56884459  0.82720113  1
  Zn  Zn124  1  0.42946356  0.17956186  0.43314765  1
  Zn  Zn125  1  0.44496449  0.18106171  0.92224205  1
  Zn  Zn126  1  0.43506425  0.68826512  0.42938239  1
  Zn  Zn127  1  0.43608299  0.68973869  0.94290223  1
  Zn  Zn128  1  0.97013453  0.21737799  0.47808488  1
  Zn  Zn129  1  0.92171639  0.18402035  0.93677513  1
  Zn  Zn130  1  0.94353540  0.68239304  0.43125622  1
  Zn  Zn131  1  0.93347841  0.67497130  0.92470294  1
  Zn  Zn132  1  0.05673625  0.32555104  0.05687060  1
  Zn  Zn133  1  0.07628789  0.29908007  0.58458722  1
  Zn  Zn134  1  0.06488617  0.82282882  0.05760373  1
  Zn  Zn135  1  0.06283371  0.82836564  0.54956198  1
  Zn  Zn136  1  0.56811218  0.30101168  0.06636783  1
  Zn  Zn137  1  0.56281094  0.32064063  0.56338719  1
  Zn  Zn138  1  0.56052438  0.81007323  0.05053594  1
  Zn  Zn139  1  0.56439343  0.80783223  0.55833953  1
  O  O140  1  0.04471216  0.16318441  0.10679612  1
  O  O141  1  0.09320268  0.11262995  0.66882908  1
  O  O142  1  0.10640989  0.60338123  0.12402877  1
  O  O143  1  0.13025336  0.62495309  0.60893662  1
  O  O144  1  0.60506320  0.13274768  0.12632235  1
  O  O145  1  0.62022533  0.11225613  0.61812570  1
  O  O146  1  0.63373223  0.62454572  0.11450882  1
  O  O147  1  0.60688582  0.63098210  0.60775815  1
  O  O148  1  0.38186138  0.38803589  0.38181692  1
  O  O149  1  0.37332356  0.34149340  0.90374606  1
  O  O150  1  0.38618706  0.87516141  0.38715137  1
  O  O151  1  0.37885242  0.88402410  0.88021136  1
  O  O152  1  0.87106017  0.38425514  0.37527478  1
  O  O153  1  0.86284307  0.37994744  0.88284100  1
  O  O154  1  0.87963937  0.83874486  0.41175108  1
  O  O155  1  0.88044992  0.85896610  0.86860430  1
  O  O156  1  0.24244865  0.00770507  0.39136594  1
  O  O157  1  0.25994165  0.01892333  0.87792375  1
  O  O158  1  0.27437816  0.49926998  0.37813993  1
  O  O159  1  0.24791853  0.49673323  0.85946705  1
  O  O160  1  0.75167221  0.01035907  0.36920915  1
  O  O161  1  0.73289639  0.01228876  0.88513353  1
  O  O162  1  0.75776353  0.50572473  0.36726642  1
  O  O163  1  0.73715721  0.50215269  0.86636745  1
  O  O164  1  0.23501635  0.50327113  0.11425890  1
  O  O165  1  0.24392232  0.50619475  0.64113935  1
  O  O166  1  0.25332186  0.99765242  0.10496555  1
  O  O167  1  0.24813529  1.04545225  0.63476119  1
  O  O168  1  0.75289654  0.48952868  0.14344024  1
  O  O169  1  0.73446807  0.52321551  0.64732954  1
  O  O170  1  0.76176576  0.99609480  0.13826437  1
  O  O171  1  0.73464713  0.99117787  0.62284031  1
  O  O172  1  0.00017035  0.36000407  0.25197233  1
  O  O173  1  -0.02635518  0.35716516  0.75128824  1
  O  O174  1  0.01587028  0.85834196  0.23269219  1
  O  O175  1  -0.00156985  0.86047522  0.76297625  1
  O  O176  1  0.51633379  0.36430772  0.24627264  1
  O  O177  1  0.50296069  0.37142521  0.74783147  1
  O  O178  1  0.50378669  0.86678253  0.25997844  1
  O  O179  1  0.50868236  0.87454513  0.75546503  1
  O  O180  1  0.49963544  0.13671117  0.24869597  1
  O  O181  1  0.50730927  0.11685400  0.73675873  1
  O  O182  1  0.50200493  0.64021300  0.24640012  1
  O  O183  1  0.48966321  0.62183149  0.73820243  1
  O  O184  1  0.98750374  0.13913292  0.24981147  1
  O  O185  1  0.97065566  0.12452537  0.75771873  1
  O  O186  1  0.99201516  0.63114965  0.24328637  1
  O  O187  1  1.07939704  0.69124902  0.75132383  1
  O  O188  1  0.37875374  0.28598984  -0.04740000  1
  O  O189  1  0.38516253  0.24976219  0.51449912  1
  O  O190  1  0.37244062  0.76251573  0.01140079  1
  O  O191  1  0.36880100  0.75768237  0.49997539  1
  O  O192  1  0.85299427  0.26262837  -0.00926335  1
  O  O193  1  0.85711163  0.23492604  0.51441511  1
  O  O194  1  0.86201910  0.73534312  0.01436475  1
  O  O195  1  0.89059507  0.78616180  0.46835049  1
  O  O196  1  0.15123771  0.22032668  0.56325472  1
  O  O197  1  0.11289551  0.25249773  0.98331761  1
  O  O198  1  0.14058200  0.74862057  0.50553664  1
  O  O199  1  0.14983396  0.74856493  1.03047106  1
  O  O200  1  0.63267408  0.23874271  0.49249966  1
  O  O201  1  0.63761297  0.25214639  0.98556022  1
  O  O202  1  0.61803273  0.73657384  0.48148002  1
  O  O203  1  0.64213104  0.74186453  1.00779060  1
  O  O204  1  0.49839208  0.24804078  0.14005087  1
  O  O205  1  0.50418341  0.23658870  0.63586671  1
  O  O206  1  0.49580943  0.76380190  0.13371522  1
  O  O207  1  0.48725334  0.73965441  0.61393502  1
  O  O208  1  1.00683644  0.22653526  0.11508734  1
  O  O209  1  0.98029745  0.23011541  0.64628329  1
  O  O210  1  0.99001742  0.73383970  0.12659512  1
  O  O211  1  1.01042824  0.77604097  0.63127980  1
  O  O212  1  0.00133520  0.24371073  0.37285268  1
  O  O213  1  -0.00306431  0.24406222  0.86802056  1
  O  O214  1  0.00450806  0.74771651  0.35294932  1
  O  O215  1  -0.00443650  0.75220191  0.87288823  1
  O  O216  1  0.51528893  0.24127454  0.37109319  1
  O  O217  1  0.51388692  0.24872383  0.86039846  1
  O  O218  1  0.50910073  0.75557032  0.36194362  1
  O  O219  1  0.48782982  0.76806198  0.87117654  1
  O  O220  1  0.26353264  0.13647839  0.48531457  1
  O  O221  1  0.27120691  0.15506917  0.97201052  1
  O  O222  1  0.24448727  0.63547031  0.49629452  1
  O  O223  1  0.26766751  0.64575940  1.00680420  1
  O  O224  1  0.74126921  0.11880144  0.49296797  1
  O  O225  1  0.75421521  0.13570950  0.98918490  1
  O  O226  1  0.73811891  0.61897087  0.48864742  1
  O  O227  1  0.73974378  0.62826359  0.99643892  1
  O  O228  1  0.24629811  0.34671428  0.00353722  1
  O  O229  1  0.27418159  0.36382431  0.49661050  1
  O  O230  1  0.26567481  0.86944786  0.01034307  1
  O  O231  1  0.26216700  0.86701372  0.49151364  1
  O  O232  1  0.75087115  0.36697609  0.01080184  1
  O  O233  1  0.74565031  0.35711506  0.49668609  1
  O  O234  1  0.75528643  0.85326284  -0.00219693  1
  O  O235  1  0.73894921  0.86920634  0.51724762  1
  O  O236  1  0.12065570  0.48391882  0.23399935  1
  O  O237  1  0.14456132  0.50278466  0.74282063  1
  O  O238  1  0.10697108  0.99645008  0.24597807  1
  O  O239  1  0.12790429  0.98575410  0.78965295  1
  O  O240  1  0.63180168  0.48280294  0.26373192  1
  O  O241  1  0.61341749  0.49709259  0.75393060  1
  O  O242  1  0.64869910  1.00570415  0.25124481  1
  O  O243  1  0.62239716  0.99404689  0.73736047  1
  O  O244  1  0.39041033  -0.00551768  0.25985992  1
  O  O245  1  0.36712960  -0.01297662  0.75467411  1
  O  O246  1  0.37514189  0.50509599  0.24999007  1
  O  O247  1  0.36228656  0.51586706  0.74601667  1
  O  O248  1  0.87387593  0.01970626  0.24933742  1
  O  O249  1  0.86125329  0.00450399  0.75497349  1
  O  O250  1  0.86701885  0.50610755  0.26094014  1
  O  O251  1  0.89570340  0.56825896  0.70709610  1
  O  O252  1  0.12711607  0.39203888  0.36061804  1
  O  O253  1  0.11043274  0.37283905  0.87651033  1
  O  O254  1  0.13176871  0.87403801  0.34539185  1
  O  O255  1  0.10157012  0.85291704  0.88689239  1
  O  O256  1  0.63298438  0.35658032  0.36645849  1
  O  O257  1  0.62941380  0.36411804  0.87345667  1
  O  O258  1  0.62102261  0.86092800  0.37993883  1
  O  O259  1  0.61163742  0.87466807  0.86093193  1
  O  O260  1  0.39175047  0.12269016  0.13392692  1
  O  O261  1  0.39809174  0.12782298  0.61781455  1
  O  O262  1  0.37330580  0.64497242  0.12767536  1
  O  O263  1  0.38436484  0.63426255  0.62666630  1
  O  O264  1  0.86963959  0.13403560  0.13309164  1
  O  O265  1  0.87005680  0.12280104  0.64364916  1
  O  O266  1  0.87782230  0.62861619  0.13749941  1
  O  O267  1  0.89372860  0.59718000  0.63904497  1
  O  O268  1  0.21518745  0.22306112  0.10382122  1
  O  O269  1  0.28436463  0.24041854  0.64432974  1
  O  O270  1  0.26938475  0.76701110  0.12581172  1
  O  O271  1  0.26628887  0.74502636  0.60696209  1
  O  O272  1  0.74150180  0.24992227  0.11145900  1
  O  O273  1  0.75268564  0.24055858  0.61426037  1
  O  O274  1  0.76483421  0.75510703  0.12939283  1
  O  O275  1  0.74660934  0.74831814  0.62264745  1
  O  O276  1  0.25027593  0.24026367  0.37872016  1
  O  O277  1  0.21722948  0.25209750  0.87394120  1
  O  O278  1  0.24432424  0.74532721  0.38240813  1
  O  O279  1  0.24729190  0.76104379  0.89451046  1
  O  O280  1  0.74417554  0.23537008  0.38807639  1
  O  O281  1  0.73600166  0.24333953  0.87717858  1
  O  O282  1  0.73480593  0.73940596  0.36508155  1
  O  O283  1  0.75211374  0.73882210  0.88445007  1
  O  O284  1  -0.01782376  0.10093695  -0.01748494  1
  O  O285  1  -0.00275397  0.11422558  0.52894285  1
  O  O286  1  -0.01482487  0.61568600  0.01162112  1
  O  O287  1  0.02249199  0.63338307  0.49278192  1
  O  O288  1  0.49165256  0.13353751  0.01009124  1
  O  O289  1  0.51169475  0.11458512  0.50276630  1
  O  O290  1  0.51488251  0.63805907  0.00471682  1
  O  O291  1  0.50485700  0.62359947  0.50027749  1
  O  O292  1  0.48694928  0.36788796  0.49858412  1
  O  O293  1  0.51362527  0.37360852  0.99713164  1
  O  O294  1  0.49792709  0.87739413  0.48849837  1
  O  O295  1  0.48670296  0.87324182  0.98534853  1
  O  O296  1  0.99227684  0.32118413  0.51740917  1
  O  O297  1  0.97626876  0.37974645  0.99747243  1
  O  O298  1  1.06579252  0.93019160  0.50183056  1
  O  O299  1  0.98761276  0.87798304  0.99501611  1
  O  O300  1  0.48070828  0.50240860  0.37430578  1
  O  O301  1  0.49449448  0.50483957  0.89733550  1
  O  O302  1  0.51574201  0.99058062  0.38528884  1
  O  O303  1  0.48372110  0.98772304  0.86774050  1
  O  O304  1  0.98300579  0.50414198  0.37069201  1
  O  O305  1  1.00175089  0.52353722  0.84437589  1
  O  O306  1  0.99712451  1.02452016  0.39372120  1
  O  O307  1  0.99122442  0.97535107  0.87682487  1
  O  O308  1  0.00171003  -0.00658276  0.10957886  1
  O  O309  1  -0.01401765  0.00390230  0.63228171  1
  O  O310  1  -0.00974042  0.50852483  0.12824247  1
  O  O311  1  0.03064503  0.49764248  0.64340087  1
  O  O312  1  0.50576518  0.00943791  0.11755646  1
  O  O313  1  0.51015660  0.00494793  0.61626791  1
  O  O314  1  0.48011490  0.49942715  0.10377897  1
  O  O315  1  0.49371131  0.51440382  0.62275508  1
  O  O316  1  0.22497018  0.34326981  0.24628820  1
  O  O317  1  0.26477840  0.38027202  0.75313444  1
  O  O318  1  0.24094187  0.89506576  0.23217544  1
  O  O319  1  0.24103374  0.85948458  0.74481430  1
  O  O320  1  0.74463382  0.37628305  0.24877339  1
  O  O321  1  0.75017179  0.39842345  0.75107776  1
  O  O322  1  0.76579761  0.89127770  0.25576350  1
  O  O323  1  0.73104123  0.85728672  0.74229601  1
  O  O324  1  0.25293933  0.12995025  0.26452838  1
  O  O325  1  0.24904167  0.15040037  0.76890243  1
  O  O326  1  0.24216565  0.64368138  0.24701178  1
  O  O327  1  0.26301399  0.63567149  0.74882048  1
  O  O328  1  0.76313275  0.12236053  0.26136818  1
  O  O329  1  0.74636210  0.12164587  0.75948724  1
  O  O330  1  0.75669347  0.61595588  0.25821214  1
  O  O331  1  0.73288811  0.61305183  0.76833067  1
  O  O332  1  0.36379907  0.11833478  0.36843722  1
  O  O333  1  0.38117471  0.11094685  0.85984486  1
  O  O334  1  0.37575277  0.61865182  0.36448915  1
  O  O335  1  0.37955236  0.63966398  0.85716676  1
  O  O336  1  0.86362389  0.12712216  0.38218567  1
  O  O337  1  0.84944150  0.12868889  0.86211978  1
  O  O338  1  0.86546899  0.62651139  0.36724351  1
  O  O339  1  0.84792858  0.61579765  0.88220535  1
  O  O340  1  0.11498352  0.38410674  0.13350864  1
  O  O341  1  0.13989146  0.38515679  0.62346248  1
  O  O342  1  0.14075988  0.87688207  0.12967813  1
  O  O343  1  0.15497971  0.94568554  0.65017404  1
  O  O344  1  0.63763453  0.36503654  0.14347800  1
  O  O345  1  0.63831411  0.35724609  0.63272043  1
  O  O346  1  0.63098410  0.90040433  0.09121465  1
  O  O347  1  0.62397916  0.87755151  0.63492406  1
  O  O348  1  0.10007001  0.25797676  0.24775454  1
  O  O349  1  0.09542359  0.25494593  0.76113870  1
  O  O350  1  0.11920584  0.73958502  0.24392051  1
  O  O351  1  0.18088437  0.81526917  0.73169279  1
  O  O352  1  0.62317270  0.25296492  0.26248662  1
  O  O353  1  0.61647895  0.25133288  0.75851848  1
  O  O354  1  0.61690271  0.74721180  0.25800607  1
  O  O355  1  0.61540663  0.74991213  0.74365170  1
  O  O356  1  0.39327567  0.25839014  0.26194607  1
  O  O357  1  0.40069422  0.25077841  0.74198432  1
  O  O358  1  0.39244992  0.75432776  0.23641194  1
  O  O359  1  0.37251246  0.74584780  0.73175428  1
  O  O360  1  0.88341005  0.23958220  0.25666913  1
  O  O361  1  0.86685834  0.24177681  0.74323902  1
  O  O362  1  0.88736064  0.74298579  0.24324190  1
  O  O363  1  0.89821475  0.73026723  0.74311409  1
  O  O364  1  0.37649852  0.48948651  0.50477708  1
  O  O365  1  0.38900543  0.48497195  1.01148358  1
  O  O366  1  0.38908125  0.98158005  0.50913225  1
  O  O367  1  0.37222541  0.99178589  0.98856441  1
  O  O368  1  0.86995373  0.50307844  0.48573814  1
  O  O369  1  0.85627884  0.48314235  1.00266437  1
  O  O370  1  0.88846283  0.98878314  0.50305159  1
  O  O371  1  0.88825880  1.00145082  0.99213985  1
  O  O372  1  0.10510224  -0.00752660  -0.01368412  1
  O  O373  1  0.18383188  -0.00647581  0.60092984  1
  O  O374  1  0.11834031  0.48013869  0.00933398  1
  O  O375  1  0.13778809  0.51103140  0.51135333  1
  O  O376  1  0.63122004  -0.04257058  0.03501060  1
  O  O377  1  0.61943693  0.00165815  0.50889123  1
  O  O378  1  0.60926883  0.50726248  0.00852327  1
  O  O379  1  0.62282528  0.51154775  0.49125149  1
  O  O380  1  0.35666812  0.34430964  0.15009977  1
  O  O381  1  0.38711882  0.36174633  0.61851129  1
  O  O382  1  0.37267273  0.87790377  0.11330861  1
  O  O383  1  0.38393371  0.86093769  0.60938284  1
  O  O384  1  0.86104563  0.36867776  0.12582674  1
  O  O385  1  0.86858316  0.35413779  0.62616475  1
  O  O386  1  0.88084450  0.85720596  0.12881052  1
  O  O387  1  0.85175057  0.87071891  0.63508814  1
  O  O388  1  0.13939853  0.12600862  0.37921748  1
  O  O389  1  0.12941913  0.12620497  0.87519040  1
  O  O390  1  0.13288947  0.62281684  0.37534305  1
  O  O391  1  0.13176039  0.63443187  0.90312960  1
  O  O392  1  0.63272825  0.13157573  0.38190253  1
  O  O393  1  0.63183367  0.13313173  0.87173506  1
  O  O394  1  0.62730563  0.62947259  0.38049768  1
  O  O395  1  0.63450790  0.62323218  0.89700169  1
