# generated using pymatgen
data_V35Zn35O128
_symmetry_space_group_name_H-M   'P 1'
_cell_length_a   16.87153972
_cell_length_b   16.84043986
_cell_length_c   16.86303639
_cell_angle_alpha   89.90810439
_cell_angle_beta   89.95125204
_cell_angle_gamma   89.74393203
_symmetry_Int_Tables_number   1
_chemical_formula_structural   V35Zn35O128
_chemical_formula_sum   'V70 Zn70 O256'
_cell_volume   4791.14016511
_cell_formula_units_Z   2
loop_
 _symmetry_equiv_pos_site_id
 _symmetry_equiv_pos_as_xyz
  1  'x, y, z'
loop_
 _atom_site_type_symbol
 _atom_site_label
 _atom_site_symmetry_multiplicity
 _atom_site_fract_x
 _atom_site_fract_y
 _atom_site_fract_z
 _atom_site_occupancy
  V  V0  1  -0.00406398  0.62082374  0.62372589  1
  V  V1  1  0.37176620  0.62265923  0.25851200  1
  V  V2  1  0.50182547  0.60872560  0.62260459  1
  V  V3  1  0.13268205  0.50113559  0.11673492  1
  V  V4  1  0.37426435  0.62591888  0.75226148  1
  V  V5  1  0.62568752  0.11811562  0.52098296  1
  V  V6  1  0.36604844  -0.00326801  0.89005479  1
  V  V7  1  0.61834716  0.51226607  0.12481780  1
  V  V8  1  0.74968271  0.25116208  0.51921501  1
  V  V9  1  0.86500351  0.13013025  0.26553761  1
  V  V10  1  0.74994114  -0.01267207  0.24193068  1
  V  V11  1  -0.00614249  0.74022527  0.75129115  1
  V  V12  1  0.86683756  0.24742299  0.12133115  1
  V  V13  1  0.26184820  0.25358266  0.49387172  1
  V  V14  1  0.24969988  0.50310127  0.26618948  1
  V  V15  1  0.49502876  0.87991506  0.89327556  1
  V  V16  1  0.25576133  0.76085007  0.00263497  1
  V  V17  1  0.49952076  0.76160835  0.74624165  1
  V  V18  1  0.38365427  -0.00162740  0.36537119  1
  V  V19  1  0.12648200  0.37915925  0.25477454  1
  V  V20  1  0.75520842  0.51247719  0.25298889  1
  V  V21  1  0.64962817  0.13148738  -0.03526690  1
  V  V22  1  0.36800562  0.75682662  0.60824125  1
  V  V23  1  0.26402164  0.37285581  0.63897057  1
  V  V24  1  0.87309076  -0.01470017  0.38368628  1
  V  V25  1  0.78777892  0.00974607  0.74705831  1
  V  V26  1  0.13565080  0.77090820  0.86925415  1
  V  V27  1  0.24617842  0.88348284  0.12382837  1
  V  V28  1  0.36678469  0.37408019  0.01474958  1
  V  V29  1  0.12565547  0.24348871  0.38196181  1
  V  V30  1  0.13947982  0.62686249  0.49807255  1
  V  V31  1  0.03197018  0.37799555  0.88147668  1
  V  V32  1  0.75287944  0.49125037  0.75887958  1
  V  V33  1  0.87910417  0.38001286  -0.00439502  1
  V  V34  1  -0.00296393  0.25952719  0.25790953  1
  V  V35  1  0.49090032  0.23592521  0.24876627  1
  V  V36  1  0.65323503  0.74550272  0.38960148  1
  V  V37  1  0.25387575  0.62836638  0.87640652  1
  V  V38  1  -0.00891719  0.13499688  0.61874183  1
  V  V39  1  0.37863786  0.49644089  0.86963653  1
  V  V40  1  0.38891950  0.74914603  0.12163806  1
  V  V41  1  0.22420160  0.88663564  0.61916799  1
  V  V42  1  0.49026669  0.38498067  0.37608200  1
  V  V43  1  0.49866447  0.49562137  0.00257208  1
  V  V44  1  0.24413032  0.01127992  0.25904602  1
  V  V45  1  0.13508572  0.49627651  0.63740038  1
  V  V46  1  0.12979824  0.13806605  -0.01641808  1
  V  V47  1  0.50089157  0.11131455  0.10794322  1
  V  V48  1  0.63226577  0.60782669  0.50197495  1
  V  V49  1  0.90967365  0.49036153  0.40431205  1
  V  V50  1  -0.01661535  0.87936679  0.86944870  1
  V  V51  1  0.63414072  0.23364025  0.36588063  1
  V  V52  1  0.61990455  0.37206441  0.24582336  1
  V  V53  1  0.01053766  -0.00511592  0.49779460  1
  V  V54  1  0.50025026  -0.01437452  0.49864913  1
  V  V55  1  0.00435704  0.24950873  0.76293982  1
  V  V56  1  0.63382321  -0.02841341  0.63736855  1
  V  V57  1  0.63289977  0.75946794  0.86812984  1
  V  V58  1  0.49015140  0.75138456  0.28278512  1
  V  V59  1  0.12488806  0.87348543  0.25979843  1
  V  V60  1  0.00139638  0.12237186  0.12057025  1
  V  V61  1  0.62081071  0.64105642  -0.00817434  1
  V  V62  1  0.40416180  0.24742132  0.61338568  1
  V  V63  1  0.38184629  0.11419638  0.72934045  1
  V  V64  1  0.87274384  0.85501377  0.51722222  1
  V  V65  1  0.74478417  0.37203395  0.12173496  1
  V  V66  1  0.36201954  0.24692105  0.12817701  1
  V  V67  1  -0.00499016  0.74680847  0.25338871  1
  V  V68  1  -0.00774913  0.62749197  0.12599881  1
  V  V69  1  -0.00775616  -0.00782664  -0.00501542  1
  Zn  Zn70  1  -0.04301063  0.54339995  -0.04667513  1
  Zn  Zn71  1  0.60951528  0.87860034  0.26659786  1
  Zn  Zn72  1  0.12751655  0.63031173  0.00136390  1
  Zn  Zn73  1  0.13309539  0.74396583  0.38206247  1
  Zn  Zn74  1  0.13481813  0.10951617  0.50894320  1
  Zn  Zn75  1  0.23381864  0.00542292  0.74504926  1
  Zn  Zn76  1  0.17944121  0.19175246  0.18480188  1
  Zn  Zn77  1  0.18561201  0.18004968  0.69052157  1
  Zn  Zn78  1  0.18762150  0.68774262  0.18952667  1
  Zn  Zn79  1  0.18731284  0.69341652  0.68488121  1
  Zn  Zn80  1  0.68229383  0.17795292  0.17817784  1
  Zn  Zn81  1  0.69230549  0.18426894  0.70358790  1
  Zn  Zn82  1  0.66822945  0.68734263  0.19966164  1
  Zn  Zn83  1  0.68223248  0.67967392  0.68608270  1
  Zn  Zn84  1  0.30689258  0.31661267  0.31195597  1
  Zn  Zn85  1  0.35591951  0.30224634  0.81049765  1
  Zn  Zn86  1  0.31317069  0.81771051  0.32258183  1
  Zn  Zn87  1  0.31455451  0.82484315  0.80075032  1
  Zn  Zn88  1  0.81256618  0.32472343  0.31506456  1
  Zn  Zn89  1  0.83086336  0.29917797  0.80773489  1
  Zn  Zn90  1  0.81786665  0.80674515  0.31611582  1
  Zn  Zn91  1  0.79992733  0.80248072  0.75753564  1
  Zn  Zn92  1  0.17781286  0.43709784  0.44557326  1
  Zn  Zn93  1  0.19936385  0.43936097  0.93920081  1
  Zn  Zn94  1  0.20189962  0.92783678  0.43667762  1
  Zn  Zn95  1  0.18178770  0.95778943  0.94267486  1
  Zn  Zn96  1  0.68772097  0.43092619  0.43128827  1
  Zn  Zn97  1  0.68258968  0.42549292  0.94425589  1
  Zn  Zn98  1  0.69868652  0.93388093  0.44052182  1
  Zn  Zn99  1  0.68801456  0.95593018  0.92176478  1
  Zn  Zn100  1  0.30880963  0.06921508  0.06784648  1
  Zn  Zn101  1  0.31257249  0.06309288  0.55577550  1
  Zn  Zn102  1  0.31231801  0.56825659  0.06829965  1
  Zn  Zn103  1  0.30620756  0.56374333  0.56913255  1
  Zn  Zn104  1  0.80423835  0.05541243  0.05280199  1
  Zn  Zn105  1  0.80722466  0.06096014  0.56356848  1
  Zn  Zn106  1  0.82116262  0.58906247  0.03435713  1
  Zn  Zn107  1  0.81699171  0.55890715  0.56608843  1
  Zn  Zn108  1  0.43629690  0.43784412  0.19283246  1
  Zn  Zn109  1  0.42920141  0.43939259  0.54210505  1
  Zn  Zn110  1  0.43090248  0.93088882  0.18716859  1
  Zn  Zn111  1  0.44215044  0.93812735  0.67215896  1
  Zn  Zn112  1  0.93863576  0.44341276  0.18222021  1
  Zn  Zn113  1  0.95454180  0.45385294  0.71566550  1
  Zn  Zn114  1  0.95291277  0.95189613  0.20591797  1
  Zn  Zn115  1  0.96129176  0.93506054  0.68038745  1
  Zn  Zn116  1  0.05862624  0.06387322  0.31364287  1
  Zn  Zn117  1  0.05822896  0.06747409  0.80846256  1
  Zn  Zn118  1  0.05564388  0.56130204  0.31762355  1
  Zn  Zn119  1  0.08098240  0.56380095  0.81275870  1
  Zn  Zn120  1  0.56251588  0.05558297  0.30621920  1
  Zn  Zn121  1  0.55682785  0.06358887  0.81115975  1
  Zn  Zn122  1  0.56356462  0.56942698  0.31614495  1
  Zn  Zn123  1  0.55983824  0.56292792  0.81382265  1
  Zn  Zn124  1  0.44352457  0.17455712  0.43223231  1
  Zn  Zn125  1  0.41743906  0.18396025  0.92990239  1
  Zn  Zn126  1  0.41140860  0.62845057  0.45850048  1
  Zn  Zn127  1  0.44425676  0.68893271  0.94127608  1
  Zn  Zn128  1  0.93805216  0.19609496  0.45059555  1
  Zn  Zn129  1  0.92736773  0.19066459  0.93310584  1
  Zn  Zn130  1  0.94040016  0.67476004  0.43134929  1
  Zn  Zn131  1  0.94135542  0.70616631  0.93782900  1
  Zn  Zn132  1  0.06204249  0.31515913  0.06833517  1
  Zn  Zn133  1  0.09317316  0.28863961  0.59864164  1
  Zn  Zn134  1  0.06820060  0.81287818  0.06640226  1
  Zn  Zn135  1  0.05408331  0.80856359  0.55919705  1
  Zn  Zn136  1  0.55472232  0.30084774  0.05235073  1
  Zn  Zn137  1  0.58791583  0.32322872  0.54198514  1
  Zn  Zn138  1  0.60682981  0.85778965  0.04151944  1
  Zn  Zn139  1  0.56231089  0.80335106  0.55763926  1
  O  O140  1  0.10221051  0.13001929  0.12498659  1
  O  O141  1  0.10740861  0.13132805  0.61944116  1
  O  O142  1  0.12428134  0.61468695  0.12334064  1
  O  O143  1  0.12680937  0.61747203  0.62258727  1
  O  O144  1  0.60305939  0.12017742  0.12419309  1
  O  O145  1  0.62021135  0.13024522  0.62017826  1
  O  O146  1  0.61431798  0.61467458  0.12167810  1
  O  O147  1  0.60977824  0.61954782  0.62364364  1
  O  O148  1  0.39134585  0.36884874  0.36776844  1
  O  O149  1  0.36836556  0.39593616  0.88802412  1
  O  O150  1  0.35903798  0.89878390  0.38589806  1
  O  O151  1  0.38594678  0.88080407  0.87403959  1
  O  O152  1  0.87159179  0.40010267  0.36856656  1
  O  O153  1  0.87001943  0.37378580  0.89558924  1
  O  O154  1  0.88030742  0.88342757  0.38196874  1
  O  O155  1  0.88948135  0.86346648  0.88265925  1
  O  O156  1  0.24985263  0.00517966  0.36267135  1
  O  O157  1  0.26403156  -0.01612577  0.86562458  1
  O  O158  1  0.24563284  0.49758188  0.36469842  1
  O  O159  1  0.26556397  0.51872110  0.88739655  1
  O  O160  1  0.76787567  0.00006756  0.36676455  1
  O  O161  1  0.76612372  -0.01099008  0.85058974  1
  O  O162  1  0.73719073  0.49530881  0.35246012  1
  O  O163  1  0.74570085  0.48994295  0.86539687  1
  O  O164  1  0.23675459  0.50366391  0.13219490  1
  O  O165  1  0.25389224  0.48187378  0.62829365  1
  O  O166  1  0.25991174  0.98739870  0.13667075  1
  O  O167  1  0.24114724  0.99254756  0.61310925  1
  O  O168  1  0.72828501  0.48920704  0.13078510  1
  O  O169  1  0.75321694  0.49100797  0.65484373  1
  O  O170  1  0.76225822  1.00247779  0.14307689  1
  O  O171  1  0.74117098  0.99825046  0.63676739  1
  O  O172  1  0.00511619  0.36526027  0.24387146  1
  O  O173  1  0.01062822  0.37701060  0.77741252  1
  O  O174  1  0.01559024  0.86603102  0.23981064  1
  O  O175  1  -0.00072453  0.86142306  0.76411852  1
  O  O176  1  0.50573331  0.36309076  0.25264680  1
  O  O177  1  0.54347513  0.37718105  0.70294599  1
  O  O178  1  0.49574968  0.85554563  0.25088276  1
  O  O179  1  0.49710637  0.86202546  0.74730833  1
  O  O180  1  0.49623231  0.13369493  0.24643779  1
  O  O181  1  0.48167493  0.12328605  0.74697770  1
  O  O182  1  0.48384749  0.63637823  0.25715177  1
  O  O183  1  0.49187425  0.62794865  0.74347848  1
  O  O184  1  0.98614848  0.13131764  0.24044719  1
  O  O185  1  0.99842176  0.14299203  0.73744479  1
  O  O186  1  1.00899533  0.63631930  0.23888966  1
  O  O187  1  1.01142101  0.63464659  0.75228341  1
  O  O188  1  0.38409497  0.26600818  0.02038579  1
  O  O189  1  0.36822873  0.24213686  0.49954913  1
  O  O190  1  0.36817620  0.74848331  0.01081815  1
  O  O191  1  0.37764245  0.73031768  0.51294987  1
  O  O192  1  0.87873258  0.26107403  0.01919054  1
  O  O193  1  0.84563891  0.25391846  0.48781231  1
  O  O194  1  0.83950697  0.77706630  0.02486994  1
  O  O195  1  0.89163723  0.75794837  0.49351504  1
  O  O196  1  0.12704029  0.25646942  0.48496079  1
  O  O197  1  0.11923933  0.23665618  1.01090517  1
  O  O198  1  0.11507914  0.73358752  0.49972459  1
  O  O199  1  0.13937944  0.75488124  0.98795547  1
  O  O200  1  0.62428507  0.22665908  0.48065308  1
  O  O201  1  0.61977442  0.22697218  0.99950089  1
  O  O202  1  0.63233897  0.73912147  0.49273154  1
  O  O203  1  0.61454278  0.74635331  0.98546179  1
  O  O204  1  0.49394688  0.24146609  0.13815735  1
  O  O205  1  0.50137324  0.25628311  0.59945651  1
  O  O206  1  0.48592798  0.75320295  0.12191837  1
  O  O207  1  0.49444322  0.74208512  0.63647550  1
  O  O208  1  0.98622647  0.24408789  0.13730915  1
  O  O209  1  0.99204161  0.23567361  0.59007394  1
  O  O210  1  1.01076483  0.73813105  0.13303092  1
  O  O211  1  1.00498183  0.73658469  0.64433683  1
  O  O212  1  0.00847762  0.24812723  0.36698561  1
  O  O213  1  0.00411996  0.26143946  0.86968375  1
  O  O214  1  0.01023047  0.73910738  0.35662843  1
  O  O215  1  0.01752116  0.76317565  0.87676753  1
  O  O216  1  0.50708356  0.24927434  0.36118992  1
  O  O217  1  0.45672447  0.26544302  0.86042318  1
  O  O218  1  0.47746299  0.75233962  0.37837943  1
  O  O219  1  0.49744714  0.76213979  0.86503578  1
  O  O220  1  0.24378877  0.14614229  0.50671525  1
  O  O221  1  0.22765305  0.11619155  1.00300589  1
  O  O222  1  0.23916361  0.63403233  0.50765033  1
  O  O223  1  0.25392504  0.64189571  0.99209868  1
  O  O224  1  0.73443100  0.13482901  0.50419630  1
  O  O225  1  0.75125303  0.12767202  0.98612796  1
  O  O226  1  0.73133049  0.61709291  0.52278045  1
  O  O227  1  0.71815435  0.62507997  1.01090986  1
  O  O228  1  0.26787895  0.37752013  0.00704420  1
  O  O229  1  0.25072236  0.35933120  0.49647808  1
  O  O230  1  0.24369104  0.87588060  0.01448235  1
  O  O231  1  0.24575622  0.86699229  0.51915134  1
  O  O232  1  0.76064292  0.37620891  0.01392984  1
  O  O233  1  0.70287729  0.34950086  0.51015465  1
  O  O234  1  0.70757221  0.89694142  0.01396612  1
  O  O235  1  0.77323511  0.87260734  0.50330324  1
  O  O236  1  0.13500712  0.49748431  0.24824710  1
  O  O237  1  0.14627042  0.50733957  0.73779403  1
  O  O238  1  0.13064778  0.98854768  0.25620976  1
  O  O239  1  0.12014744  0.99679042  0.75170824  1
  O  O240  1  0.62107373  0.49335799  0.23692315  1
  O  O241  1  0.64645385  0.49147936  0.76083187  1
  O  O242  1  0.64341851  0.99024574  0.25771662  1
  O  O243  1  0.61328658  0.99537878  0.73295071  1
  O  O244  1  0.36141389  -0.00264535  0.25904460  1
  O  O245  1  0.37297147  0.00927104  0.72604920  1
  O  O246  1  0.36329287  0.51160815  0.24346502  1
  O  O247  1  0.37782570  0.51107678  0.76786772  1
  O  O248  1  0.87341712  0.01228770  0.26210902  1
  O  O249  1  0.88750504  0.00323742  0.73858220  1
  O  O250  1  0.85360892  0.49738028  0.23605606  1
  O  O251  1  0.85696914  0.50036858  0.76494902  1
  O  O252  1  0.12690332  0.36510240  0.36178161  1
  O  O253  1  0.13020988  0.36638020  0.88779148  1
  O  O254  1  0.13046388  0.86875022  0.36257192  1
  O  O255  1  0.12819329  0.87120057  0.87755483  1
  O  O256  1  0.61332499  0.36127801  0.35951270  1
  O  O257  1  0.62123724  0.34731383  0.87692044  1
  O  O258  1  0.64307845  0.85255941  0.37690433  1
  O  O259  1  0.60753878  0.86591918  0.87291579  1
  O  O260  1  0.38055597  0.14191134  0.12288630  1
  O  O261  1  0.38389137  0.13540991  0.61725687  1
  O  O262  1  0.36766413  0.64259495  0.13717662  1
  O  O263  1  0.38111686  0.63392633  0.63713039  1
  O  O264  1  0.87748224  0.13887537  0.13164867  1
  O  O265  1  0.89108796  0.11868080  0.61499080  1
  O  O266  1  0.89238992  0.62344767  0.11969803  1
  O  O267  1  0.89678994  0.61098706  0.63213604  1
  O  O268  1  0.26270531  0.25000223  0.13436554  1
  O  O269  1  0.24293508  0.26403601  0.60929413  1
  O  O270  1  0.24964799  0.75909225  0.11522598  1
  O  O271  1  0.26459089  0.76028198  0.63234083  1
  O  O272  1  0.75973506  0.25520652  0.13453739  1
  O  O273  1  0.74673440  0.24588600  0.61961446  1
  O  O274  1  0.69929783  0.78460153  0.14682124  1
  O  O275  1  0.76479216  0.74623004  0.66667575  1
  O  O276  1  0.23933222  0.25162584  0.38143095  1
  O  O277  1  0.31462454  0.22985072  0.88818586  1
  O  O278  1  0.24357110  0.73914332  0.35554543  1
  O  O279  1  0.24829356  0.75536361  0.87989623  1
  O  O280  1  0.73286373  0.25662067  0.36760071  1
  O  O281  1  0.66767817  0.29824961  0.83366357  1
  O  O282  1  0.75099412  0.73305185  0.37176301  1
  O  O283  1  0.73001654  0.76133477  0.85756481  1
  O  O284  1  -0.00624285  0.12656715  0.00925627  1
  O  O285  1  0.00307204  0.11248580  0.49995381  1
  O  O286  1  0.01066362  0.63337964  0.01357682  1
  O  O287  1  0.00847244  0.62499328  0.52176651  1
  O  O288  1  0.48611527  0.12713329  0.00825865  1
  O  O289  1  0.52391607  0.10554235  0.48573915  1
  O  O290  1  0.51041711  0.61151232  0.00068585  1
  O  O291  1  0.51115415  0.62946240  0.51832743  1
  O  O292  1  0.50637662  0.37702844  0.48166705  1
  O  O293  1  0.49132174  0.38707082  1.00172253  1
  O  O294  1  0.51797772  0.88680658  0.48987239  1
  O  O295  1  0.50252886  0.87568150  0.99317980  1
  O  O296  1  0.91180479  0.36723762  0.57703046  1
  O  O297  1  0.99143958  0.36916372  0.98961037  1
  O  O298  1  0.99109512  0.88943683  0.49912904  1
  O  O299  1  1.00762596  0.88610614  0.99433283  1
  O  O300  1  0.50145024  0.48389825  0.36049753  1
  O  O301  1  0.48701299  0.50567804  0.88554748  1
  O  O302  1  0.49248872  0.99490307  0.37485365  1
  O  O303  1  0.49059897  0.98289011  0.86892564  1
  O  O304  1  1.01178489  0.48273301  0.38931631  1
  O  O305  1  1.02124357  0.48803153  0.87980060  1
  O  O306  1  0.98214289  1.00867155  0.38163459  1
  O  O307  1  0.99601419  0.98905005  0.88220113  1
  O  O308  1  -0.00954674  0.01522929  0.11837735  1
  O  O309  1  0.00551946  0.00949217  0.60329004  1
  O  O310  1  0.01469487  0.51649178  0.13396877  1
  O  O311  1  0.02109787  0.51028539  0.64283562  1
  O  O312  1  0.48239112  0.01305518  0.12904356  1
  O  O313  1  0.52163701  -0.00800317  0.60664447  1
  O  O314  1  0.51226014  0.49208695  0.12065288  1
  O  O315  1  0.48645210  0.51063319  0.62489491  1
  O  O316  1  0.24139053  0.38979455  0.24901606  1
  O  O317  1  0.27409211  0.36011980  0.73651937  1
  O  O318  1  0.23954718  0.88310793  0.24345021  1
  O  O319  1  0.25855748  0.88500247  0.72470227  1
  O  O320  1  0.73549901  0.37980586  0.23928303  1
  O  O321  1  0.75900266  0.38604657  0.76080771  1
  O  O322  1  0.76745945  0.88778840  0.25057652  1
  O  O323  1  0.75220649  0.90283377  0.75835277  1
  O  O324  1  0.23775551  0.10878693  0.23926955  1
  O  O325  1  0.26912070  0.12339763  0.74007348  1
  O  O326  1  0.25527372  0.61244923  0.24744540  1
  O  O327  1  0.26394052  0.63876608  0.76402012  1
  O  O328  1  0.76331005  0.12033215  0.24650779  1
  O  O329  1  0.76228972  0.10974051  0.74586689  1
  O  O330  1  0.74080950  0.61222077  0.23966792  1
  O  O331  1  0.74720277  0.59760947  0.75869719  1
  O  O332  1  0.37037181  0.09939805  0.38864313  1
  O  O333  1  0.38078418  0.09502077  0.85603446  1
  O  O334  1  0.36282390  0.63102702  0.35665168  1
  O  O335  1  0.37267108  0.62423886  0.87218777  1
  O  O336  1  0.87429231  0.12990299  0.36544646  1
  O  O337  1  0.84036909  0.20328281  0.86308727  1
  O  O338  1  0.89148940  0.58912319  0.37409912  1
  O  O339  1  0.87245842  0.62204115  0.93446572  1
  O  O340  1  0.11635752  0.39112112  0.13799854  1
  O  O341  1  0.14307288  0.38940751  0.62293077  1
  O  O342  1  0.13980348  0.87518812  0.13526842  1
  O  O343  1  0.12428811  0.87052378  0.62632542  1
  O  O344  1  0.62790853  0.36951014  0.12968593  1
  O  O345  1  0.59810403  0.37882740  0.65318267  1
  O  O346  1  0.63675934  0.83674699  0.15387229  1
  O  O347  1  0.62969137  0.87216419  0.62655122  1
  O  O348  1  0.11695980  0.25823069  0.25671193  1
  O  O349  1  0.10016561  0.26168193  0.71857434  1
  O  O350  1  0.12243901  0.76251547  0.24919016  1
  O  O351  1  0.12291471  0.75104727  0.76746751  1
  O  O352  1  0.61445041  0.25162676  0.25079991  1
  O  O353  1  0.63093191  0.26461596  0.77295705  1
  O  O354  1  0.60265331  0.73711270  0.28292230  1
  O  O355  1  0.60662541  0.73780696  0.76078919  1
  O  O356  1  0.38438020  0.25619734  0.24225039  1
  O  O357  1  0.38467421  0.24098000  0.71539366  1
  O  O358  1  0.38015061  0.74413532  0.24433553  1
  O  O359  1  0.38726753  0.74306497  0.74814332  1
  O  O360  1  0.87727400  0.24441215  0.24961521  1
  O  O361  1  0.91231151  0.27494179  0.72685237  1
  O  O362  1  0.89564592  0.75906462  0.24762220  1
  O  O363  1  0.89644269  0.74079161  0.77226310  1
  O  O364  1  0.37589520  0.52337970  0.49098889  1
  O  O365  1  0.38168680  0.49565189  1.00483266  1
  O  O366  1  0.39856081  0.99805590  0.50340315  1
  O  O367  1  0.36525040  1.00434037  0.98885823  1
  O  O368  1  0.88079471  0.49255808  0.50337310  1
  O  O369  1  0.87966219  0.48176702  1.01913600  1
  O  O370  1  0.87783427  0.99612575  0.49064468  1
  O  O371  1  0.89190694  1.00317328  1.00143837  1
  O  O372  1  0.10167192  0.02091308  -0.00208974  1
  O  O373  1  0.11238553  -0.00265310  0.47711135  1
  O  O374  1  0.13116135  0.50010237  0.01352634  1
  O  O375  1  0.13392901  0.51303065  0.52052567  1
  O  O376  1  0.62132621  0.03191939  -0.01710317  1
  O  O377  1  0.63523200  0.00624474  0.51148677  1
  O  O378  1  0.61710398  0.49837146  0.00946568  1
  O  O379  1  0.62205578  0.50809114  0.49226373  1
  O  O380  1  0.37699486  0.36879692  0.12177636  1
  O  O381  1  0.37049187  0.35923913  0.60860920  1
  O  O382  1  0.35731863  0.85766377  0.13524811  1
  O  O383  1  0.38762232  0.85647933  0.61327988  1
  O  O384  1  0.86720636  0.36282306  0.12695040  1
  O  O385  1  0.87801317  0.39533440  0.63631347  1
  O  O386  1  0.84492444  0.82754133  0.07735845  1
  O  O387  1  0.88979823  0.86674636  0.61691864  1
  O  O388  1  0.12205829  0.14127857  0.37333239  1
  O  O389  1  0.11412474  0.13515746  0.88335913  1
  O  O390  1  0.12147276  0.61732839  0.39496423  1
  O  O391  1  0.14182216  0.63748871  0.87981444  1
  O  O392  1  0.63120096  0.13331405  0.35788810  1
  O  O393  1  0.63056198  0.13226185  0.86300171  1
  O  O394  1  0.62104443  0.63239289  0.39327800  1
  O  O395  1  0.61681919  0.63877090  0.88443286  1
