# generated using pymatgen
data_V35Zn35O128
_symmetry_space_group_name_H-M   'P 1'
_cell_length_a   16.83267256
_cell_length_b   16.85408054
_cell_length_c   16.88532667
_cell_angle_alpha   89.96191050
_cell_angle_beta   90.04406287
_cell_angle_gamma   89.91120876
_symmetry_Int_Tables_number   1
_chemical_formula_structural   V35Zn35O128
_chemical_formula_sum   'V70 Zn70 O256'
_cell_volume   4790.34575970
_cell_formula_units_Z   2
loop_
 _symmetry_equiv_pos_site_id
 _symmetry_equiv_pos_as_xyz
  1  'x, y, z'
loop_
 _atom_site_type_symbol
 _atom_site_label
 _atom_site_symmetry_multiplicity
 _atom_site_fract_x
 _atom_site_fract_y
 _atom_site_fract_z
 _atom_site_occupancy
  V  V0  1  0.37128108  0.38076611  0.00490711  1
  V  V1  1  0.11769827  0.86351136  0.25528675  1
  V  V2  1  0.13684316  0.73569310  0.88917575  1
  V  V3  1  0.88027334  -0.02320645  0.87039022  1
  V  V4  1  0.50033227  0.87754372  0.86594695  1
  V  V5  1  0.24554656  0.00631459  0.25496159  1
  V  V6  1  0.74812920  -0.00856601  0.73762637  1
  V  V7  1  0.25802931  0.00821654  0.76823310  1
  V  V8  1  0.62068536  0.89887048  0.24990407  1
  V  V9  1  0.01381138  0.51234475  -0.00812784  1
  V  V10  1  0.86762113  0.39181100  0.49575843  1
  V  V11  1  -0.00658436  -0.00455320  -0.00030225  1
  V  V12  1  0.37026859  0.12106662  0.25934818  1
  V  V13  1  0.75067538  0.13126028  0.87275080  1
  V  V14  1  0.24917491  0.74708934  0.48505075  1
  V  V15  1  -0.00176581  0.50066255  0.49852421  1
  V  V16  1  0.62950240  0.75132032  0.87441253  1
  V  V17  1  0.50599667  0.25725491  0.25210684  1
  V  V18  1  0.89245190  0.23705037  0.11615277  1
  V  V19  1  0.63010013  0.12306705  -0.00385792  1
  V  V20  1  0.12285133  0.12754839  0.48749064  1
  V  V21  1  0.36951643  0.77244989  0.62672128  1
  V  V22  1  0.07134652  0.34149909  0.31532797  1
  V  V23  1  0.24680450  0.39935691  0.12923449  1
  V  V24  1  0.24737314  0.86087883  0.12146954  1
  V  V25  1  0.36348249  0.63113606  0.25918740  1
  V  V26  1  0.62275438  0.62283966  0.53479766  1
  V  V27  1  0.12061152  0.01550919  0.11536199  1
  V  V28  1  0.75073202  0.38248172  0.13528133  1
  V  V29  1  0.48917823  0.24148552  0.74116672  1
  V  V30  1  0.76761108  0.24354380  0.52507683  1
  V  V31  1  0.51035464  0.11743966  0.12244296  1
  V  V32  1  0.75437455  0.89271999  0.10771761  1
  V  V33  1  0.00360819  0.24898285  0.74780335  1
  V  V34  1  0.36209986  0.24169545  0.11250896  1
  V  V35  1  -0.00516410  0.75656733  0.75392821  1
  V  V36  1  0.36354797  0.61057860  0.73702729  1
  V  V37  1  0.49196100  0.01705376  0.47617945  1
  V  V38  1  0.13225527  0.50111582  0.62304926  1
  V  V39  1  0.87920531  0.12740170  0.74897413  1
  V  V40  1  0.63062627  0.36398306  0.76173313  1
  V  V41  1  0.59544400  0.48272702  0.63033886  1
  V  V42  1  0.87211077  0.60802577  0.74879688  1
  V  V43  1  0.25371020  0.35805504  0.61695199  1
  V  V44  1  0.00087581  0.12350996  0.62419192  1
  V  V45  1  0.50669185  0.37159878  0.88742537  1
  V  V46  1  0.13530778  -0.00873633  0.62549650  1
  V  V47  1  0.50181574  0.73735268  0.74275455  1
  V  V48  1  0.13686299  0.23235470  0.88300703  1
  V  V49  1  0.60198942  0.00308693  0.62887705  1
  V  V50  1  -0.00125048  0.62872641  0.12087507  1
  V  V51  1  0.89147208  0.12851843  0.26521885  1
  V  V52  1  0.86255850  0.75750580  0.09868293  1
  V  V53  1  0.62101537  0.75301313  0.35236209  1
  V  V54  1  0.76203527  0.00858352  0.27450482  1
  V  V55  1  0.13351872  0.87032122  0.75782697  1
  V  V56  1  0.37049400  0.50574428  0.87510698  1
  V  V57  1  0.87533136  0.39449954  -0.00460340  1
  V  V58  1  -0.02195973  0.75143550  0.26301705  1
  V  V59  1  0.25297824  0.23779880  0.48420110  1
  V  V60  1  0.00040730  0.62738120  0.62417861  1
  V  V61  1  0.66172850  0.25081674  0.36284677  1
  V  V62  1  0.75360165  0.61216110  0.87010185  1
  V  V63  1  0.36895498  0.87177951  -0.00582078  1
  V  V64  1  0.61926827  0.61446678  -0.00218217  1
  V  V65  1  -0.00614132  -0.02052906  0.49016688  1
  V  V66  1  0.79939307  0.81073186  0.55779305  1
  V  V67  1  0.76182247  0.39313711  0.63896192  1
  V  V68  1  0.37696989  0.88991389  0.47541315  1
  V  V69  1  0.13442954  0.37829130  0.75513869  1
  Zn  Zn70  1  0.62936406  0.12756798  0.49891322  1
  Zn  Zn71  1  0.75179628  0.25372191  -0.00029875  1
  Zn  Zn72  1  0.42832031  0.74202080  0.13446317  1
  Zn  Zn73  1  0.49896872  0.00309515  -0.01122648  1
  Zn  Zn74  1  0.41558289  0.41355133  0.46569979  1
  Zn  Zn75  1  0.00184896  0.37838331  0.87507419  1
  Zn  Zn76  1  0.17375321  0.19771469  0.19508938  1
  Zn  Zn77  1  0.18691596  0.18202974  0.69086402  1
  Zn  Zn78  1  0.18390355  0.67971128  0.19023888  1
  Zn  Zn79  1  0.19176082  0.68822002  0.68493950  1
  Zn  Zn80  1  0.70260399  0.19003328  0.18415875  1
  Zn  Zn81  1  0.68070915  0.18158255  0.68826197  1
  Zn  Zn82  1  0.64424307  0.72309219  0.15476224  1
  Zn  Zn83  1  0.68189037  0.68295401  0.67755619  1
  Zn  Zn84  1  0.30088436  0.29708364  0.30091856  1
  Zn  Zn85  1  0.31441546  0.30845322  0.81664444  1
  Zn  Zn86  1  0.31777344  0.81113163  0.30348396  1
  Zn  Zn87  1  0.31190041  0.80670482  0.81078159  1
  Zn  Zn88  1  0.84811052  0.32433519  0.30146897  1
  Zn  Zn89  1  0.82153291  0.31348401  0.81449695  1
  Zn  Zn90  1  0.79149870  0.81756978  0.32776850  1
  Zn  Zn91  1  0.78821241  0.78888300  0.75698393  1
  Zn  Zn92  1  0.24758542  0.42302608  0.41326273  1
  Zn  Zn93  1  0.18888218  0.44051239  0.94217985  1
  Zn  Zn94  1  0.18725909  0.93125267  0.43892735  1
  Zn  Zn95  1  0.17941046  0.92973138  0.93968945  1
  Zn  Zn96  1  0.58379244  0.42462298  0.43445678  1
  Zn  Zn97  1  0.69422146  0.44030860  0.94017149  1
  Zn  Zn98  1  0.68900971  0.93704495  0.44203712  1
  Zn  Zn99  1  0.68612835  0.94292839  0.92291605  1
  Zn  Zn100  1  0.31786615  0.04763810  0.06777434  1
  Zn  Zn101  1  0.31552760  0.06727247  0.56338072  1
  Zn  Zn102  1  0.33877354  0.57064822  0.07328094  1
  Zn  Zn103  1  0.31453360  0.55847640  0.55186003  1
  Zn  Zn104  1  0.82184788  0.06206727  0.05621384  1
  Zn  Zn105  1  0.82021608  0.05535440  0.55963373  1
  Zn  Zn106  1  0.77894696  0.58818369  0.08339024  1
  Zn  Zn107  1  0.83023760  0.61414832  0.53107572  1
  Zn  Zn108  1  0.42297893  0.43242933  0.29879404  1
  Zn  Zn109  1  0.42677427  0.41392582  0.70084248  1
  Zn  Zn110  1  0.43127836  0.93897695  0.18341173  1
  Zn  Zn111  1  0.43748513  0.94247041  0.69609019  1
  Zn  Zn112  1  0.96271187  0.41979123  0.17048849  1
  Zn  Zn113  1  0.94658399  0.43775964  0.68929067  1
  Zn  Zn114  1  0.93308400  0.93992047  0.18823411  1
  Zn  Zn115  1  0.93495609  0.93234444  0.67479227  1
  Zn  Zn116  1  0.06029389  0.05410540  0.31006589  1
  Zn  Zn117  1  0.06408061  0.05689832  0.81693035  1
  Zn  Zn118  1  0.02553235  0.54543842  0.29278222  1
  Zn  Zn119  1  0.06698144  0.56593024  0.81059887  1
  Zn  Zn120  1  0.57386674  0.07985769  0.31108673  1
  Zn  Zn121  1  0.56398179  0.06712677  0.80801473  1
  Zn  Zn122  1  0.51031070  0.58157289  0.36728579  1
  Zn  Zn123  1  0.55892107  0.55553928  0.81215360  1
  Zn  Zn124  1  0.46029170  0.22973683  0.46262421  1
  Zn  Zn125  1  0.44624135  0.19408918  0.93714359  1
  Zn  Zn126  1  0.45681583  0.71302528  0.44312242  1
  Zn  Zn127  1  0.43167916  0.68659875  0.94565370  1
  Zn  Zn128  1  0.95206602  0.20915909  0.43705116  1
  Zn  Zn129  1  0.94775976  0.18426667  0.93608437  1
  Zn  Zn130  1  0.93017888  0.79727180  0.44332134  1
  Zn  Zn131  1  0.93616900  0.69272545  0.92919439  1
  Zn  Zn132  1  0.06853535  0.31760367  0.05890350  1
  Zn  Zn133  1  0.06303351  0.31525502  0.55776750  1
  Zn  Zn134  1  0.05615495  0.81467639  0.06382587  1
  Zn  Zn135  1  0.07131494  0.80782325  0.56607292  1
  Zn  Zn136  1  0.56844588  0.30424630  0.06838695  1
  Zn  Zn137  1  0.57769654  0.30247464  0.56665552  1
  Zn  Zn138  1  0.57584519  0.83548829  0.05248155  1
  Zn  Zn139  1  0.58614801  0.82797158  0.53729782  1
  O  O140  1  0.12615580  0.11421182  0.12926306  1
  O  O141  1  0.11525223  0.10913006  0.62445400  1
  O  O142  1  0.09895180  0.63640587  0.12506073  1
  O  O143  1  0.11851055  0.60895274  0.63860433  1
  O  O144  1  0.61516776  0.12638274  0.11858389  1
  O  O145  1  0.63685465  0.10986699  0.61244386  1
  O  O146  1  0.66250845  0.62911424  0.09530560  1
  O  O147  1  0.61615770  0.58949915  0.64113129  1
  O  O148  1  0.35069098  0.37369197  0.36790372  1
  O  O149  1  0.38369610  0.37740479  0.88755420  1
  O  O150  1  0.38420330  0.87751737  0.37736053  1
  O  O151  1  0.38415988  0.86132046  0.88701975  1
  O  O152  1  0.85660884  0.39361664  0.39813761  1
  O  O153  1  0.88521360  0.36865157  0.89085273  1
  O  O154  1  0.83483121  0.85658426  0.42611988  1
  O  O155  1  0.86855068  0.88141797  0.86247790  1
  O  O156  1  0.24056604  -0.00234747  0.35315816  1
  O  O157  1  0.23822885  -0.00569627  0.86655233  1
  O  O158  1  0.17703280  0.57801523  0.38832672  1
  O  O159  1  0.27074193  0.49469638  0.88211022  1
  O  O160  1  0.75296893  0.00733390  0.37471159  1
  O  O161  1  0.76248654  0.00797466  0.86116846  1
  O  O162  1  0.66041008  0.52037837  0.37320012  1
  O  O163  1  0.74513760  0.51309435  0.86251066  1
  O  O164  1  0.26206714  0.49924403  0.11942610  1
  O  O165  1  0.23427938  0.48791396  0.61724824  1
  O  O166  1  0.23527290  0.99479754  0.12746518  1
  O  O167  1  0.23661456  1.00188763  0.63068702  1
  O  O168  1  0.75864720  0.48280134  0.11762322  1
  O  O169  1  0.74673310  0.48902904  0.63830979  1
  O  O170  1  0.76744534  0.99375920  0.12911464  1
  O  O171  1  0.75558832  1.00064907  0.63614466  1
  O  O172  1  -0.03905186  0.36041478  0.27042759  1
  O  O173  1  0.01205145  0.36421091  0.74998336  1
  O  O174  1  0.00763903  0.86443627  0.24284936  1
  O  O175  1  0.00718529  0.86071277  0.73791887  1
  O  O176  1  0.49284497  0.35567928  0.24081295  1
  O  O177  1  0.51380850  0.36100216  0.76081323  1
  O  O178  1  0.52066195  0.90263487  0.24044483  1
  O  O179  1  0.48610096  0.85631145  0.76183513  1
  O  O180  1  0.48865934  0.12329308  0.23498925  1
  O  O181  1  0.49111456  0.14426433  0.77350033  1
  O  O182  1  0.54323774  0.55507322  0.18663679  1
  O  O183  1  0.48723212  0.63307677  0.75365055  1
  O  O184  1  0.99071849  0.11535080  0.24528261  1
  O  O185  1  0.99797009  0.12721108  0.74455299  1
  O  O186  1  0.98956771  0.64015653  0.23681895  1
  O  O187  1  0.99164436  0.63037447  0.74551543  1
  O  O188  1  0.37988621  0.25871041  0.00806999  1
  O  O189  1  0.35184611  0.23203903  0.50039280  1
  O  O190  1  0.39803661  0.77416849  0.02155701  1
  O  O191  1  0.37970417  0.77202838  0.51179517  1
  O  O192  1  0.87994665  0.24966496  0.00558028  1
  O  O193  1  0.87112862  0.27217078  0.49986140  1
  O  O194  1  0.87309905  0.75954902  -0.00044904  1
  O  O195  1  0.85590427  0.72967967  0.51278976  1
  O  O196  1  0.12683591  0.23138644  0.50637219  1
  O  O197  1  0.11733134  0.25289038  0.98021725  1
  O  O198  1  0.14948481  0.75884257  0.50307523  1
  O  O199  1  0.11650337  0.75234471  0.98676896  1
  O  O200  1  0.66197578  0.25438640  0.49109762  1
  O  O201  1  0.63277667  0.23031472  1.00068966  1
  O  O202  1  0.62337699  0.71884679  0.56976223  1
  O  O203  1  0.63109739  0.74424887  0.97590836  1
  O  O204  1  0.49375937  0.23676087  0.13223272  1
  O  O205  1  0.51471677  0.24264481  0.64238006  1
  O  O206  1  0.53859138  0.75655677  0.12102417  1
  O  O207  1  0.48128068  0.75269960  0.63965581  1
  O  O208  1  0.99170696  0.26007105  0.12073077  1
  O  O209  1  1.01227695  0.23655848  0.63623802  1
  O  O210  1  0.98032523  0.74745557  0.12724553  1
  O  O211  1  1.01523410  0.73329944  0.63695373  1
  O  O212  1  0.02214612  0.28578604  0.38779482  1
  O  O213  1  0.01309789  0.24991387  0.86143776  1
  O  O214  1  -0.00592666  0.74660449  0.36199278  1
  O  O215  1  0.01408256  0.74381248  0.85687524  1
  O  O216  1  0.48791672  0.23924234  0.34904055  1
  O  O217  1  0.49652974  0.26612253  0.86677467  1
  O  O218  1  0.55361892  0.77799363  0.43337959  1
  O  O219  1  0.50713864  0.75240607  0.86465637  1
  O  O220  1  0.23174935  0.12634611  0.50492032  1
  O  O221  1  0.29240661  0.11741510  0.95861304  1
  O  O222  1  0.26740516  0.64817294  0.49910794  1
  O  O223  1  0.32936352  0.64979494  0.99389938  1
  O  O224  1  0.77148049  0.14345785  0.50672819  1
  O  O225  1  0.74994579  0.11862826  0.98366048  1
  O  O226  1  0.71901012  0.60988301  0.50220471  1
  O  O227  1  0.74940065  0.62695454  0.97143438  1
  O  O228  1  0.26653103  0.37815393  0.00515606  1
  O  O229  1  0.23426295  0.34749938  0.51036951  1
  O  O230  1  0.25904851  0.87435860  0.00819818  1
  O  O231  1  0.27080831  0.87469379  0.49551244  1
  O  O232  1  0.76558276  0.37285005  -0.00251017  1
  O  O233  1  0.76289669  0.37311970  0.52642895  1
  O  O234  1  0.74299536  0.88999648  0.00826653  1
  O  O235  1  0.71070313  0.85499123  0.51863372  1
  O  O236  1  0.05346666  0.44407429  0.24887402  1
  O  O237  1  0.11973377  0.48422504  0.74222549  1
  O  O238  1  0.13028308  0.99280291  0.23618129  1
  O  O239  1  0.12563158  0.98808486  0.74183580  1
  O  O240  1  0.69107116  0.50826000  0.30166136  1
  O  O241  1  0.61477348  0.47557187  0.74468341  1
  O  O242  1  0.64633281  1.00733880  0.25355887  1
  O  O243  1  0.63917667  1.01339859  0.73791455  1
  O  O244  1  0.35743008  0.01084836  0.23817307  1
  O  O245  1  0.35702868  -0.00766389  0.75773366  1
  O  O246  1  0.38825972  0.53051360  0.25755131  1
  O  O247  1  0.37601975  0.50135081  0.76126598  1
  O  O248  1  0.87295819  0.01180236  0.25738788  1
  O  O249  1  0.87034389  0.00311700  0.75342562  1
  O  O250  1  0.85857230  0.54389858  0.31347976  1
  O  O251  1  0.88322094  0.50979910  0.75654389  1
  O  O252  1  0.14607193  0.39199341  0.36603835  1
  O  O253  1  0.12654977  0.37572206  0.86251158  1
  O  O254  1  0.12860521  0.87822362  0.35351961  1
  O  O255  1  0.11915445  0.86716812  0.85984627  1
  O  O256  1  0.62910910  0.34574692  0.36806775  1
  O  O257  1  0.61924253  0.37683258  0.87132755  1
  O  O258  1  0.63157896  0.88150055  0.35463442  1
  O  O259  1  0.61365785  0.86231703  0.87060910  1
  O  O260  1  0.38406762  0.13212916  0.11576491  1
  O  O261  1  0.37718745  0.13037602  0.63085358  1
  O  O262  1  0.39704511  0.63061856  0.15129618  1
  O  O263  1  0.37606644  0.60959957  0.63569622  1
  O  O264  1  0.88451599  0.13386447  0.11942599  1
  O  O265  1  0.88996921  0.11523517  0.63786247  1
  O  O266  1  0.86857825  0.65112351  0.12050249  1
  O  O267  1  0.88974774  0.62081987  0.63834716  1
  O  O268  1  0.26205231  0.23992106  0.12210128  1
  O  O269  1  0.24465340  0.25521322  0.62453934  1
  O  O270  1  0.24108109  0.76231796  0.12632551  1
  O  O271  1  0.26799967  0.74743235  0.61892083  1
  O  O272  1  0.76996973  0.25731064  0.11792073  1
  O  O273  1  0.75558820  0.25205825  0.62589204  1
  O  O274  1  0.75828611  0.77101733  0.12143459  1
  O  O275  1  0.76199006  0.76043237  0.64272578  1
  O  O276  1  0.24390180  0.24071655  0.38477604  1
  O  O277  1  0.23691418  0.25189369  0.87193511  1
  O  O278  1  0.25810699  0.75817828  0.38477735  1
  O  O279  1  0.23613825  0.75649623  0.87745894  1
  O  O280  1  0.76151982  0.25502756  0.35849225  1
  O  O281  1  0.76070978  0.23347082  0.87570479  1
  O  O282  1  0.71686571  0.73731012  0.37899518  1
  O  O283  1  0.73072837  0.74302265  0.84868511  1
  O  O284  1  0.00183874  0.09873725  -0.01201170  1
  O  O285  1  0.00871674  0.12311295  0.50785600  1
  O  O286  1  -0.01044890  0.62048408  0.00571070  1
  O  O287  1  -0.00397270  0.61550640  0.52187236  1
  O  O288  1  0.50813667  0.12546287  0.00598190  1
  O  O289  1  0.49425869  0.11955493  0.49618242  1
  O  O290  1  0.52028739  0.63065563  -0.00115909  1
  O  O291  1  0.53446980  0.62163722  0.47909665  1
  O  O292  1  0.50006406  0.33854928  0.49062545  1
  O  O293  1  0.49905620  0.36515128  0.99215308  1
  O  O294  1  0.48146021  0.90363728  0.50907596  1
  O  O295  1  0.49904392  0.88194130  0.98125434  1
  O  O296  1  0.98142415  0.39056701  0.51672054  1
  O  O297  1  0.99418239  0.39758898  1.00474779  1
  O  O298  1  1.00160621  0.87368511  0.50145379  1
  O  O299  1  1.00972702  0.89300413  0.99420558  1
  O  O300  1  0.49184301  0.47276678  0.38530247  1
  O  O301  1  0.49027708  0.47860807  0.87002125  1
  O  O302  1  0.50392012  1.01161237  0.37852063  1
  O  O303  1  0.50430633  0.98095109  0.85935299  1
  O  O304  1  1.00174505  0.51237230  0.40048667  1
  O  O305  1  1.00370029  0.50458640  0.88782993  1
  O  O306  1  1.01142648  0.99153086  0.39225818  1
  O  O307  1  0.98692276  0.99256673  0.87365584  1
  O  O308  1  0.00908592  -0.00449426  0.11361894  1
  O  O309  1  0.00907329  0.00375955  0.61469376  1
  O  O310  1  -0.01644248  0.52250744  0.11510669  1
  O  O311  1  0.00950631  0.51009029  0.62692529  1
  O  O312  1  0.49457585  0.01633159  0.11896011  1
  O  O313  1  0.50202557  0.01850975  0.64164576  1
  O  O314  1  0.57144894  0.49047993  0.16984634  1
  O  O315  1  0.49636372  0.47374597  0.62824876  1
  O  O316  1  0.25938103  0.37330685  0.22601029  1
  O  O317  1  0.23779635  0.36867636  0.73867031  1
  O  O318  1  0.24229101  0.88396024  0.23748187  1
  O  O319  1  0.23700687  0.88092415  0.75141671  1
  O  O320  1  0.76956424  0.37660427  0.23404431  1
  O  O321  1  0.74119879  0.36614779  0.74994868  1
  O  O322  1  0.75329512  0.90037944  0.24960784  1
  O  O323  1  0.74618202  0.89380183  0.75344496  1
  O  O324  1  0.25527134  0.11678832  0.24242685  1
  O  O325  1  0.24602157  0.10811900  0.75122949  1
  O  O326  1  0.26086563  0.63287887  0.25668733  1
  O  O327  1  0.26466475  0.62315891  0.74858654  1
  O  O328  1  0.76688978  0.11380385  0.24610776  1
  O  O329  1  0.76019727  0.12061897  0.75682591  1
  O  O330  1  0.70378848  0.56949814  0.25892444  1
  O  O331  1  0.76573023  0.62732557  0.74770412  1
  O  O332  1  0.37341605  0.12434478  0.35420514  1
  O  O333  1  0.34871637  0.12017906  0.90860897  1
  O  O334  1  0.41055189  0.64897100  0.35781481  1
  O  O335  1  0.38562911  0.60826680  0.86382205  1
  O  O336  1  0.89071774  0.14363533  0.36436800  1
  O  O337  1  0.87000476  0.11634526  0.86262436  1
  O  O338  1  0.83550787  0.59694486  0.35812769  1
  O  O339  1  0.86382072  0.63166383  0.85958071  1
  O  O340  1  0.14838921  0.38001441  0.10947489  1
  O  O341  1  0.12859168  0.37983800  0.63488241  1
  O  O342  1  0.13373853  0.88089671  0.13065468  1
  O  O343  1  0.12369683  0.88665726  0.63419518  1
  O  O344  1  0.65047978  0.36190650  0.11997880  1
  O  O345  1  0.63680898  0.37484147  0.64028429  1
  O  O346  1  0.64659637  0.88806344  0.13413278  1
  O  O347  1  0.60797283  0.90191500  0.62647488  1
  O  O348  1  0.11644963  0.27435224  0.25329303  1
  O  O349  1  0.12127063  0.25795224  0.75741426  1
  O  O350  1  0.11592042  0.76065821  0.24529905  1
  O  O351  1  0.12370479  0.76012405  0.74969207  1
  O  O352  1  0.61756884  0.23595398  0.25564818  1
  O  O353  1  0.62103664  0.25864407  0.75361567  1
  O  O354  1  0.63665314  0.78612978  0.24849248  1
  O  O355  1  0.60660354  0.73961796  0.75036344  1
  O  O356  1  0.37855659  0.23371879  0.23283771  1
  O  O357  1  0.39036054  0.27172056  0.74234603  1
  O  O358  1  0.38273020  0.74517549  0.24081579  1
  O  O359  1  0.37492447  0.73660895  0.73987050  1
  O  O360  1  0.87689536  0.23302343  0.23167522  1
  O  O361  1  0.89009003  0.23851471  0.75505451  1
  O  O362  1  0.87787898  0.76497971  0.25780791  1
  O  O363  1  0.89343750  0.74516466  0.75013070  1
  O  O364  1  0.32697255  0.48344174  0.47228197  1
  O  O365  1  0.38775911  0.48499276  0.99459158  1
  O  O366  1  0.37684375  1.00088331  0.48940867  1
  O  O367  1  0.38284604  0.97858685  1.00288348  1
  O  O368  1  0.88284423  0.50209877  0.51218095  1
  O  O369  1  0.87610892  0.49339183  0.99567148  1
  O  O370  1  0.89586834  0.99972029  0.49860047  1
  O  O371  1  0.88292165  0.99374961  0.98278677  1
  O  O372  1  0.12166653  0.00048838  0.01107622  1
  O  O373  1  0.12071495  0.00249443  0.51072836  1
  O  O374  1  0.11321414  0.50566279  0.00069032  1
  O  O375  1  0.10789572  0.49286075  0.51997219  1
  O  O376  1  0.61965208  0.01565803  -0.01326641  1
  O  O377  1  0.60368896  0.00317546  0.50731479  1
  O  O378  1  0.62521754  0.51376847  -0.00885565  1
  O  O379  1  0.61652204  0.48831093  0.52825805  1
  O  O380  1  0.36862006  0.36067537  0.11266388  1
  O  O381  1  0.35177684  0.37912491  0.62042497  1
  O  O382  1  0.35647094  0.87773127  0.12180555  1
  O  O383  1  0.36813698  0.87162473  0.63392099  1
  O  O384  1  0.87488538  0.36817424  0.10787374  1
  O  O385  1  0.86508619  0.37990446  0.63631007  1
  O  O386  1  0.86717880  0.86852265  0.12323725  1
  O  O387  1  0.86362634  0.87411832  0.60434289  1
  O  O388  1  0.11794568  0.11953750  0.38881947  1
  O  O389  1  0.12769231  0.13228840  0.87160665  1
  O  O390  1  0.12398306  0.61636179  0.35448465  1
  O  O391  1  0.13201240  0.63548208  0.87092326  1
  O  O392  1  0.62776930  0.14807824  0.38583107  1
  O  O393  1  0.64493069  0.12158306  0.87491140  1
  O  O394  1  0.58048677  0.66345467  0.32364153  1
  O  O395  1  0.63101081  0.62941272  0.87376295  1
