# generated using pymatgen
data_V35Zn35O128
_symmetry_space_group_name_H-M   'P 1'
_cell_length_a   16.90841240
_cell_length_b   16.98484208
_cell_length_c   16.97389086
_cell_angle_alpha   89.89330440
_cell_angle_beta   90.27809210
_cell_angle_gamma   90.34739275
_symmetry_Int_Tables_number   1
_chemical_formula_structural   V35Zn35O128
_chemical_formula_sum   'V70 Zn70 O256'
_cell_volume   4874.52074336
_cell_formula_units_Z   2
loop_
 _symmetry_equiv_pos_site_id
 _symmetry_equiv_pos_as_xyz
  1  'x, y, z'
loop_
 _atom_site_type_symbol
 _atom_site_label
 _atom_site_symmetry_multiplicity
 _atom_site_fract_x
 _atom_site_fract_y
 _atom_site_fract_z
 _atom_site_occupancy
  V  V0  1  0.73481921  -0.00549497  0.26106518  1
  V  V1  1  0.50572216  0.00615828  -0.00729750  1
  V  V2  1  0.49657383  0.23288018  0.74757273  1
  V  V3  1  0.61982631  0.37140821  0.26196761  1
  V  V4  1  0.04134542  0.63846881  0.16295883  1
  V  V5  1  0.25762294  0.62475809  0.37770095  1
  V  V6  1  0.38932772  0.63511798  0.24072073  1
  V  V7  1  0.24489149  0.37934730  0.62913523  1
  V  V8  1  0.24909259  0.12547574  0.37078311  1
  V  V9  1  0.36917684  0.11125166  0.24193306  1
  V  V10  1  0.01146646  0.11789415  0.62959423  1
  V  V11  1  0.50118505  0.51040878  0.51230958  1
  V  V12  1  0.24392381  0.12864752  0.87211906  1
  V  V13  1  0.24461735  0.63235830  0.88846045  1
  V  V14  1  0.75275370  0.59420042  0.86309210  1
  V  V15  1  0.25623890  0.87693771  0.13183824  1
  V  V16  1  0.01552233  0.00290777  0.48859384  1
  V  V17  1  0.12477833  0.35748593  0.25376187  1
  V  V18  1  0.64669817  0.74342516  0.88196746  1
  V  V19  1  0.86888829  0.14769242  0.25766486  1
  V  V20  1  0.50218802  0.85716615  0.87518749  1
  V  V21  1  0.60960420  0.38825538  0.75164159  1
  V  V22  1  0.73718354  0.40064930  0.63480761  1
  V  V23  1  0.37561709  0.37241189  0.50220627  1
  V  V24  1  0.00238774  0.87388386  0.36964355  1
  V  V25  1  0.37345066  0.24163306  0.62941932  1
  V  V26  1  0.74211822  0.14657487  0.39218410  1
  V  V27  1  0.25552399  0.76438111  0.49986896  1
  V  V28  1  0.38756609  0.49576992  0.37400214  1
  V  V29  1  0.62967220  0.23715045  0.87347950  1
  V  V30  1  0.01435639  0.36957843  0.38605651  1
  V  V31  1  0.12714402  0.12639336  0.00959645  1
  V  V32  1  0.87423385  0.00265850  0.37348865  1
  V  V33  1  0.60157610  0.00009301  0.62000061  1
  V  V34  1  0.38363120  -0.00924943  0.39482365  1
  V  V35  1  0.84938230  0.36895644  0.49343669  1
  V  V36  1  0.49233921  0.25620939  0.25702881  1
  V  V37  1  0.24052735  0.87773632  0.63650738  1
  V  V38  1  -0.00685880  0.00116898  0.00091685  1
  V  V39  1  0.58986815  0.13243135  0.49653640  1
  V  V40  1  0.12809619  0.75133535  0.36543312  1
  V  V41  1  0.49085268  0.48158164  0.00397003  1
  V  V42  1  0.36943912  0.25832266  0.10794175  1
  V  V43  1  0.12110334  0.25681182  0.87059458  1
  V  V44  1  0.24350916  0.49909629  0.25213736  1
  V  V45  1  0.63677707  0.62281544  0.47854239  1
  V  V46  1  0.63667265  0.86800602  0.75336166  1
  V  V47  1  0.22952148  -0.00486522  0.75624102  1
  V  V48  1  0.24642116  0.37843432  0.11376086  1
  V  V49  1  0.23915296  0.49969893  0.74999263  1
  V  V50  1  0.74283867  0.75328022  0.45208900  1
  V  V51  1  0.37494435  0.86008975  -0.00103494  1
  V  V52  1  0.50228893  0.12725909  0.11789507  1
  V  V53  1  0.13383543  0.14005024  0.49507979  1
  V  V54  1  0.86712038  0.75260789  0.63601629  1
  V  V55  1  0.62268095  -0.00703051  0.12873259  1
  V  V56  1  0.86195699  0.24002202  0.62995625  1
  V  V57  1  0.75311746  0.49773977  0.26449182  1
  V  V58  1  0.00546233  0.53334062  0.01864001  1
  V  V59  1  0.12886841  0.89984751  0.24608942  1
  V  V60  1  0.85833481  0.85873390  0.01564437  1
  V  V61  1  0.12701945  0.61644861  0.50464130  1
  V  V62  1  0.38489895  0.74904952  0.63125790  1
  V  V63  1  0.37781809  0.00523683  0.86617568  1
  V  V64  1  0.62210007  0.62366376  0.01193248  1
  V  V65  1  0.01736254  0.27577489  0.73728408  1
  V  V66  1  0.37703736  0.48452872  0.87604707  1
  V  V67  1  -0.01493902  0.13252127  0.13731301  1
  V  V68  1  0.62221599  0.47555715  0.11779289  1
  V  V69  1  -0.05314701  0.39949274  0.91538396  1
  Zn  Zn70  1  0.38711930  0.62715020  0.75565504  1
  Zn  Zn71  1  0.86384515  0.86798064  0.48274858  1
  Zn  Zn72  1  0.00144873  0.49401908  0.51012886  1
  Zn  Zn73  1  0.00827719  0.63762920  0.65216508  1
  Zn  Zn74  1  0.76172555  0.89034947  0.63734746  1
  Zn  Zn75  1  0.56134197  0.57934537  0.67132750  1
  Zn  Zn76  1  0.19426440  0.19287011  0.18687339  1
  Zn  Zn77  1  0.19272110  0.18490593  0.68512209  1
  Zn  Zn78  1  0.21848907  0.69760104  0.18627163  1
  Zn  Zn79  1  0.21167626  0.67058090  0.67611693  1
  Zn  Zn80  1  0.67955312  0.18194595  0.19877571  1
  Zn  Zn81  1  0.65567552  0.20728825  0.64847497  1
  Zn  Zn82  1  0.75534640  0.63295605  0.14296991  1
  Zn  Zn83  1  0.73714346  0.64178962  0.65555257  1
  Zn  Zn84  1  0.31340485  0.30975802  0.30897668  1
  Zn  Zn85  1  0.31197856  0.31270265  0.80823635  1
  Zn  Zn86  1  0.31955255  0.81636370  0.31015318  1
  Zn  Zn87  1  0.31531099  0.81089872  0.81302027  1
  Zn  Zn88  1  0.81016523  0.32714319  0.17648231  1
  Zn  Zn89  1  0.84011406  0.24784905  0.82927191  1
  Zn  Zn90  1  0.71059478  0.78398975  0.25053652  1
  Zn  Zn91  1  0.86953856  0.86084604  0.80681589  1
  Zn  Zn92  1  0.19433699  0.43426500  0.43744971  1
  Zn  Zn93  1  0.17779470  0.44935966  0.93143314  1
  Zn  Zn94  1  0.19713503  0.94269864  0.42851876  1
  Zn  Zn95  1  0.19744332  0.95118689  0.96661893  1
  Zn  Zn96  1  0.67406721  0.43320965  0.43797627  1
  Zn  Zn97  1  0.74313996  0.38345740  0.89306538  1
  Zn  Zn98  1  0.67457668  0.94968217  0.45544224  1
  Zn  Zn99  1  0.68339635  0.93776639  0.94685185  1
  Zn  Zn100  1  0.31542322  0.05704197  0.05528740  1
  Zn  Zn101  1  0.30860472  0.05497755  0.56431859  1
  Zn  Zn102  1  0.31144227  0.56099571  0.06365873  1
  Zn  Zn103  1  0.31563203  0.56303387  0.56370341  1
  Zn  Zn104  1  0.82742422  0.01707460  0.09648395  1
  Zn  Zn105  1  0.81457456  0.06362732  0.56653534  1
  Zn  Zn106  1  0.81836080  0.47403751  0.06234769  1
  Zn  Zn107  1  0.87043761  0.53149452  0.61409366  1
  Zn  Zn108  1  0.43506741  0.44059413  0.18602670  1
  Zn  Zn109  1  0.43109523  0.43389555  0.69137008  1
  Zn  Zn110  1  0.44305296  0.93267834  0.17863789  1
  Zn  Zn111  1  0.43349923  0.92213033  0.68900203  1
  Zn  Zn112  1  0.94407749  0.45146913  0.20362865  1
  Zn  Zn113  1  1.01999272  0.48910762  0.73579876  1
  Zn  Zn114  1  0.94364994  0.94339166  0.18861915  1
  Zn  Zn115  1  0.91999844  0.94833793  0.65688182  1
  Zn  Zn116  1  0.06224833  0.07382356  0.31068928  1
  Zn  Zn117  1  0.01912622  0.00187793  0.79274871  1
  Zn  Zn118  1  0.06304132  0.55298684  0.33224411  1
  Zn  Zn119  1  0.03111348  0.62031412  0.86151048  1
  Zn  Zn120  1  0.55664332  0.07087085  0.32000096  1
  Zn  Zn121  1  0.56631311  0.05962976  0.79963739  1
  Zn  Zn122  1  0.59902856  0.59820523  0.26920735  1
  Zn  Zn123  1  0.55283150  0.56500704  0.83330320  1
  Zn  Zn124  1  0.40755056  0.19523366  0.42661119  1
  Zn  Zn125  1  0.43647697  0.18880612  0.92902757  1
  Zn  Zn126  1  0.44015767  0.69112151  0.44265020  1
  Zn  Zn127  1  0.43380480  0.67224880  0.94206051  1
  Zn  Zn128  1  0.93785629  0.19633429  0.44157615  1
  Zn  Zn129  1  0.90426322  0.14214627  0.96069961  1
  Zn  Zn130  1  0.95201718  0.70202236  0.47171227  1
  Zn  Zn131  1  0.86786667  0.65199252  0.99723912  1
  Zn  Zn132  1  0.06521337  0.30500522  0.06388565  1
  Zn  Zn133  1  0.07237283  0.30629412  0.56244413  1
  Zn  Zn134  1  0.05215833  0.81788468  0.07390677  1
  Zn  Zn135  1  0.06161964  0.81034217  0.55948922  1
  Zn  Zn136  1  0.56080410  0.30271885  0.05282337  1
  Zn  Zn137  1  0.55406678  0.31693847  0.56128243  1
  Zn  Zn138  1  0.68348635  0.80109555  0.07216465  1
  Zn  Zn139  1  0.59764512  0.74786347  0.60195568  1
  O  O140  1  0.13062633  0.13607764  0.11164452  1
  O  O141  1  0.12413864  0.12609273  0.60526466  1
  O  O142  1  0.13887763  0.62886686  0.14170302  1
  O  O143  1  0.12588402  0.63632239  0.60754456  1
  O  O144  1  0.60532109  0.12123050  0.13197357  1
  O  O145  1  0.60890572  0.10491281  0.61469265  1
  O  O146  1  0.62322276  0.61143352  0.11292853  1
  O  O147  1  0.63306675  0.63613560  0.60603419  1
  O  O148  1  0.36403628  0.38700440  0.38970703  1
  O  O149  1  0.35816285  0.38631205  0.88213514  1
  O  O150  1  0.36356682  0.89282751  0.37667684  1
  O  O151  1  0.39017355  0.87849377  0.87837378  1
  O  O152  1  0.88038162  0.36658868  0.39968415  1
  O  O153  1  0.86462375  0.35439483  0.87184242  1
  O  O154  1  0.89359252  0.88829814  0.36946524  1
  O  O155  1  0.87238039  0.87775740  0.91682094  1
  O  O156  1  0.26724848  0.01627282  0.37526822  1
  O  O157  1  0.25370979  0.00193946  0.86683830  1
  O  O158  1  0.26064886  0.50940295  0.37193475  1
  O  O159  1  0.25524476  0.50364026  0.86538746  1
  O  O160  1  0.75105068  0.00849369  0.37132314  1
  O  O161  1  0.77435870  0.00642715  0.87854204  1
  O  O162  1  0.73744261  0.48954691  0.36259852  1
  O  O163  1  0.74674960  0.49501284  0.86176940  1
  O  O164  1  0.26239007  0.48347071  0.14027361  1
  O  O165  1  0.26247866  0.49256597  0.63958283  1
  O  O166  1  0.24072432  0.97047598  0.08368615  1
  O  O167  1  0.25182561  0.98740445  0.64196090  1
  O  O168  1  0.72256772  0.49158731  0.14069986  1
  O  O169  1  0.75949052  0.49945000  0.63327122  1
  O  O170  1  0.73222727  1.02189326  0.15136529  1
  O  O171  1  0.68213751  0.94981084  0.57677818  1
  O  O172  1  0.02213816  0.38448017  0.25732488  1
  O  O173  1  0.01964736  0.37069008  0.71669792  1
  O  O174  1  0.01766539  0.88518266  0.25697992  1
  O  O175  1  -0.04548803  0.91864253  0.75721323  1
  O  O176  1  0.49803966  0.36071073  0.24268878  1
  O  O177  1  0.50761309  0.36269866  0.73631619  1
  O  O178  1  0.50490401  0.86402373  0.24823279  1
  O  O179  1  0.51010518  0.88094331  0.77378353  1
  O  O180  1  0.48486611  0.13464228  0.23835229  1
  O  O181  1  0.49655519  0.13377520  0.74041547  1
  O  O182  1  0.48791541  0.62007579  0.25122112  1
  O  O183  1  0.50028857  0.62332883  0.75268030  1
  O  O184  1  0.98260390  0.12859458  0.24970044  1
  O  O185  1  1.01323748  0.10327846  0.72688089  1
  O  O186  1  1.02350510  0.63163403  0.26160291  1
  O  O187  1  1.04860598  0.76311537  0.77655882  1
  O  O188  1  0.37648121  0.24825516  0.00965201  1
  O  O189  1  0.37707114  0.26776988  0.51130480  1
  O  O190  1  0.39484142  0.76317183  0.00032867  1
  O  O191  1  0.35824285  0.74792645  0.50480433  1
  O  O192  1  0.83899603  0.23274492  0.02782879  1
  O  O193  1  0.88686245  0.26500956  0.52190796  1
  O  O194  1  0.87222519  0.76182739  0.02787764  1
  O  O195  1  0.84804405  0.74328560  0.47348871  1
  O  O196  1  0.13406929  0.23818527  0.49217298  1
  O  O197  1  0.11906590  0.23500511  0.98090164  1
  O  O198  1  0.13928969  0.74319794  0.48805872  1
  O  O199  1  0.12500410  0.80157553  0.91811873  1
  O  O200  1  0.62319170  0.22905375  0.53451204  1
  O  O201  1  0.61276334  0.24618688  0.97243066  1
  O  O202  1  0.64008961  0.73666517  0.49178902  1
  O  O203  1  0.62223221  0.73415131  0.99565697  1
  O  O204  1  0.48506586  0.24255706  0.12439547  1
  O  O205  1  0.48131139  0.25112483  0.63082513  1
  O  O206  1  0.52760055  0.79541106  0.21207975  1
  O  O207  1  0.48168793  0.75640192  0.60850192  1
  O  O208  1  1.00456347  0.23116863  0.12837521  1
  O  O209  1  1.01856112  0.23458537  0.63352319  1
  O  O210  1  1.00900771  0.72715267  0.12673938  1
  O  O211  1  0.97890678  0.73399026  0.59150269  1
  O  O212  1  -0.00474048  0.27037954  0.37508392  1
  O  O213  1  0.01495290  0.26234611  0.84628033  1
  O  O214  1  0.01555951  0.76608880  0.38615281  1
  O  O215  1  0.11044370  0.76263937  0.98451836  1
  O  O216  1  0.48276057  0.24884919  0.35475403  1
  O  O217  1  0.50371574  0.24408244  0.85410450  1
  O  O218  1  0.49780531  0.77736812  0.38705171  1
  O  O219  1  0.50264881  0.75826375  0.88187348  1
  O  O220  1  0.23983828  0.11721673  0.48853908  1
  O  O221  1  0.23745476  0.11567685  0.98672786  1
  O  O222  1  0.24603405  0.63248881  0.49345265  1
  O  O223  1  0.25123951  0.61746037  0.98879598  1
  O  O224  1  0.75273355  0.11921523  0.49094155  1
  O  O225  1  0.77150861  0.20467759  1.05272379  1
  O  O226  1  0.73687613  0.62702686  0.47557194  1
  O  O227  1  0.71979363  0.60431010  0.98453979  1
  O  O228  1  0.23712330  0.39078561  0.01728905  1
  O  O229  1  0.26617060  0.38882893  0.51518865  1
  O  O230  1  0.27577852  0.86442146  -0.02096134  1
  O  O231  1  0.24524103  0.86722162  0.50669010  1
  O  O232  1  0.75326598  0.40201740  0.00361910  1
  O  O233  1  0.74417045  0.37913746  0.50895422  1
  O  O234  1  0.75064660  0.87471239  0.01199207  1
  O  O235  1  0.74490001  0.85738551  0.46550988  1
  O  O236  1  0.14210048  0.49477752  0.26030148  1
  O  O237  1  0.14156946  0.49755785  0.74723522  1
  O  O238  1  0.13092649  0.99794215  0.25343743  1
  O  O239  1  0.13223898  0.98808951  0.76110571  1
  O  O240  1  0.60396607  0.47821627  0.23489811  1
  O  O241  1  0.60374424  0.49031004  0.74921834  1
  O  O242  1  0.62904972  1.01152883  0.25109031  1
  O  O243  1  0.61985522  0.98567850  0.72853586  1
  O  O244  1  0.37455827  0.01285951  0.23019994  1
  O  O245  1  0.37036518  -0.01061622  0.76422521  1
  O  O246  1  0.37096896  0.50069238  0.26466977  1
  O  O247  1  0.37271029  0.49656632  0.76698003  1
  O  O248  1  0.85884785  0.01185273  0.26209497  1
  O  O249  1  0.81617668  -0.00658476  0.65054760  1
  O  O250  1  0.85259626  0.50366118  0.25368246  1
  O  O251  1  0.99919366  0.60161525  0.75920471  1
  O  O252  1  0.12541873  0.37277324  0.36682874  1
  O  O253  1  0.14628530  0.35209388  0.87710597  1
  O  O254  1  0.12736513  0.87383175  0.36073021  1
  O  O255  1  0.11185385  0.87979677  0.91756063  1
  O  O256  1  0.61237681  0.37343980  0.36032594  1
  O  O257  1  0.62104254  0.36381973  0.85022164  1
  O  O258  1  0.58573322  0.87506269  0.39348266  1
  O  O259  1  0.61837502  0.86836600  0.87966758  1
  O  O260  1  0.37208374  0.13399297  0.12797957  1
  O  O261  1  0.35598365  0.14476019  0.61826161  1
  O  O262  1  0.36757023  0.62055131  0.14335285  1
  O  O263  1  0.36295698  0.64463271  0.62707832  1
  O  O264  1  0.87696885  0.12467080  0.14723795  1
  O  O265  1  0.90555217  0.13952863  0.60677963  1
  O  O266  1  0.84092474  0.58670239  0.08521583  1
  O  O267  1  0.85251872  0.64566160  0.62480740  1
  O  O268  1  0.26079500  0.26292294  0.12300454  1
  O  O269  1  0.26192303  0.26758987  0.63785740  1
  O  O270  1  0.24498349  0.77844421  0.11192227  1
  O  O271  1  0.25156754  0.75891361  0.61365028  1
  O  O272  1  0.74087248  0.24747982  0.12065040  1
  O  O273  1  0.77076065  0.20383394  0.64632191  1
  O  O274  1  0.73598266  0.74371551  0.15173627  1
  O  O275  1  0.76281893  0.76855404  0.62108819  1
  O  O276  1  0.28319444  0.22380776  0.38062164  1
  O  O277  1  0.24540852  0.23216493  0.85897087  1
  O  O278  1  0.25065807  0.74667501  0.38613092  1
  O  O279  1  0.26128203  0.73077604  0.86968421  1
  O  O280  1  0.75305717  0.24127781  0.38992805  1
  O  O281  1  0.73074071  0.26373988  0.86440196  1
  O  O282  1  0.73166717  0.74448218  0.35438779  1
  O  O283  1  0.74269142  0.74999104  0.88828843  1
  O  O284  1  0.00699541  0.12474513  0.01769883  1
  O  O285  1  0.01944327  0.12257246  0.48934002  1
  O  O286  1  -0.00276547  0.62389914  -0.02841407  1
  O  O287  1  0.02339177  0.61558653  0.48066450  1
  O  O288  1  0.48697764  0.11672679  0.00838120  1
  O  O289  1  0.49261779  0.14499857  0.48736256  1
  O  O290  1  0.51728817  0.60489095  -0.01644785  1
  O  O291  1  0.50170887  0.61402868  0.50159578  1
  O  O292  1  0.48413123  0.39107049  0.50580254  1
  O  O293  1  0.49440244  0.38270830  1.00063108  1
  O  O294  1  0.53131173  0.83612960  0.43126614  1
  O  O295  1  0.49416636  0.89169978  0.98307245  1
  O  O296  1  1.02259532  0.37635218  0.49110005  1
  O  O297  1  0.99776796  0.34498392  0.98269822  1
  O  O298  1  1.01213469  0.88965219  0.48326975  1
  O  O299  1  0.98478748  0.89882368  1.02476800  1
  O  O300  1  0.48572896  0.49753316  0.38658230  1
  O  O301  1  0.48434925  0.48866459  0.88601251  1
  O  O302  1  0.48047783  1.00107503  0.36378150  1
  O  O303  1  0.49516915  1.01072431  0.87962401  1
  O  O304  1  0.99813455  0.47807984  0.38359198  1
  O  O305  1  1.00228938  0.45177775  0.85006639  1
  O  O306  1  0.99560536  0.99959191  0.37333198  1
  O  O307  1  0.99693252  1.00731550  0.90204012  1
  O  O308  1  0.00213997  0.02465526  0.12626208  1
  O  O309  1  0.00112056  0.01350300  0.59920211  1
  O  O310  1  -0.00163644  0.54231143  0.12471473  1
  O  O311  1  -0.01509244  0.52340237  0.62478732  1
  O  O312  1  0.50412780  0.00781864  0.11455979  1
  O  O313  1  0.50638523  -0.03257724  0.61436849  1
  O  O314  1  0.50170355  0.49587598  0.11227039  1
  O  O315  1  0.48945636  0.50338640  0.61433131  1
  O  O316  1  0.24107256  0.37900754  0.25114301  1
  O  O317  1  0.25633129  0.38767481  0.73952600  1
  O  O318  1  0.24778013  0.88347898  0.23801715  1
  O  O319  1  0.24646996  0.88047010  0.74559066  1
  O  O320  1  0.72621721  0.37961728  0.24683225  1
  O  O321  1  0.72635762  0.37705886  0.73426727  1
  O  O322  1  0.73867608  0.89673976  0.25956930  1
  O  O323  1  0.73858260  0.87986886  0.75989945  1
  O  O324  1  0.26113594  0.12819103  0.25529805  1
  O  O325  1  0.24107419  0.10507238  0.75881687  1
  O  O326  1  0.26362346  0.61714438  0.26246596  1
  O  O327  1  0.26042892  0.60896186  0.75493686  1
  O  O328  1  0.75449557  0.12822305  0.27070799  1
  O  O329  1  0.77018800  0.07293671  0.84758222  1
  O  O330  1  0.71633466  0.59705069  0.24992980  1
  O  O331  1  0.74512904  0.62196360  0.76598507  1
  O  O332  1  0.37281829  0.10836949  0.35425378  1
  O  O333  1  0.35665017  0.11605895  0.88100438  1
  O  O334  1  0.37279184  0.61540618  0.37432926  1
  O  O335  1  0.36539619  0.60830129  0.87500567  1
  O  O336  1  0.86849831  0.12647431  0.37043814  1
  O  O337  1  0.87072149  0.14454138  0.85675656  1
  O  O338  1  0.87614140  0.64128713  0.34117283  1
  O  O339  1  0.84804473  0.62155591  0.89024675  1
  O  O340  1  0.13819080  0.36514739  0.13862526  1
  O  O341  1  0.14675641  0.37508178  0.61611397  1
  O  O342  1  0.12967882  0.87627572  0.14376713  1
  O  O343  1  0.14030938  0.86630604  0.62334325  1
  O  O344  1  0.61608985  0.37368862  0.12518786  1
  O  O345  1  0.63215298  0.37817978  0.62533005  1
  O  O346  1  0.62554551  0.89407287  0.12463139  1
  O  O347  1  0.61711773  0.84483063  0.65770628  1
  O  O348  1  0.12945118  0.25864594  0.25524829  1
  O  O349  1  0.12209860  0.24389862  0.75508782  1
  O  O350  1  0.14575658  0.75675258  0.26534602  1
  O  O351  1  0.11980473  0.76926843  0.76013636  1
  O  O352  1  0.60448207  0.25913190  0.24356358  1
  O  O353  1  0.60740643  0.25332647  0.74168112  1
  O  O354  1  0.58553050  0.75905916  0.24916000  1
  O  O355  1  0.62784205  0.76236141  0.77926554  1
  O  O356  1  0.38023380  0.24397686  0.23489576  1
  O  O357  1  0.38431621  0.25417633  0.73980361  1
  O  O358  1  0.37291271  0.73446847  0.25642382  1
  O  O359  1  0.37618968  0.75001796  0.73568387  1
  O  O360  1  0.86284722  0.24468511  0.25050417  1
  O  O361  1  0.90456334  0.25246546  0.72844336  1
  O  O362  1  0.87274043  0.68264296  0.28195847  1
  O  O363  1  0.87974217  0.76993741  0.73302115  1
  O  O364  1  0.38244089  0.49870739  0.49247006  1
  O  O365  1  0.38418687  0.50209654  0.99367663  1
  O  O366  1  0.38036241  1.00457643  0.49424396  1
  O  O367  1  0.38452704  0.99138187  0.98519907  1
  O  O368  1  0.88391526  0.46257323  0.51921228  1
  O  O369  1  0.91981551  0.48123090  0.98283920  1
  O  O370  1  0.88714651  1.00351890  0.48050188  1
  O  O371  1  0.88697056  1.03286593  1.00444886  1
  O  O372  1  0.10908973  0.02034557  0.00137602  1
  O  O373  1  0.11951385  0.01045612  0.48365918  1
  O  O374  1  0.09197940  0.49186067  -0.00584694  1
  O  O375  1  0.13667611  0.51536798  0.49826003  1
  O  O376  1  0.61468140  0.00504510  0.00903717  1
  O  O377  1  0.59617636  0.02685245  0.49297384  1
  O  O378  1  0.60882673  0.49545446  0.01251358  1
  O  O379  1  0.60826275  0.50850009  0.49803605  1
  O  O380  1  0.36384212  0.36465003  0.12575152  1
  O  O381  1  0.36819912  0.36966928  0.61595518  1
  O  O382  1  0.36660779  0.87962134  0.11007493  1
  O  O383  1  0.35489880  0.86023492  0.62898878  1
  O  O384  1  0.88006577  0.39809922  0.12830672  1
  O  O385  1  0.83269781  0.34806079  0.62360846  1
  O  O386  1  0.86409294  0.90658418  0.11607053  1
  O  O387  1  0.88431830  0.85542439  0.59399617  1
  O  O388  1  0.14261878  0.12843222  0.37415123  1
  O  O389  1  0.13724018  0.13247664  0.88150130  1
  O  O390  1  0.14320450  0.63208832  0.38190150  1
  O  O391  1  0.14478320  0.62101718  0.87111961  1
  O  O392  1  0.62880067  0.13685224  0.38946915  1
  O  O393  1  0.62927479  0.13740240  0.85625657  1
  O  O394  1  0.60802389  0.62248942  0.38331195  1
  O  O395  1  0.63480052  0.63516850  0.87579605  1
