# generated using pymatgen
data_V35Zn35O128
_symmetry_space_group_name_H-M   'P 1'
_cell_length_a   16.91998327
_cell_length_b   16.83137756
_cell_length_c   16.89246048
_cell_angle_alpha   89.97687514
_cell_angle_beta   90.01842791
_cell_angle_gamma   90.17854377
_symmetry_Int_Tables_number   1
_chemical_formula_structural   V35Zn35O128
_chemical_formula_sum   'V70 Zn70 O256'
_cell_volume   4810.72284153
_cell_formula_units_Z   2
loop_
 _symmetry_equiv_pos_site_id
 _symmetry_equiv_pos_as_xyz
  1  'x, y, z'
loop_
 _atom_site_type_symbol
 _atom_site_label
 _atom_site_symmetry_multiplicity
 _atom_site_fract_x
 _atom_site_fract_y
 _atom_site_fract_z
 _atom_site_occupancy
  V  V0  1  0.51512987  0.37126534  0.36999609  1
  V  V1  1  0.74177727  0.13445877  0.38409265  1
  V  V2  1  0.50033002  0.38230590  0.86505803  1
  V  V3  1  0.00056997  0.12597871  0.62136447  1
  V  V4  1  0.87058663  0.25263320  0.61885837  1
  V  V5  1  -0.00755086  0.87578771  0.87791931  1
  V  V6  1  0.36311554  0.23403975  0.63779324  1
  V  V7  1  -0.01120518  0.50015132  -0.01019592  1
  V  V8  1  0.12155580  0.12885312  0.00437531  1
  V  V9  1  0.37470744  0.65117452  0.75375903  1
  V  V10  1  0.12884646  -0.00339234  0.13205747  1
  V  V11  1  0.37521727  0.87427886  0.00136854  1
  V  V12  1  0.26144621  0.49646944  0.25613637  1
  V  V13  1  0.12243573  0.74751505  0.87011480  1
  V  V14  1  0.25119336  0.86924058  0.12972193  1
  V  V15  1  0.74703613  0.87956883  0.63114239  1
  V  V16  1  0.72611210  0.87238789  0.13496751  1
  V  V17  1  0.49996135  0.01097947  0.00354924  1
  V  V18  1  0.89164530  0.37607676  0.49703712  1
  V  V19  1  0.88207060  0.87290258  0.50116280  1
  V  V20  1  0.11863434  0.37661618  0.76402814  1
  V  V21  1  -0.00084132  0.25678111  0.76610250  1
  V  V22  1  0.50290864  0.63408890  0.10763035  1
  V  V23  1  0.25231521  0.25043307  0.49416197  1
  V  V24  1  0.50631644  0.12143592  0.14128995  1
  V  V25  1  0.86988231  -0.00770953  0.37009053  1
  V  V26  1  0.50352488  0.22857076  0.75290729  1
  V  V27  1  0.11935864  0.88913362  0.74697814  1
  V  V28  1  0.74016258  0.37945971  0.61848803  1
  V  V29  1  0.73909797  0.50059214  0.74768438  1
  V  V30  1  0.75912662  0.36635065  0.12460130  1
  V  V31  1  -0.00649910  0.00063797  0.00400021  1
  V  V32  1  0.38646297  0.38067729  -0.00113703  1
  V  V33  1  0.86893572  0.13643519  0.25106099  1
  V  V34  1  0.87754307  0.11976183  0.76363348  1
  V  V35  1  0.11312115  0.38569605  0.23223423  1
  V  V36  1  0.12666355  0.87138031  0.26270971  1
  V  V37  1  -0.00478860  0.13398043  0.13674385  1
  V  V38  1  0.25003964  0.74892649  -0.00146186  1
  V  V39  1  0.73340452  0.49718568  0.25589274  1
  V  V40  1  0.89664728  0.74026554  0.62718717  1
  V  V41  1  0.37515891  0.37979998  0.49511924  1
  V  V42  1  0.73848880  0.74288897  0.50708213  1
  V  V43  1  0.01273348  0.74803255  0.26162468  1
  V  V44  1  0.51922242  0.49650596  0.51925624  1
  V  V45  1  0.50071756  0.65927559  0.62404405  1
  V  V46  1  0.75194489  -0.00189610  0.76319534  1
  V  V47  1  0.11420226  0.51639371  0.61420928  1
  V  V48  1  0.89137304  0.61891551  0.75064677  1
  V  V49  1  0.87325270  0.86289755  0.02333677  1
  V  V50  1  0.39474752  0.64131910  0.24541142  1
  V  V51  1  0.00618317  -0.00677647  0.49768201  1
  V  V52  1  0.25561604  0.11253810  0.36249367  1
  V  V53  1  0.62148174  0.50055821  0.09654702  1
  V  V54  1  0.89069634  0.50058784  0.38142083  1
  V  V55  1  0.24107398  0.37702570  0.62380123  1
  V  V56  1  0.87403601  0.36178432  -0.01065450  1
  V  V57  1  -0.00183750  0.62648388  0.12543792  1
  V  V58  1  0.13067550  0.61945538  0.00466268  1
  V  V59  1  0.87380019  0.63007112  0.25185519  1
  V  V60  1  0.37501876  0.24555586  0.13654383  1
  V  V61  1  0.24351935  0.12880034  0.87487761  1
  V  V62  1  0.11241417  0.26570484  0.36947494  1
  V  V63  1  0.61392558  0.85318420  0.28284698  1
  V  V64  1  0.26058961  0.87331143  0.61147025  1
  V  V65  1  0.36708758  0.00345318  0.87270984  1
  V  V66  1  0.12100505  0.12642992  0.49624072  1
  V  V67  1  0.73277074  0.62603978  0.38236305  1
  V  V68  1  0.25843739  0.50357546  0.76029374  1
  V  V69  1  0.24502526  0.25759627  0.00894091  1
  Zn  Zn70  1  0.24294702  0.01177885  0.73919169  1
  Zn  Zn71  1  0.61197403  0.23512514  -0.08685427  1
  Zn  Zn72  1  0.75850838  0.72323794  0.01541345  1
  Zn  Zn73  1  0.62296274  0.23988630  0.32483303  1
  Zn  Zn74  1  0.80145695  0.56621543  0.90599798  1
  Zn  Zn75  1  0.25012298  0.70559121  0.36123152  1
  Zn  Zn76  1  0.18357619  0.19430884  0.19144099  1
  Zn  Zn77  1  0.17872649  0.19171086  0.68791125  1
  Zn  Zn78  1  0.20734389  0.66384837  0.17959326  1
  Zn  Zn79  1  0.19401448  0.68870646  0.69097726  1
  Zn  Zn80  1  0.68642107  0.18266586  0.08467347  1
  Zn  Zn81  1  0.68610266  0.17598100  0.78389693  1
  Zn  Zn82  1  0.67648794  0.68588273  0.18545624  1
  Zn  Zn83  1  0.68797026  0.68341733  0.69359289  1
  Zn  Zn84  1  0.30199499  0.32039746  0.31394348  1
  Zn  Zn85  1  0.30634137  0.31426316  0.82004814  1
  Zn  Zn86  1  0.41016441  0.81655055  0.31984521  1
  Zn  Zn87  1  0.29983890  0.82325593  0.81585254  1
  Zn  Zn88  1  0.81088442  0.31573015  0.31516174  1
  Zn  Zn89  1  0.80480215  0.31704243  0.80811701  1
  Zn  Zn90  1  0.80428356  0.80900679  0.31121781  1
  Zn  Zn91  1  0.82261424  0.81117656  0.81052129  1
  Zn  Zn92  1  0.18852996  0.45118652  0.43257526  1
  Zn  Zn93  1  0.18889256  0.44226078  0.94173158  1
  Zn  Zn94  1  0.25512691  0.89902542  0.39897913  1
  Zn  Zn95  1  0.18176573  0.93832567  0.94134036  1
  Zn  Zn96  1  0.69096806  0.43445650  0.44318791  1
  Zn  Zn97  1  0.68481054  0.41752297  0.93129615  1
  Zn  Zn98  1  0.69395017  0.93676036  0.44138294  1
  Zn  Zn99  1  0.68151708  1.05470535  0.93659517  1
  Zn  Zn100  1  0.31113803  0.06276256  0.06751400  1
  Zn  Zn101  1  0.29231215  0.05689969  0.55837049  1
  Zn  Zn102  1  0.31257060  0.55763954  0.07683050  1
  Zn  Zn103  1  0.32141055  0.55759483  0.58479261  1
  Zn  Zn104  1  0.81313761  0.04733944  0.07378339  1
  Zn  Zn105  1  0.81411600  0.06622063  0.56140060  1
  Zn  Zn106  1  0.81508205  0.55586508  0.07551122  1
  Zn  Zn107  1  0.81480794  0.55991074  0.56479854  1
  Zn  Zn108  1  0.44043937  0.43852780  0.18309433  1
  Zn  Zn109  1  0.42925515  0.41618127  0.68790759  1
  Zn  Zn110  1  0.50403385  0.96005829  0.21649784  1
  Zn  Zn111  1  0.42959195  0.92454316  0.69400874  1
  Zn  Zn112  1  0.93602892  0.44660793  0.18716500  1
  Zn  Zn113  1  0.93745944  0.44098390  0.68571409  1
  Zn  Zn114  1  0.94669800  0.93548182  0.19427062  1
  Zn  Zn115  1  0.93994857  0.93642314  0.68354943  1
  Zn  Zn116  1  0.06308912  0.06092588  0.31735988  1
  Zn  Zn117  1  0.05614809  0.06753333  0.82028949  1
  Zn  Zn118  1  0.07150673  0.56536981  0.31560949  1
  Zn  Zn119  1  0.06842891  0.56083245  0.81166042  1
  Zn  Zn120  1  0.68287333  0.04048874  0.21643824  1
  Zn  Zn121  1  0.55045310  0.04247442  0.79573062  1
  Zn  Zn122  1  0.53656502  0.56507436  0.32501218  1
  Zn  Zn123  1  0.53441280  0.53165032  0.73914452  1
  Zn  Zn124  1  0.43674558  0.18883421  0.31593474  1
  Zn  Zn125  1  0.43103931  0.18865082  0.94124457  1
  Zn  Zn126  1  0.41871321  0.66123847  0.45292686  1
  Zn  Zn127  1  0.44080913  0.67979374  0.93245267  1
  Zn  Zn128  1  0.93348780  0.18817067  0.43336839  1
  Zn  Zn129  1  0.80800500  0.19110881  0.94009299  1
  Zn  Zn130  1  0.91778803  0.70289231  0.42116574  1
  Zn  Zn131  1  0.93960630  0.68924875  0.93644773  1
  Zn  Zn132  1  0.05515839  0.31675881  0.06239928  1
  Zn  Zn133  1  0.06195035  0.31296850  0.56346184  1
  Zn  Zn134  1  0.06198678  0.80563700  0.06793011  1
  Zn  Zn135  1  0.10016525  0.77974071  0.57945023  1
  Zn  Zn136  1  0.57999661  0.30069900  0.11994196  1
  Zn  Zn137  1  0.54939125  0.30684064  0.57975770  1
  Zn  Zn138  1  0.56531953  0.81918008  0.04332410  1
  Zn  Zn139  1  0.56482565  0.84137750  0.55120470  1
  O  O140  1  0.11428811  0.11785952  0.12667554  1
  O  O141  1  0.11298090  0.13400503  0.61042128  1
  O  O142  1  0.11494381  0.63422640  0.10839650  1
  O  O143  1  0.12692543  0.61643705  0.63150613  1
  O  O144  1  0.61044326  0.10923510  0.13976852  1
  O  O145  1  0.59454665  0.13807164  0.56246298  1
  O  O146  1  0.61694912  0.60950985  0.11972236  1
  O  O147  1  0.59967567  0.63633924  0.63638740  1
  O  O148  1  0.38195308  0.36566488  0.39252485  1
  O  O149  1  0.38064362  0.36578823  0.88918129  1
  O  O150  1  0.39135944  0.95111015  0.34618320  1
  O  O151  1  0.35744033  0.89185540  0.89069873  1
  O  O152  1  0.87133048  0.38892463  0.38494841  1
  O  O153  1  0.86948145  0.37120338  0.88957744  1
  O  O154  1  0.86635640  0.88221654  0.38585553  1
  O  O155  1  0.89022351  0.86988258  0.88949008  1
  O  O156  1  0.24948826  0.01295230  0.38248335  1
  O  O157  1  0.24974783  0.01393638  0.88388393  1
  O  O158  1  0.25089914  0.51049405  0.35880348  1
  O  O159  1  0.24377697  0.49953943  0.85924512  1
  O  O160  1  0.76465840  0.00725987  0.38170177  1
  O  O161  1  0.75324279  -0.00414535  0.86330000  1
  O  O162  1  0.75348147  0.50994323  0.37280999  1
  O  O163  1  0.74780029  0.48190044  0.85395108  1
  O  O164  1  0.23596998  0.54468026  0.16105305  1
  O  O165  1  0.23950717  0.49116756  0.63698598  1
  O  O166  1  0.23721072  0.98759952  0.12099327  1
  O  O167  1  0.24448565  0.98274252  0.62851566  1
  O  O168  1  0.73613907  0.50923926  0.14631644  1
  O  O169  1  0.75256127  0.48913034  0.62931766  1
  O  O170  1  0.75037049  0.97958917  0.13947703  1
  O  O171  1  0.76397695  0.98176500  0.62195820  1
  O  O172  1  0.01267487  0.38489403  0.24389813  1
  O  O173  1  0.00728895  0.36838547  0.74819163  1
  O  O174  1  0.01330950  0.85759546  0.24992144  1
  O  O175  1  0.00086577  0.88588722  0.77234620  1
  O  O176  1  0.50056187  0.39545161  0.27432543  1
  O  O177  1  0.48288475  0.34870003  0.76214915  1
  O  O178  1  0.50498963  0.86060294  0.27640350  1
  O  O179  1  0.52176273  0.94515385  0.74282252  1
  O  O180  1  0.48795963  0.11478145  0.24047763  1
  O  O181  1  0.48186315  0.13064726  0.75233855  1
  O  O182  1  0.49976070  0.60766273  0.22202792  1
  O  O183  1  0.48507134  0.63528205  0.73519083  1
  O  O184  1  0.99218686  0.11950269  0.24282266  1
  O  O185  1  0.99630437  0.13528239  0.74434545  1
  O  O186  1  0.99827253  0.63067045  0.24675270  1
  O  O187  1  0.99096674  0.62154818  0.75163345  1
  O  O188  1  0.36096692  0.25680253  0.00956535  1
  O  O189  1  0.35810376  0.25807806  0.51352427  1
  O  O190  1  0.36515832  0.76487417  -0.01574539  1
  O  O191  1  0.30162989  0.67601332  0.46949071  1
  O  O192  1  0.87632846  0.26230793  0.00273038  1
  O  O193  1  0.87974247  0.26498194  0.50265145  1
  O  O194  1  0.87677103  0.75959620  0.00355336  1
  O  O195  1  0.87266299  0.75378697  0.51041897  1
  O  O196  1  0.13048968  0.24679546  0.49089533  1
  O  O197  1  0.13375677  0.24211075  1.01436071  1
  O  O198  1  0.13800157  0.73856037  0.47231520  1
  O  O199  1  0.12994743  0.74264826  0.99355272  1
  O  O200  1  0.60096768  0.20172111  0.52519788  1
  O  O201  1  0.62114810  0.25216423  1.02356639  1
  O  O202  1  0.64186528  0.75501444  0.50660886  1
  O  O203  1  0.64902112  0.77271465  0.97373409  1
  O  O204  1  0.48528647  0.23176838  0.12768075  1
  O  O205  1  0.47127780  0.24894656  0.64027056  1
  O  O206  1  0.51741789  0.73384896  0.10392192  1
  O  O207  1  0.49978503  0.75805319  0.60781321  1
  O  O208  1  1.00113397  0.23201994  0.12347516  1
  O  O209  1  0.99214563  0.24241871  0.62725317  1
  O  O210  1  1.00107983  0.73638523  0.13929317  1
  O  O211  1  0.99507178  0.74432902  0.61299964  1
  O  O212  1  0.01401333  0.24826916  0.37627668  1
  O  O213  1  -0.00189745  0.25036294  0.86118475  1
  O  O214  1  0.00561378  0.74101303  0.36286940  1
  O  O215  1  0.01250546  0.76637603  0.88607092  1
  O  O216  1  0.51019659  0.26145120  0.36511340  1
  O  O217  1  0.49712819  0.24389917  0.86519597  1
  O  O218  1  0.46643637  0.77463397  0.42770595  1
  O  O219  1  0.52149908  0.74900031  0.86867574  1
  O  O220  1  0.23717295  0.13225323  0.49071021  1
  O  O221  1  0.23734956  0.13219569  1.00061811  1
  O  O222  1  0.25903514  0.61904983  0.50696816  1
  O  O223  1  0.23733914  0.63109761  1.00702615  1
  O  O224  1  0.75401368  0.12546558  0.48510290  1
  O  O225  1  0.74977778  0.11730531  1.00931655  1
  O  O226  1  0.75052047  0.63168388  0.49543562  1
  O  O227  1  0.75893230  0.61358775  0.99728031  1
  O  O228  1  0.24598876  0.35923960  -0.00444407  1
  O  O229  1  0.25537398  0.37160143  0.50305485  1
  O  O230  1  0.24910513  0.86750044  0.00803425  1
  O  O231  1  0.25407302  0.88263708  0.51242383  1
  O  O232  1  0.76481702  0.38236680  0.01101327  1
  O  O233  1  0.76563405  0.38103089  0.51362126  1
  O  O234  1  0.77196172  0.87959727  0.02487862  1
  O  O235  1  0.76310520  0.86256841  0.51211918  1
  O  O236  1  0.13168174  0.48917168  0.25842543  1
  O  O237  1  0.13090675  0.49000128  0.74257956  1
  O  O238  1  0.11202585  0.98228827  0.24387753  1
  O  O239  1  0.12050790  0.99319536  0.75953180  1
  O  O240  1  0.63600437  0.50113039  0.26641333  1
  O  O241  1  0.64054214  0.49835743  0.74113179  1
  O  O242  1  0.61194851  0.96448822  0.25842098  1
  O  O243  1  0.65756244  1.01322114  0.74062667  1
  O  O244  1  0.39745481  -0.00896403  0.28255491  1
  O  O245  1  0.35950655  -0.00593848  0.77076756  1
  O  O246  1  0.36499392  0.50178739  0.24247497  1
  O  O247  1  0.35743207  0.48823114  0.74606580  1
  O  O248  1  0.88398136  -0.00316440  0.26827064  1
  O  O249  1  0.88087864  0.01481699  0.74836963  1
  O  O250  1  0.86931236  0.51014539  0.26611014  1
  O  O251  1  0.87336544  0.51488622  0.74507896  1
  O  O252  1  0.12462526  0.36686949  0.37967805  1
  O  O253  1  0.12457292  0.37960724  0.86244570  1
  O  O254  1  0.13937520  0.87645696  0.35952356  1
  O  O255  1  0.11530586  0.86949190  0.87200057  1
  O  O256  1  0.61802868  0.36630749  0.38540478  1
  O  O257  1  0.60188012  0.35803543  0.87982639  1
  O  O258  1  0.64141757  0.85484317  0.37912105  1
  O  O259  1  0.67959499  0.80805183  0.90590221  1
  O  O260  1  0.37569986  0.13861776  0.12502017  1
  O  O261  1  0.34999047  0.13581305  0.62322307  1
  O  O262  1  0.39184667  0.62250082  0.13051212  1
  O  O263  1  0.38582978  0.63445724  0.63641445  1
  O  O264  1  0.88615760  0.11445948  0.14104517  1
  O  O265  1  0.88445603  0.13533916  0.62549858  1
  O  O266  1  0.88135553  0.62130439  0.14441958  1
  O  O267  1  0.87757179  0.63425498  0.63018713  1
  O  O268  1  0.25894223  0.24553375  0.11675756  1
  O  O269  1  0.24476270  0.25687312  0.61597790  1
  O  O270  1  0.24278506  0.75886308  0.11195377  1
  O  O271  1  0.21221807  0.77554879  0.61986815  1
  O  O272  1  0.76084874  0.26763813  0.13041755  1
  O  O273  1  0.76997391  0.26596459  0.63211498  1
  O  O274  1  0.73913721  0.76234879  0.12230812  1
  O  O275  1  0.75923205  0.75241318  0.61805092  1
  O  O276  1  0.23793488  0.24691723  0.38213202  1
  O  O277  1  0.25032556  0.23635517  0.89293047  1
  O  O278  1  0.30704830  0.80462256  0.36468542  1
  O  O279  1  0.23208562  0.75764625  0.88710502  1
  O  O280  1  0.74237663  0.23972960  0.36683930  1
  O  O281  1  0.73638034  0.24509786  0.86595208  1
  O  O282  1  0.75934964  0.73464502  0.39260913  1
  O  O283  1  0.74662583  0.76448613  0.88749522  1
  O  O284  1  0.00415339  0.10987954  0.01743413  1
  O  O285  1  0.00251019  0.12173246  0.50392767  1
  O  O286  1  0.00548544  0.62021011  0.00473003  1
  O  O287  1  0.10667364  0.66876822  0.45073108  1
  O  O288  1  0.49136961  0.11579402  0.01298181  1
  O  O289  1  0.52371812  0.05666675  0.44606882  1
  O  O290  1  0.48903662  0.61166760  0.00880837  1
  O  O291  1  0.49178824  0.60575336  0.52169311  1
  O  O292  1  0.48880543  0.37474244  0.50585043  1
  O  O293  1  0.48695855  0.38334091  0.98340326  1
  O  O294  1  0.46889314  0.83807579  0.47398054  1
  O  O295  1  0.47934408  0.88609239  1.00488162  1
  O  O296  1  0.99090769  0.37816422  0.49822947  1
  O  O297  1  0.98612922  0.39034640  1.00864209  1
  O  O298  1  0.99352097  0.88731526  0.50403202  1
  O  O299  1  0.99802349  0.88214417  1.00034347  1
  O  O300  1  0.50692764  0.48312984  0.40733960  1
  O  O301  1  0.50264988  0.47976529  0.84205870  1
  O  O302  1  0.54218125  0.98600554  0.43754233  1
  O  O303  1  0.47253449  1.01300257  0.89214829  1
  O  O304  1  0.98900154  0.51110319  0.37714471  1
  O  O305  1  1.00530009  0.50400672  0.89139881  1
  O  O306  1  0.98539404  1.00725245  0.39016440  1
  O  O307  1  1.00620672  0.99104571  0.89638802  1
  O  O308  1  0.01029756  0.00142886  0.12047569  1
  O  O309  1  -0.00959997  0.01395142  0.60956770  1
  O  O310  1  -0.00404896  0.51748463  0.11241240  1
  O  O311  1  0.01549792  0.49909732  0.62548520  1
  O  O312  1  0.48371122  0.01194345  0.11669092  1
  O  O313  1  0.44601150  -0.00605235  0.57409359  1
  O  O314  1  0.52176344  0.48779960  0.11653085  1
  O  O315  1  0.50080361  0.48410345  0.62640904  1
  O  O316  1  0.24406559  0.39158143  0.24607010  1
  O  O317  1  0.23539358  0.37889384  0.74604951  1
  O  O318  1  0.23564804  0.86882924  0.23244818  1
  O  O319  1  0.22691074  0.88027404  0.74566165  1
  O  O320  1  0.75937553  0.39193460  0.24271438  1
  O  O321  1  0.76452836  0.38817726  0.72919204  1
  O  O322  1  0.73309957  0.86326621  0.24261612  1
  O  O323  1  0.76909395  0.88632101  0.74015652  1
  O  O324  1  0.23403218  0.12243653  0.26363835  1
  O  O325  1  0.22856629  0.12720267  0.77072146  1
  O  O326  1  0.28075066  0.64246993  0.26808225  1
  O  O327  1  0.26485423  0.61370912  0.74255019  1
  O  O328  1  0.76669798  0.11442972  0.25498211  1
  O  O329  1  0.77247707  0.11369544  0.74066540  1
  O  O330  1  0.75361037  0.61993896  0.26562262  1
  O  O331  1  0.75835834  0.60861492  0.74447790  1
  O  O332  1  0.35447840  0.13449214  0.37156796  1
  O  O333  1  0.35228517  0.11632240  0.88653632  1
  O  O334  1  0.42812867  0.62580544  0.34689527  1
  O  O335  1  0.38187647  0.62561360  0.85182469  1
  O  O336  1  0.86977411  0.11659820  0.36605836  1
  O  O337  1  0.87803089  0.13089392  0.86197099  1
  O  O338  1  0.86575641  0.61273108  0.37446180  1
  O  O339  1  0.87371908  0.64047767  0.85551250  1
  O  O340  1  0.12433938  0.37716123  0.13272803  1
  O  O341  1  0.13161965  0.37988963  0.62965947  1
  O  O342  1  0.13124750  0.87979078  0.12684726  1
  O  O343  1  0.09603510  0.87708197  0.64969526  1
  O  O344  1  0.64978623  0.39419628  0.12145898  1
  O  O345  1  0.64198406  0.36137310  0.61487807  1
  O  O346  1  0.62642776  0.87730266  0.12267681  1
  O  O347  1  0.64862933  0.86815804  0.63088977  1
  O  O348  1  0.13046286  0.27143906  0.26090159  1
  O  O349  1  0.11123159  0.26492172  0.74707706  1
  O  O350  1  0.11966988  0.75407390  0.24981275  1
  O  O351  1  0.12512864  0.75653344  0.76754282  1
  O  O352  1  0.62705177  0.25183985  0.21370622  1
  O  O353  1  0.60172995  0.23470452  0.73180711  1
  O  O354  1  0.62073794  0.75406151  0.25568162  1
  O  O355  1  0.61451616  0.74988422  0.77443307  1
  O  O356  1  0.36769571  0.25724310  0.23994034  1
  O  O357  1  0.35334533  0.24720664  0.73900565  1
  O  O358  1  0.40042122  0.73947941  0.23330435  1
  O  O359  1  0.36315117  0.75080760  0.75552850  1
  O  O360  1  0.87447475  0.23543502  0.25720020  1
  O  O361  1  0.88716653  0.24365934  0.74259565  1
  O  O362  1  0.88606061  0.73692429  0.26612007  1
  O  O363  1  0.87801264  0.74233889  0.73313178  1
  O  O364  1  0.37627183  0.48110113  0.51195526  1
  O  O365  1  0.35411378  0.47595978  1.01116846  1
  O  O366  1  0.39672594  1.00283710  0.51807964  1
  O  O367  1  0.37111118  0.99074258  0.99757993  1
  O  O368  1  0.87640888  0.49437292  0.48952104  1
  O  O369  1  0.88449547  0.50416738  0.99153975  1
  O  O370  1  0.88228742  0.99073145  0.49316253  1
  O  O371  1  0.89072672  0.98650376  1.01043029  1
  O  O372  1  0.11640533  0.00693633  0.01339022  1
  O  O373  1  0.10767899  0.01254335  0.49321760  1
  O  O374  1  0.11850948  0.51495124  -0.00286155  1
  O  O375  1  0.13234587  0.50394144  0.51494090  1
  O  O376  1  0.59734444  -0.00637283  -0.00782629  1
  O  O377  1  0.59835959  -0.04855914  0.50775318  1
  O  O378  1  0.63209698  0.49856943  -0.00162760  1
  O  O379  1  0.61783378  0.49624388  0.51467673  1
  O  O380  1  0.39149326  0.35611872  0.11224901  1
  O  O381  1  0.35495033  0.36206742  0.61783677  1
  O  O382  1  0.35496042  0.87763101  0.11089516  1
  O  O383  1  0.35843753  0.86324138  0.63522931  1
  O  O384  1  0.86271122  0.39317640  0.11661946  1
  O  O385  1  0.87963526  0.37207260  0.61046084  1
  O  O386  1  0.88728698  0.86735610  0.12392579  1
  O  O387  1  0.87680551  0.86011224  0.61858725  1
  O  O388  1  0.12741093  0.13608177  0.38167650  1
  O  O389  1  0.12901317  0.12125406  0.89491709  1
  O  O390  1  0.14460452  0.64000802  0.38139537  1
  O  O391  1  0.11650570  0.64001988  0.88646550  1
  O  O392  1  0.64490823  0.12063393  0.36103278  1
  O  O393  1  0.61865647  0.11925337  0.86374655  1
  O  O394  1  0.63497514  0.62197668  0.37664264  1
  O  O395  1  0.57871272  0.70786455  0.83104182  1
