# generated using pymatgen
data_V35Zn35O128
_symmetry_space_group_name_H-M   'P 1'
_cell_length_a   17.00226090
_cell_length_b   17.07137817
_cell_length_c   16.94461649
_cell_angle_alpha   89.70727066
_cell_angle_beta   90.29197815
_cell_angle_gamma   89.48853305
_symmetry_Int_Tables_number   1
_chemical_formula_structural   V35Zn35O128
_chemical_formula_sum   'V70 Zn70 O256'
_cell_volume   4917.88410067
_cell_formula_units_Z   2
loop_
 _symmetry_equiv_pos_site_id
 _symmetry_equiv_pos_as_xyz
  1  'x, y, z'
loop_
 _atom_site_type_symbol
 _atom_site_label
 _atom_site_symmetry_multiplicity
 _atom_site_fract_x
 _atom_site_fract_y
 _atom_site_fract_z
 _atom_site_occupancy
  V  V0  1  0.25060530  0.87272567  0.12265900  1
  V  V1  1  -0.06562555  0.87661066  0.41131624  1
  V  V2  1  0.88940467  0.62568248  0.25099074  1
  V  V3  1  0.88612540  0.75222771  0.62711644  1
  V  V4  1  0.62116816  0.13615368  0.00702790  1
  V  V5  1  0.12380800  0.24529221  0.86665560  1
  V  V6  1  0.88730908  0.74579453  0.12747141  1
  V  V7  1  0.62485700  0.87368087  0.75861019  1
  V  V8  1  0.50398801  0.74065803  0.73760705  1
  V  V9  1  0.00219655  0.24767718  0.24433187  1
  V  V10  1  0.74080959  0.14097775  0.37771339  1
  V  V11  1  0.24540987  0.12058691  0.86547659  1
  V  V12  1  0.25915397  0.60451124  0.88358147  1
  V  V13  1  0.74604713  0.00073527  0.75454234  1
  V  V14  1  0.12909409  0.38936499  0.74186614  1
  V  V15  1  0.50282808  0.62739527  0.12939449  1
  V  V16  1  0.75098222  0.63408414  0.87738374  1
  V  V17  1  0.75155381  0.88351512  0.62109670  1
  V  V18  1  0.34046672  0.63126403  0.72250642  1
  V  V19  1  0.00571558  0.87221070  0.87090067  1
  V  V20  1  0.50190073  0.86428211  0.38441874  1
  V  V21  1  0.36969855  -0.00458390  0.86284335  1
  V  V22  1  0.61980372  0.63209091  -0.00225322  1
  V  V23  1  0.13029087  0.36959484  0.25203100  1
  V  V24  1  0.87705433  0.87664248  0.00590357  1
  V  V25  1  0.25186160  0.64142653  0.36538306  1
  V  V26  1  0.73685736  0.12989954  0.88249692  1
  V  V27  1  0.12220030  0.12529263  0.00327593  1
  V  V28  1  0.87277977  0.00590757  0.87602641  1
  V  V29  1  0.76103947  0.49372013  0.24332047  1
  V  V30  1  -0.01075831  0.38401740  0.37666756  1
  V  V31  1  0.24867817  0.75010765  -0.00814231  1
  V  V32  1  0.22735850  0.11515913  0.38370518  1
  V  V33  1  0.00182651  0.50260911  0.00991819  1
  V  V34  1  0.12073290  0.62433686  0.00730012  1
  V  V35  1  0.62002660  0.86143122  0.25348837  1
  V  V36  1  0.23388118  0.25504677  0.49964655  1
  V  V37  1  0.62447620  0.37337145  0.25784044  1
  V  V38  1  0.00116583  0.36870025  0.88328086  1
  V  V39  1  0.50013387  0.00273129  0.00320606  1
  V  V40  1  0.73895202  0.63318782  0.36293942  1
  V  V41  1  0.86883350  0.25393503  0.58726677  1
  V  V42  1  0.13325467  0.88100087  0.73419582  1
  V  V43  1  0.89241211  0.63414710  0.75016891  1
  V  V44  1  -0.00123206  0.00432609  0.01181497  1
  V  V45  1  0.37324356  0.12728023  0.24399784  1
  V  V46  1  0.74699060  0.00626700  0.25402631  1
  V  V47  1  0.38026502  0.74681640  0.12936309  1
  V  V48  1  0.88240914  0.12369596  0.24028767  1
  V  V49  1  0.14071342  0.49041678  0.12767605  1
  V  V50  1  0.38399194  0.14024122  0.74338640  1
  V  V51  1  -0.00468561  0.12884484  0.64937397  1
  V  V52  1  0.25763748  0.25244940  0.01023083  1
  V  V53  1  0.11692092  0.85709324  0.24957688  1
  V  V54  1  0.74714859  0.49892008  0.75431643  1
  V  V55  1  0.74702044  0.87931897  0.12523370  1
  V  V56  1  0.11406339  0.63838555  0.49370648  1
  V  V57  1  0.62862137  0.49283962  0.11425274  1
  V  V58  1  0.25333769  -0.00453234  0.24977049  1
  V  V59  1  0.52669119  0.01504335  0.49997612  1
  V  V60  1  0.12461600  0.00171048  0.12695507  1
  V  V61  1  0.73286129  0.70820193  0.53467835  1
  V  V62  1  0.74447555  0.75490062  -0.00331848  1
  V  V63  1  0.37538266  0.87434594  -0.00627653  1
  V  V64  1  0.30498892  0.43922664  0.29907296  1
  V  V65  1  0.88310448  0.50629058  0.87826668  1
  V  V66  1  0.49360767  0.24358762  0.24663262  1
  V  V67  1  0.26505448  0.74827864  0.50907804  1
  V  V68  1  0.86035124  0.25513143  0.11540880  1
  V  V69  1  0.27255064  0.87826671  0.61844387  1
  Zn  Zn70  1  0.61302890  0.00227373  0.13041510  1
  Zn  Zn71  1  0.50819004  0.86799005  0.87680170  1
  Zn  Zn72  1  0.83561964  0.39082724  0.02011099  1
  Zn  Zn73  1  0.37898588  -0.00616650  0.38431103  1
  Zn  Zn74  1  0.37705886  0.60568476  0.25270139  1
  Zn  Zn75  1  0.11753223  0.73855520  0.86606152  1
  Zn  Zn76  1  0.18821070  0.18451218  0.19141101  1
  Zn  Zn77  1  0.18180506  0.17707399  0.67883990  1
  Zn  Zn78  1  0.19098248  0.68147393  0.18014921  1
  Zn  Zn79  1  0.14252153  0.71928792  0.66380508  1
  Zn  Zn80  1  0.68300681  0.19087001  0.18268619  1
  Zn  Zn81  1  0.80820903  0.18923374  0.72345757  1
  Zn  Zn82  1  0.69437889  0.68650795  0.18124762  1
  Zn  Zn83  1  0.69352256  0.69397402  0.70168662  1
  Zn  Zn84  1  0.35467215  0.26581011  0.37085304  1
  Zn  Zn85  1  0.29813182  0.30689725  0.68195804  1
  Zn  Zn86  1  0.31988340  0.81380286  0.31212017  1
  Zn  Zn87  1  0.31469449  0.80519237  0.80091063  1
  Zn  Zn88  1  0.81624226  0.31150862  0.30729995  1
  Zn  Zn89  1  0.79865404  0.32468853  0.85234906  1
  Zn  Zn90  1  0.81140536  0.80857298  0.30848330  1
  Zn  Zn91  1  0.81875881  0.81719874  0.81257554  1
  Zn  Zn92  1  0.17877946  0.44359294  0.43714284  1
  Zn  Zn93  1  0.18647662  0.42817805  0.94070345  1
  Zn  Zn94  1  0.19637192  0.92153748  0.42935362  1
  Zn  Zn95  1  0.18675474  0.94109646  0.93588207  1
  Zn  Zn96  1  0.68088998  0.45293780  0.41449177  1
  Zn  Zn97  1  0.68320808  0.44723192  0.93141517  1
  Zn  Zn98  1  0.69931951  0.93012488  0.42741940  1
  Zn  Zn99  1  0.68577340  0.93988984  0.93779401  1
  Zn  Zn100  1  0.31074390  0.06334059  0.05914439  1
  Zn  Zn101  1  0.31300531  0.04929864  0.56517002  1
  Zn  Zn102  1  0.31407296  0.56305468  0.06486878  1
  Zn  Zn103  1  0.22301202  0.55347321  0.58263983  1
  Zn  Zn104  1  0.81011619  0.06526943  0.06542827  1
  Zn  Zn105  1  0.80152024  0.07586423  0.56984778  1
  Zn  Zn106  1  0.81275156  0.56859756  0.06386113  1
  Zn  Zn107  1  0.79011622  0.55897744  0.56929651  1
  Zn  Zn108  1  0.45018375  0.42566425  0.17389318  1
  Zn  Zn109  1  0.40083985  0.46187663  0.69592306  1
  Zn  Zn110  1  0.43652444  0.93243255  0.18815849  1
  Zn  Zn111  1  0.45105402  0.94959177  0.67438431  1
  Zn  Zn112  1  0.94120257  0.43242559  0.18678432  1
  Zn  Zn113  1  0.94441739  0.31554988  0.71866660  1
  Zn  Zn114  1  0.95900008  0.96282826  0.24879778  1
  Zn  Zn115  1  0.93128781  0.93787077  0.68811483  1
  Zn  Zn116  1  0.05500228  0.02505087  0.42750125  1
  Zn  Zn117  1  0.06240972  0.05356485  0.81713404  1
  Zn  Zn118  1  0.06953992  0.55985312  0.31549680  1
  Zn  Zn119  1  0.07003412  0.55859652  0.81609984  1
  Zn  Zn120  1  0.56301338  0.06031357  0.32189824  1
  Zn  Zn121  1  0.55828100  0.05756299  0.81585701  1
  Zn  Zn122  1  0.56777851  0.55843192  0.29795554  1
  Zn  Zn123  1  0.57029661  0.57298510  0.80786386  1
  Zn  Zn124  1  0.41043409  0.14227779  0.46937077  1
  Zn  Zn125  1  0.42918727  0.17820981  0.93475987  1
  Zn  Zn126  1  0.43012567  0.68928193  0.42686677  1
  Zn  Zn127  1  0.44011766  0.69433638  0.92881841  1
  Zn  Zn128  1  0.93109891  0.18271207  0.41594461  1
  Zn  Zn129  1  0.93227133  0.18707773  0.93708480  1
  Zn  Zn130  1  0.92255540  0.69573344  0.43652267  1
  Zn  Zn131  1  0.93832473  0.69084193  0.94294305  1
  Zn  Zn132  1  0.06060322  0.30910771  0.06604842  1
  Zn  Zn133  1  0.06185621  0.30444653  0.55889196  1
  Zn  Zn134  1  0.06498367  0.81354547  0.06197533  1
  Zn  Zn135  1  0.07471176  0.84590767  0.52412625  1
  Zn  Zn136  1  0.55034479  0.30627011  0.07599136  1
  Zn  Zn137  1  0.76906425  0.37015747  0.65261457  1
  Zn  Zn138  1  0.56175846  0.81357926  0.06682235  1
  Zn  Zn139  1  0.57098851  0.82360933  0.56571983  1
  O  O140  1  0.13035243  0.10948615  0.11688390  1
  O  O141  1  0.09309597  0.12471625  0.63161402  1
  O  O142  1  0.13141573  0.60890710  0.11458450  1
  O  O143  1  0.13014440  0.62953612  0.60270216  1
  O  O144  1  0.62541290  0.11697077  0.11075594  1
  O  O145  1  0.58058981  0.18597935  0.62173803  1
  O  O146  1  0.61946038  0.62526378  0.11633446  1
  O  O147  1  0.69710877  0.63659156  0.60099403  1
  O  O148  1  0.35929071  0.37816393  0.35510699  1
  O  O149  1  0.39441744  0.40761003  0.86151278  1
  O  O150  1  0.39652138  0.87749788  0.36532740  1
  O  O151  1  0.36469250  0.87813074  0.88449869  1
  O  O152  1  0.88901785  0.37698877  0.36209480  1
  O  O153  1  0.89671207  0.39149624  0.88118788  1
  O  O154  1  0.83264903  0.88078832  0.39297754  1
  O  O155  1  0.88223560  0.88261781  0.88898974  1
  O  O156  1  0.25474272  -0.00575613  0.36129002  1
  O  O157  1  0.25810068  0.00959337  0.88146793  1
  O  O158  1  0.25399956  0.50186366  0.36112301  1
  O  O159  1  0.25276318  0.50652799  0.89096845  1
  O  O160  1  0.75108975  0.00723851  0.35423321  1
  O  O161  1  0.75679727  0.00202699  0.87360899  1
  O  O162  1  0.75408836  0.50951506  0.34847344  1
  O  O163  1  0.76246259  0.51765081  0.87315940  1
  O  O164  1  0.23979476  0.49470453  0.11821798  1
  O  O165  1  0.25380302  0.44585899  0.61847207  1
  O  O166  1  0.24507713  0.98856508  0.12520487  1
  O  O167  1  0.24271501  0.97289679  0.60995978  1
  O  O168  1  0.73991118  0.50812297  0.12896956  1
  O  O169  1  0.78131641  0.49160773  0.65721759  1
  O  O170  1  0.74706405  0.98709280  0.12599077  1
  O  O171  1  0.76726038  0.99313487  0.64233004  1
  O  O172  1  0.01021462  0.36764767  0.25301382  1
  O  O173  1  0.01405635  0.38099141  0.77582693  1
  O  O174  1  0.01835146  0.87238629  0.23027510  1
  O  O175  1  0.00073204  0.88469651  0.76811868  1
  O  O176  1  0.53064067  0.40858580  0.26002235  1
  O  O177  1  0.42130656  0.38378435  0.79727069  1
  O  O178  1  0.51657815  0.87771367  0.25116341  1
  O  O179  1  0.52079174  0.88425949  0.74814664  1
  O  O180  1  0.48876484  0.13471994  0.24969186  1
  O  O181  1  0.48306275  0.12382850  0.76255580  1
  O  O182  1  0.49467438  0.61820482  0.23536128  1
  O  O183  1  0.52726692  0.64383778  0.73196890  1
  O  O184  1  0.98232531  0.12609737  0.24729306  1
  O  O185  1  0.98890195  0.11230109  0.74780892  1
  O  O186  1  0.98751763  0.61780915  0.25162617  1
  O  O187  1  0.99107828  0.62748498  0.76451011  1
  O  O188  1  0.35587293  0.22964354  0.00096099  1
  O  O189  1  0.34972117  0.23547609  0.48142925  1
  O  O190  1  0.36892868  0.75921105  0.00295816  1
  O  O191  1  0.36427521  0.73712216  0.50800816  1
  O  O192  1  0.87640799  0.24892549  0.01413504  1
  O  O193  1  0.87198158  0.24965008  0.48867048  1
  O  O194  1  0.86637465  0.75812442  0.00901021  1
  O  O195  1  0.84921602  0.73081266  0.52414943  1
  O  O196  1  0.13438521  0.23475017  0.50244776  1
  O  O197  1  0.12194706  0.23482128  0.99630847  1
  O  O198  1  0.13422482  0.74613234  0.49670592  1
  O  O199  1  0.13368097  0.74046988  1.00198088  1
  O  O200  1  0.60110943  0.23815676  0.57675579  1
  O  O201  1  0.61145888  0.23433858  1.01173621  1
  O  O202  1  0.65202621  0.75826264  0.50584850  1
  O  O203  1  0.63685345  0.74757450  1.00472992  1
  O  O204  1  0.47049509  0.30621535  0.15809405  1
  O  O205  1  0.59143077  0.33463213  0.72320279  1
  O  O206  1  0.49174178  0.73917385  0.11701771  1
  O  O207  1  0.50321994  0.77069925  0.64098955  1
  O  O208  1  0.99031310  0.25241577  0.13614901  1
  O  O209  1  0.98212368  0.23722640  0.62565116  1
  O  O210  1  0.98471640  0.75243117  0.11454895  1
  O  O211  1  0.98178723  0.75341371  0.61937758  1
  O  O212  1  -0.00550112  0.25319092  0.35094763  1
  O  O213  1  0.00594292  0.26355012  0.88871029  1
  O  O214  1  -0.03950673  0.78598531  0.37441445  1
  O  O215  1  -0.00072942  0.76934260  0.88604701  1
  O  O216  1  0.48691669  0.27381783  0.33809612  1
  O  O217  1  0.49297681  0.27892294  0.90770789  1
  O  O218  1  0.50188802  0.76363079  0.38265247  1
  O  O219  1  0.48723233  0.75908225  0.84770646  1
  O  O220  1  0.24615013  0.10119033  0.48278092  1
  O  O221  1  0.23504940  0.12186202  0.99218983  1
  O  O222  1  0.24314079  0.64279456  0.48331748  1
  O  O223  1  0.24273088  0.63163323  0.99714544  1
  O  O224  1  0.75905722  0.11711960  0.47582118  1
  O  O225  1  0.73059888  0.11420729  0.99424331  1
  O  O226  1  0.75989099  0.61859061  0.47101139  1
  O  O227  1  0.74481962  0.63859759  0.99646218  1
  O  O228  1  0.24702881  0.35131576  -0.00460037  1
  O  O229  1  0.23385987  0.35316517  0.48399761  1
  O  O230  1  0.25535947  0.86994836  0.00537145  1
  O  O231  1  0.26024146  0.85811714  0.50437834  1
  O  O232  1  0.75379148  0.36605452  -0.04834338  1
  O  O233  1  0.72481730  0.45469358  0.51875865  1
  O  O234  1  0.75669602  0.87249796  0.00436896  1
  O  O235  1  0.75072799  0.89028575  0.52333541  1
  O  O236  1  0.12101351  0.49034138  0.23246822  1
  O  O237  1  0.12998262  0.48990224  0.75105591  1
  O  O238  1  0.13951668  0.98161934  0.23443019  1
  O  O239  1  0.12444279  0.97884573  0.75888522  1
  O  O240  1  0.64326002  0.49401439  0.23356575  1
  O  O241  1  0.64944789  0.51728261  0.74555559  1
  O  O242  1  0.63694740  0.99314793  0.24520566  1
  O  O243  1  0.63764810  0.99113141  0.75849590  1
  O  O244  1  0.36204028  -0.00081107  0.24463700  1
  O  O245  1  0.38365684  -0.01262024  0.76440790  1
  O  O246  1  0.37004764  0.48751812  0.23247616  1
  O  O247  1  0.40164934  0.55474312  0.75270623  1
  O  O248  1  0.86034806  0.01444257  0.23214884  1
  O  O249  1  0.86469953  -0.00690695  0.76923514  1
  O  O250  1  0.86678992  0.51401640  0.22906317  1
  O  O251  1  0.87520128  0.52107191  0.77262761  1
  O  O252  1  0.11981328  0.38097760  0.35312198  1
  O  O253  1  0.11889087  0.36444500  0.87120743  1
  O  O254  1  0.13593440  0.86272016  0.34716703  1
  O  O255  1  0.11069587  0.87586731  0.88073429  1
  O  O256  1  0.64358609  0.36544977  0.35562631  1
  O  O257  1  0.58041123  0.42502538  0.87348824  1
  O  O258  1  0.62217600  0.87280212  0.35919710  1
  O  O259  1  0.62804647  0.87390572  0.86432155  1
  O  O260  1  0.36470849  0.11565102  0.14365547  1
  O  O261  1  0.36574495  0.10247183  0.65226367  1
  O  O262  1  0.38556440  0.63093456  0.12117940  1
  O  O263  1  0.31514215  0.60786774  0.62922689  1
  O  O264  1  0.86704286  0.13815008  0.13088633  1
  O  O265  1  0.87297508  0.14571986  0.62930894  1
  O  O266  1  0.87226285  0.64126925  0.12895057  1
  O  O267  1  0.87444188  0.63443647  0.64630942  1
  O  O268  1  0.23955937  0.23982826  0.10855323  1
  O  O269  1  0.24665867  0.23823111  0.60787877  1
  O  O270  1  0.25954745  0.75489410  0.10980513  1
  O  O271  1  0.24487556  0.76193874  0.61371618  1
  O  O272  1  0.76067656  0.25415112  0.12787620  1
  O  O273  1  0.76933778  0.25435171  0.62537177  1
  O  O274  1  0.75699704  0.76184122  0.11443051  1
  O  O275  1  0.75667194  0.76826791  0.62922065  1
  O  O276  1  0.23546409  0.21901177  0.38169156  1
  O  O277  1  0.23306274  0.23048281  0.89138171  1
  O  O278  1  0.25906059  0.74521413  0.38099692  1
  O  O279  1  0.24875490  0.75160119  0.88706213  1
  O  O280  1  0.75104084  0.23977798  0.36407983  1
  O  O281  1  0.73764511  0.22614749  0.87516523  1
  O  O282  1  0.74676960  0.73272865  0.36441307  1
  O  O283  1  0.76122933  0.74617674  0.88713075  1
  O  O284  1  0.00867476  0.11202787  -0.00830680  1
  O  O285  1  -0.02058245  0.09716441  0.49333009  1
  O  O286  1  0.01241492  0.61751065  -0.00585018  1
  O  O287  1  0.01595430  0.63979081  0.47548035  1
  O  O288  1  0.50777012  0.11041395  -0.00835292  1
  O  O289  1  0.52082048  0.11518525  0.47921637  1
  O  O290  1  0.51497995  0.63568983  -0.00008600  1
  O  O291  1  0.51322895  0.63325514  0.51092140  1
  O  O292  1  0.49152135  0.37373782  0.57511694  1
  O  O293  1  0.49098421  0.33079145  0.96229745  1
  O  O294  1  0.51271852  0.88207561  0.48605675  1
  O  O295  1  0.48924314  0.87834806  0.99762300  1
  O  O296  1  1.01024117  0.35983849  0.47327419  1
  O  O297  1  1.01230718  0.38730642  0.99075992  1
  O  O298  1  0.96099200  0.87278501  0.50864599  1
  O  O299  1  0.99245538  0.88492238  0.99701177  1
  O  O300  1  0.51627181  0.50615406  0.39851639  1
  O  O301  1  0.52910075  0.48315724  0.87115918  1
  O  O302  1  0.50247231  0.98667526  0.38011108  1
  O  O303  1  0.48792247  0.98980993  0.88753243  1
  O  O304  1  1.00533667  0.48332936  0.36942380  1
  O  O305  1  0.99898071  0.49724435  0.88949700  1
  O  O306  1  0.97744311  0.96257529  0.36496551  1
  O  O307  1  0.99013399  0.99081000  0.88919833  1
  O  O308  1  0.01096472  -0.00510718  0.11702516  1
  O  O309  1  -0.03312859  0.02368295  0.60825915  1
  O  O310  1  0.00478196  0.49629334  0.11244552  1
  O  O311  1  -0.03873464  0.50051878  0.55094996  1
  O  O312  1  0.49349276  -0.00676408  0.10720922  1
  O  O313  1  0.51556287  0.00052424  0.60146570  1
  O  O314  1  0.52161434  0.51278978  0.12248133  1
  O  O315  1  0.49991414  0.42755427  0.62480007  1
  O  O316  1  0.23603866  0.37642924  0.24857341  1
  O  O317  1  0.22571694  0.35900710  0.75300139  1
  O  O318  1  0.25212062  0.87601195  0.23392750  1
  O  O319  1  0.24305755  0.86756342  0.73061851  1
  O  O320  1  0.74726992  0.38950296  0.24323519  1
  O  O321  1  0.74920838  0.39542698  0.76929880  1
  O  O322  1  0.74399135  0.88461454  0.24180143  1
  O  O323  1  0.74352384  0.88322296  0.75246552  1
  O  O324  1  0.25000814  0.11082286  0.25657107  1
  O  O325  1  0.25325425  0.13086742  0.76158753  1
  O  O326  1  0.25668278  0.63302692  0.25954682  1
  O  O327  1  0.25039271  0.62755871  0.77611596  1
  O  O328  1  0.74764195  0.11297419  0.24272263  1
  O  O329  1  0.74290398  0.11115792  0.77038368  1
  O  O330  1  0.75801309  0.61745135  0.24894410  1
  O  O331  1  0.76245266  0.62486755  0.76542323  1
  O  O332  1  0.36110455  0.11141059  0.35510122  1
  O  O333  1  0.36485214  0.11504888  0.86217158  1
  O  O334  1  0.36153741  0.62054623  0.37055826  1
  O  O335  1  0.35757116  0.62302021  0.89498225  1
  O  O336  1  0.85730272  0.12798338  0.34487275  1
  O  O337  1  0.85630858  0.11214294  0.89223993  1
  O  O338  1  0.86816025  0.63063693  0.35223181  1
  O  O339  1  0.87055659  0.62595496  0.87655146  1
  O  O340  1  0.12209081  0.38581685  0.13041865  1
  O  O341  1  0.10193012  0.36384977  0.64758553  1
  O  O342  1  0.13827182  0.88175721  0.11941499  1
  O  O343  1  0.11199785  0.87098576  0.63724272  1
  O  O344  1  0.62236876  0.39164105  0.11516297  1
  O  O345  1  0.69347461  0.39634305  0.56224460  1
  O  O346  1  0.63220521  0.87860347  0.13207514  1
  O  O347  1  0.64575964  0.87798089  0.64110436  1
  O  O348  1  0.11876249  0.26372576  0.23776864  1
  O  O349  1  0.11879283  0.23915526  0.76620800  1
  O  O350  1  0.12827301  0.76068979  0.22471430  1
  O  O351  1  0.12184718  0.77336704  0.75857829  1
  O  O352  1  0.60583370  0.26694566  0.22842643  1
  O  O353  1  0.57572114  0.27234652  0.75602565  1
  O  O354  1  0.63273637  0.76436534  0.24003911  1
  O  O355  1  0.61954000  0.76550217  0.74987004  1
  O  O356  1  0.37188124  0.23031617  0.25302702  1
  O  O357  1  0.37636986  0.23981296  0.73422975  1
  O  O358  1  0.37170334  0.75106968  0.22950245  1
  O  O359  1  0.38257612  0.72787870  0.74001208  1
  O  O360  1  0.87927685  0.24116294  0.23476530  1
  O  O361  1  0.86666411  0.26306436  0.78097883  1
  O  O362  1  0.87199744  0.74144315  0.23427913  1
  O  O363  1  0.87463528  0.74135140  0.74652739  1
  O  O364  1  0.49194543  0.58089092  0.55784764  1
  O  O365  1  0.38628746  0.47885569  1.01376110  1
  O  O366  1  0.39863871  1.02372293  0.49459906  1
  O  O367  1  0.38128859  0.99248915  0.99259081  1
  O  O368  1  0.89878374  0.50623507  0.51364969  1
  O  O369  1  0.88178039  0.50385980  0.99608577  1
  O  O370  1  0.93093889  1.03562948  0.52958800  1
  O  O371  1  0.87993520  0.99305503  1.00052190  1
  O  O372  1  0.11759419  0.00469992  0.00713251  1
  O  O373  1  0.10908802  -0.04998084  0.49116640  1
  O  O374  1  0.12061184  0.50434514  0.00938592  1
  O  O375  1  0.14295786  0.52826355  0.49984638  1
  O  O376  1  0.60653884  -0.00568815  0.00127963  1
  O  O377  1  0.62520299  -0.00426566  0.48532358  1
  O  O378  1  0.63649780  0.51773779  0.00969796  1
  O  O379  1  0.56550150  0.48209733  0.45177036  1
  O  O380  1  0.39722593  0.41687652  0.05640108  1
  O  O381  1  0.32874123  0.41098979  0.62439136  1
  O  O382  1  0.36863491  0.86773072  0.11310484  1
  O  O383  1  0.37046169  0.88002307  0.63043995  1
  O  O384  1  0.87547004  0.36339273  0.12216861  1
  O  O385  1  0.88492946  0.35172311  0.62109698  1
  O  O386  1  0.86559044  0.86430702  0.11509322  1
  O  O387  1  0.86329878  0.86082398  0.64151427  1
  O  O388  1  0.12906296  0.09717162  0.37446248  1
  O  O389  1  0.12648221  0.12460322  0.88229394  1
  O  O390  1  0.14392592  0.62465143  0.37417651  1
  O  O391  1  0.13787611  0.62457106  0.88881326  1
  O  O392  1  0.64240675  0.12892584  0.35919805  1
  O  O393  1  0.62938615  0.11460849  0.89025142  1
  O  O394  1  0.63951712  0.61827016  0.36127065  1
  O  O395  1  0.64065981  0.62529908  0.88552627  1
