# generated using pymatgen
data_V35Zn35O128
_symmetry_space_group_name_H-M   'P 1'
_cell_length_a   16.98626959
_cell_length_b   17.03209835
_cell_length_c   16.92793488
_cell_angle_alpha   90.32252869
_cell_angle_beta   90.20620445
_cell_angle_gamma   90.49079695
_symmetry_Int_Tables_number   1
_chemical_formula_structural   V35Zn35O128
_chemical_formula_sum   'V70 Zn70 O256'
_cell_volume   4897.16170661
_cell_formula_units_Z   2
loop_
 _symmetry_equiv_pos_site_id
 _symmetry_equiv_pos_as_xyz
  1  'x, y, z'
loop_
 _atom_site_type_symbol
 _atom_site_label
 _atom_site_symmetry_multiplicity
 _atom_site_fract_x
 _atom_site_fract_y
 _atom_site_fract_z
 _atom_site_occupancy
  V  V0  1  0.12074685  0.51917377  0.13950540  1
  V  V1  1  0.12683468  0.75058005  0.87861922  1
  V  V2  1  0.25261359  0.63710094  0.36198475  1
  V  V3  1  0.49920762  0.24108183  0.75689318  1
  V  V4  1  0.74173866  0.88767860  0.13228969  1
  V  V5  1  0.00591353  0.00503431  0.50516936  1
  V  V6  1  -0.00274063  0.00585221  -0.00370162  1
  V  V7  1  0.12047351  0.13414090  0.50611952  1
  V  V8  1  -0.00483958  0.12309279  0.12648480  1
  V  V9  1  0.23931897  0.77239927  0.50481845  1
  V  V10  1  -0.02572001  0.62081827  0.62685022  1
  V  V11  1  0.11521181  0.86758100  0.24670810  1
  V  V12  1  0.87573335  0.36725633  0.50039713  1
  V  V13  1  0.61787278  0.74539222  0.87173721  1
  V  V14  1  0.00769185  0.49920748  0.50023941  1
  V  V15  1  0.00873932  0.53039656  -0.00266048  1
  V  V16  1  0.27234190  0.76279063  -0.01027309  1
  V  V17  1  0.11982452  0.00179096  0.11820361  1
  V  V18  1  0.87587709  0.87701751  -0.00508416  1
  V  V19  1  0.61591640  0.62189805  -0.00429177  1
  V  V20  1  0.63805650  0.24648991  0.86908403  1
  V  V21  1  0.88765119  0.62754932  0.24961434  1
  V  V22  1  0.24207004  0.13071646  0.37249606  1
  V  V23  1  0.89160120  0.38902977  -0.00702170  1
  V  V24  1  0.25465573  0.87016372  0.11882300  1
  V  V25  1  0.24240391  0.00125032  0.24991233  1
  V  V26  1  0.50239321  0.10409929  0.63245080  1
  V  V27  1  0.63410139  0.25629694  0.41134711  1
  V  V28  1  0.00702824  0.25110426  0.73321394  1
  V  V29  1  0.76208103  0.84802274  0.61428917  1
  V  V30  1  -0.00469202  0.88329997  0.36937122  1
  V  V31  1  0.12914546  0.39805692  0.71943948  1
  V  V32  1  0.50389832  0.47904121  0.00053102  1
  V  V33  1  0.38171983  0.49548572  0.87983346  1
  V  V34  1  0.11165473  0.75474046  0.37381366  1
  V  V35  1  0.36995846  0.76264223  0.62351114  1
  V  V36  1  0.37855852  0.00926602  0.38782484  1
  V  V37  1  -0.00097469  0.87771935  0.87268212  1
  V  V38  1  0.21290296  0.36717864  0.12333381  1
  V  V39  1  0.38245774  0.89468177  0.51143778  1
  V  V40  1  0.37130659  0.61905900  0.74112732  1
  V  V41  1  0.76199338  0.25787510  -0.00201378  1
  V  V42  1  0.12509761  0.63147347  0.50972104  1
  V  V43  1  0.75962308  0.35771025  0.62767710  1
  V  V44  1  0.50005446  0.74452006  0.74206561  1
  V  V45  1  0.26275871  0.12590692  0.89952051  1
  V  V46  1  0.37721469  0.24867233  0.62443314  1
  V  V47  1  0.77278817  0.10375279  0.86688251  1
  V  V48  1  0.63553183  0.87117801  0.75655782  1
  V  V49  1  -0.01204515  0.73210036  0.75099982  1
  V  V50  1  0.38362581  0.11935968  0.23501425  1
  V  V51  1  -0.00129185  0.26044994  0.25492256  1
  V  V52  1  0.12567368  0.26482739  0.36841459  1
  V  V53  1  0.11995656  0.87363338  0.72515062  1
  V  V54  1  0.63785636  0.50275295  0.12351108  1
  V  V55  1  0.64848152  0.10830581  0.50760299  1
  V  V56  1  0.88893897  0.74911946  0.13061757  1
  V  V57  1  0.86258557  0.11835622  0.25223812  1
  V  V58  1  0.41116265  0.27346265  0.13005237  1
  V  V59  1  0.64169228  -0.00944342  0.63402840  1
  V  V60  1  0.62127539  0.10799121  -0.00028089  1
  V  V61  1  0.75140841  0.74771205  -0.00152315  1
  V  V62  1  0.74199175  0.63885570  0.37675040  1
  V  V63  1  0.76159459  0.61625728  0.87008262  1
  V  V64  1  0.63428206  0.34943744  0.22504162  1
  V  V65  1  0.86557436  0.00256151  0.37589640  1
  V  V66  1  0.87523828  0.49939518  0.37669993  1
  V  V67  1  0.62166536  0.37990888  0.75009198  1
  V  V68  1  0.76886595  0.50323798  0.74182188  1
  V  V69  1  0.25076457  0.62048795  0.88020823  1
  Zn  Zn70  1  0.38237309  -0.00261290  0.88137744  1
  Zn  Zn71  1  0.39633429  0.61313239  0.24182366  1
  Zn  Zn72  1  0.62607985  0.63500343  0.50923393  1
  Zn  Zn73  1  0.26755013  0.25652222  0.00604109  1
  Zn  Zn74  1  0.75604921  0.49348691  0.24873825  1
  Zn  Zn75  1  0.86773504  0.26566131  0.13805077  1
  Zn  Zn76  1  0.18257715  0.18628665  0.18674227  1
  Zn  Zn77  1  0.18835004  0.19847280  0.69546256  1
  Zn  Zn78  1  0.24070609  0.66105167  0.15430073  1
  Zn  Zn79  1  0.18926498  0.69648599  0.69428923  1
  Zn  Zn80  1  0.69060138  0.17202179  0.17170340  1
  Zn  Zn81  1  0.69821743  0.17941607  0.69505592  1
  Zn  Zn82  1  0.71731749  0.66683739  0.17232769  1
  Zn  Zn83  1  0.68739319  0.67716114  0.68143102  1
  Zn  Zn84  1  0.31703515  0.30580365  0.29514472  1
  Zn  Zn85  1  0.18597007  0.30495467  0.84216179  1
  Zn  Zn86  1  0.30016566  0.82885363  0.32370948  1
  Zn  Zn87  1  0.30809747  0.82456484  0.79701376  1
  Zn  Zn88  1  0.80507980  0.30678150  0.31941811  1
  Zn  Zn89  1  0.82142740  0.32127369  0.81586424  1
  Zn  Zn90  1  0.81134281  0.81632066  0.30988460  1
  Zn  Zn91  1  0.81164072  0.80662252  0.81118967  1
  Zn  Zn92  1  0.21643931  0.44410031  0.30979023  1
  Zn  Zn93  1  0.17920630  0.44080388  0.94947032  1
  Zn  Zn94  1  0.17864372  0.94598236  0.43767687  1
  Zn  Zn95  1  0.18440834  0.94019201  0.92876596  1
  Zn  Zn96  1  0.69928797  0.43810611  0.43813650  1
  Zn  Zn97  1  0.69357095  0.43432007  0.93188266  1
  Zn  Zn98  1  0.68916767  0.93306222  0.44680437  1
  Zn  Zn99  1  0.69271929  0.93581315  0.93613769  1
  Zn  Zn100  1  0.30866873  0.05020487  0.05183814  1
  Zn  Zn101  1  0.30820257  0.09739967  0.56371195  1
  Zn  Zn102  1  0.32384685  0.52478047  0.07955751  1
  Zn  Zn103  1  0.31988737  0.58682383  0.53903378  1
  Zn  Zn104  1  0.81072858  0.06755365  0.05433264  1
  Zn  Zn105  1  0.82294713  0.03502573  0.57087377  1
  Zn  Zn106  1  0.81889822  0.56431834  0.05647120  1
  Zn  Zn107  1  0.80433459  0.55839381  0.55443285  1
  Zn  Zn108  1  0.46510859  0.43827841  0.21296611  1
  Zn  Zn109  1  0.33664491  0.40012643  0.73602906  1
  Zn  Zn110  1  0.43073562  0.92999814  0.20209613  1
  Zn  Zn111  1  0.45650439  0.94633452  0.73923252  1
  Zn  Zn112  1  0.93693489  0.44339974  0.17924553  1
  Zn  Zn113  1  0.94416390  0.43436289  0.68703222  1
  Zn  Zn114  1  0.92804438  0.93823108  0.18540536  1
  Zn  Zn115  1  0.94822479  0.92224772  0.67928405  1
  Zn  Zn116  1  0.05732817  0.06714221  0.30981292  1
  Zn  Zn117  1  0.05575019  0.05657834  0.79677351  1
  Zn  Zn118  1  0.06712003  0.56297837  0.31738249  1
  Zn  Zn119  1  0.07098520  0.55308589  0.80843030  1
  Zn  Zn120  1  0.54992542  0.10330789  0.33625396  1
  Zn  Zn121  1  0.56985728  0.06518249  0.82698956  1
  Zn  Zn122  1  0.55996743  0.56395256  0.30963148  1
  Zn  Zn123  1  0.56044010  0.56187663  0.80729662  1
  Zn  Zn124  1  0.46388681  0.19057399  0.45902112  1
  Zn  Zn125  1  0.44143528  0.19347300  0.94333868  1
  Zn  Zn126  1  0.42785907  0.72501912  0.41205251  1
  Zn  Zn127  1  0.43732435  0.68483809  0.93375233  1
  Zn  Zn128  1  0.93922443  0.18503238  0.43315604  1
  Zn  Zn129  1  0.93261599  0.21148356  0.89929061  1
  Zn  Zn130  1  0.92564185  0.69077282  0.43886019  1
  Zn  Zn131  1  0.94010956  0.68951873  0.93890812  1
  Zn  Zn132  1  0.03878951  0.31290777  0.06295003  1
  Zn  Zn133  1  0.06203491  0.31256031  0.56001674  1
  Zn  Zn134  1  0.06654179  0.81207813  0.05881948  1
  Zn  Zn135  1  0.02436201  0.80326781  0.55048373  1
  Zn  Zn136  1  0.57873787  0.30855763  0.05057287  1
  Zn  Zn137  1  0.57808398  0.29565393  0.58424322  1
  Zn  Zn138  1  0.57982228  0.79853169  0.07784419  1
  Zn  Zn139  1  0.55495251  0.81903226  0.56873486  1
  O  O140  1  0.10943052  0.11006762  0.13315392  1
  O  O141  1  0.13168494  0.14403063  0.60377150  1
  O  O142  1  0.13607366  0.61628065  0.13311280  1
  O  O143  1  0.13556197  0.63350159  0.61058907  1
  O  O144  1  0.63651274  0.10823424  0.09989144  1
  O  O145  1  0.63368806  0.10137156  0.63302826  1
  O  O146  1  0.63543994  0.61392466  0.10752389  1
  O  O147  1  0.60760123  0.63682379  0.61706186  1
  O  O148  1  0.31777532  0.40109717  0.34984617  1
  O  O149  1  0.36610756  0.40167064  0.85472240  1
  O  O150  1  0.35877928  0.90195905  0.39666934  1
  O  O151  1  0.36190815  0.92063088  0.79619938  1
  O  O152  1  0.86224994  0.38594398  0.39008014  1
  O  O153  1  0.85643920  0.39507617  0.89834360  1
  O  O154  1  0.88461207  0.89109350  0.36209057  1
  O  O155  1  0.88617897  0.86196738  0.88411324  1
  O  O156  1  0.24335483  0.01081599  0.36343177  1
  O  O157  1  0.26893860  0.01292429  0.91522103  1
  O  O158  1  0.24222501  0.53888305  0.37267406  1
  O  O159  1  0.26266116  0.51926451  0.89491177  1
  O  O160  1  0.76804624  -0.00999088  0.38526570  1
  O  O161  1  0.75982006  0.00419863  0.87439492  1
  O  O162  1  0.76182078  0.50949483  0.37428269  1
  O  O163  1  0.74779879  0.51210188  0.86601008  1
  O  O164  1  0.22570769  0.48187262  0.12015533  1
  O  O165  1  0.28738348  0.46766914  0.53795456  1
  O  O166  1  0.23819386  0.98890134  0.12824216  1
  O  O167  1  0.24457692  1.01206446  0.63544878  1
  O  O168  1  0.74133842  0.50115310  0.11660268  1
  O  O169  1  0.75152141  0.49963812  0.63973985  1
  O  O170  1  0.76391359  0.98399925  0.11839123  1
  O  O171  1  0.74272322  0.98106823  0.63563030  1
  O  O172  1  -0.01324196  0.35726017  0.24473759  1
  O  O173  1  0.02172761  0.37234406  0.73678510  1
  O  O174  1  0.00644062  0.88706726  0.25544332  1
  O  O175  1  -0.00085478  0.85544052  0.75782464  1
  O  O176  1  0.54901284  0.37810738  0.26813934  1
  O  O177  1  0.52239549  0.35520970  0.74335987  1
  O  O178  1  0.46462979  0.84768100  0.27610499  1
  O  O179  1  0.52433014  0.85135470  0.74260258  1
  O  O180  1  0.48259573  0.10708052  0.24585109  1
  O  O181  1  0.52326053  0.13617666  0.74007162  1
  O  O182  1  0.50775427  0.67383066  0.25345677  1
  O  O183  1  0.48366811  0.63357557  0.75370036  1
  O  O184  1  0.98828242  0.13122063  0.24216459  1
  O  O185  1  1.01676247  0.15275556  0.76015910  1
  O  O186  1  0.98602679  0.62397291  0.25940448  1
  O  O187  1  1.00026373  0.62377105  0.74048221  1
  O  O188  1  0.38432596  0.24816001  0.03123202  1
  O  O189  1  0.38704629  0.23697276  0.52208683  1
  O  O190  1  0.37157794  0.76543143  -0.01421371  1
  O  O191  1  0.36212229  0.77722829  0.50032181  1
  O  O192  1  0.87057827  0.26533302  -0.01222807  1
  O  O193  1  0.88610533  0.26972064  0.48972567  1
  O  O194  1  0.86825596  0.75495728  0.00908632  1
  O  O195  1  0.92224107  0.76734054  0.51554095  1
  O  O196  1  0.11249681  0.24323319  0.47842323  1
  O  O197  1  0.08580907  0.23386597  0.98471463  1
  O  O198  1  0.12272934  0.74942548  0.49420862  1
  O  O199  1  0.12939071  0.75605797  0.98202902  1
  O  O200  1  0.63714690  0.22365145  0.51398924  1
  O  O201  1  0.64324903  0.24196222  0.98630733  1
  O  O202  1  0.58183501  0.74590392  0.47849400  1
  O  O203  1  0.63108656  0.74156647  0.99155574  1
  O  O204  1  0.50859328  0.25937047  0.12801065  1
  O  O205  1  0.49706422  0.23569515  0.63688874  1
  O  O206  1  0.50188557  0.74572486  0.14009362  1
  O  O207  1  0.47942616  0.75229623  0.62802716  1
  O  O208  1  0.99093342  0.23787764  0.13686067  1
  O  O209  1  0.99351013  0.25168307  0.63328536  1
  O  O210  1  0.98644713  0.75616239  0.12054401  1
  O  O211  1  0.99977297  0.72896271  0.64397271  1
  O  O212  1  0.00857849  0.24908941  0.36181478  1
  O  O213  1  0.05180262  0.22812581  0.91498757  1
  O  O214  1  0.00648499  0.76704708  0.37741997  1
  O  O215  1  0.00794783  0.75111162  0.86867653  1
  O  O216  1  0.53822239  0.21563488  0.37796997  1
  O  O217  1  0.51888139  0.24087459  0.86304037  1
  O  O218  1  0.53945773  0.75844370  0.41037404  1
  O  O219  1  0.51233271  0.74503581  0.86589427  1
  O  O220  1  0.23280126  0.12691878  0.48299546  1
  O  O221  1  0.24754179  0.13400519  1.00436115  1
  O  O222  1  0.24244165  0.64954012  0.48606804  1
  O  O223  1  0.25939053  0.65323855  0.98229544  1
  O  O224  1  0.74755354  0.10827170  0.52339119  1
  O  O225  1  0.74775652  0.13149126  0.98340553  1
  O  O226  1  0.74201379  0.62138319  0.48330808  1
  O  O227  1  0.74304144  0.62933921  0.98787835  1
  O  O228  1  0.24332674  0.37209699  0.01808287  1
  O  O229  1  0.32196638  0.41987274  0.49338811  1
  O  O230  1  0.24724482  0.87161925  0.00848706  1
  O  O231  1  0.23853393  0.87451079  0.50349438  1
  O  O232  1  0.74722984  0.35893763  0.00059187  1
  O  O233  1  0.76262905  0.37918884  0.51808230  1
  O  O234  1  0.75949588  0.86327395  -0.00125251  1
  O  O235  1  0.74111106  0.86258407  0.51511898  1
  O  O236  1  0.12842450  0.49925480  0.24641957  1
  O  O237  1  0.12815629  0.49927001  0.72858951  1
  O  O238  1  0.12913882  0.99407327  0.24027750  1
  O  O239  1  0.10562197  0.97318082  0.74024914  1
  O  O240  1  0.63049782  0.51142084  0.22508313  1
  O  O241  1  0.62769826  0.48263040  0.75714471  1
  O  O242  1  0.60515973  0.95036217  0.29720710  1
  O  O243  1  0.62979763  0.97521398  0.74908569  1
  O  O244  1  0.36138641  0.00374324  0.26477536  1
  O  O245  1  0.27157226  0.00885095  0.70406593  1
  O  O246  1  0.45812218  0.52729200  0.27805898  1
  O  O247  1  0.37197851  0.51564810  0.75731474  1
  O  O248  1  0.87611380  0.01078853  0.25997946  1
  O  O249  1  0.89769356  0.02807730  0.72605583  1
  O  O250  1  0.87638565  0.50608267  0.25779704  1
  O  O251  1  0.86688824  0.49781103  0.74885188  1
  O  O252  1  0.13608910  0.36150221  0.36895975  1
  O  O253  1  0.12688920  0.39667551  0.86078736  1
  O  O254  1  0.11620781  0.87570083  0.36408032  1
  O  O255  1  0.11376896  0.86806006  0.86754032  1
  O  O256  1  0.62298708  0.35441495  0.42310579  1
  O  O257  1  0.64013094  0.36077461  0.85849945  1
  O  O258  1  0.61305458  0.90337823  0.35431608  1
  O  O259  1  0.63761435  0.85830242  0.86375055  1
  O  O260  1  0.36985225  0.10447322  0.13744626  1
  O  O261  1  0.40216096  0.11088520  0.63091903  1
  O  O262  1  0.34256235  0.61402242  0.14386565  1
  O  O263  1  0.36295440  0.63046791  0.63787393  1
  O  O264  1  0.88195777  0.11876219  0.13764741  1
  O  O265  1  0.88139227  0.07833826  0.67213650  1
  O  O266  1  0.86403503  0.64167534  0.13245632  1
  O  O267  1  0.87718342  0.62349891  0.62188683  1
  O  O268  1  0.23342145  0.26016351  0.11923512  1
  O  O269  1  0.28449430  0.20209613  0.63747094  1
  O  O270  1  0.24490042  0.76328281  0.10210364  1
  O  O271  1  0.26101925  0.74670983  0.61434564  1
  O  O272  1  0.76148418  0.23542514  0.10129761  1
  O  O273  1  0.76175780  0.25989972  0.63702672  1
  O  O274  1  0.74974125  0.75695200  0.10977624  1
  O  O275  1  0.75687410  0.74911251  0.62633798  1
  O  O276  1  0.23412903  0.23923598  0.35450115  1
  O  O277  1  0.25170040  0.23426360  0.89342779  1
  O  O278  1  0.23030259  0.76060264  0.38604371  1
  O  O279  1  0.24817869  0.76250966  0.88026638  1
  O  O280  1  0.72415617  0.24240770  0.37021940  1
  O  O281  1  0.75258171  0.24596981  0.87984973  1
  O  O282  1  0.75771873  0.73807608  0.37121650  1
  O  O283  1  0.74253054  0.73776640  0.88184052  1
  O  O284  1  -0.01270112  0.10786781  0.01282351  1
  O  O285  1  0.01081966  0.11902355  0.49359216  1
  O  O286  1  -0.00031750  0.62878666  0.01303105  1
  O  O287  1  0.00340552  0.62081159  0.51568972  1
  O  O288  1  0.52435398  0.13328476  -0.00992961  1
  O  O289  1  0.52533324  0.11698491  0.52866308  1
  O  O290  1  0.51339788  0.62102191  -0.00728652  1
  O  O291  1  0.47197565  0.62613485  0.48338322  1
  O  O292  1  0.50047866  0.38513009  0.53063643  1
  O  O293  1  0.51198627  0.38168489  0.98921602  1
  O  O294  1  0.48067393  0.88861940  0.50775055  1
  O  O295  1  0.46449259  0.95265268  1.03923009  1
  O  O296  1  0.98845138  0.39230414  0.50884818  1
  O  O297  1  0.99207033  0.37985693  0.98428053  1
  O  O298  1  1.01308324  0.89901459  0.47933803  1
  O  O299  1  0.99348373  0.87865176  0.99130957  1
  O  O300  1  0.54927219  0.49976262  0.41951026  1
  O  O301  1  0.48903795  0.50551216  0.88331751  1
  O  O302  1  0.47620424  1.01739050  0.38383496  1
  O  O303  1  0.48744598  0.99678527  0.83971149  1
  O  O304  1  0.98816616  0.50994520  0.39109564  1
  O  O305  1  1.00842464  0.52456756  0.89657137  1
  O  O306  1  0.99291253  0.99825654  0.37598910  1
  O  O307  1  1.00597876  0.98677030  0.88189355  1
  O  O308  1  0.00249185  0.00189418  0.11850673  1
  O  O309  1  -0.00290707  -0.00579724  0.60295588  1
  O  O310  1  0.01538990  0.50690337  0.12548397  1
  O  O311  1  -0.00771827  0.51433072  0.61392202  1
  O  O312  1  0.48570935  -0.01826333  0.11022875  1
  O  O313  1  0.51468968  0.00125771  0.64872114  1
  O  O314  1  0.51794879  0.49359345  0.10391833  1
  O  O315  1  0.48398088  0.44393853  0.57127750  1
  O  O316  1  0.24477488  0.36884649  0.22323807  1
  O  O317  1  0.22981920  0.36878042  0.74715591  1
  O  O318  1  0.23706812  0.88303171  0.24068347  1
  O  O319  1  0.21845227  0.85511556  0.73134786  1
  O  O320  1  0.72860054  0.37988699  0.26609856  1
  O  O321  1  0.75418914  0.38592110  0.74180109  1
  O  O322  1  0.74992219  0.87048736  0.23129341  1
  O  O323  1  0.73853299  0.85623302  0.73951302  1
  O  O324  1  0.25215714  0.11402709  0.25033650  1
  O  O325  1  0.21882735  0.12243243  0.78866137  1
  O  O326  1  0.22764251  0.65591523  0.26759638  1
  O  O327  1  0.26529524  0.63933781  0.76627220  1
  O  O328  1  0.76466328  0.12492210  0.24399974  1
  O  O329  1  0.76097905  0.12419851  0.76751860  1
  O  O330  1  0.76511787  0.61805848  0.26014885  1
  O  O331  1  0.74763609  0.61310574  0.75987309  1
  O  O332  1  0.35870919  0.11895709  0.36646951  1
  O  O333  1  0.36637301  0.12501626  0.88707222  1
  O  O334  1  0.35743624  0.65529430  0.35275595  1
  O  O335  1  0.36856240  0.61943576  0.86670106  1
  O  O336  1  0.87662577  0.11491477  0.36311439  1
  O  O337  1  0.87196168  0.11761870  0.88485496  1
  O  O338  1  0.86831336  0.62029844  0.37018311  1
  O  O339  1  0.85893754  0.62940023  0.88131985  1
  O  O340  1  0.11242234  0.37339542  0.12614457  1
  O  O341  1  0.13283591  0.37982254  0.61889082  1
  O  O342  1  0.12731909  0.88174349  0.13051606  1
  O  O343  1  0.09353818  0.85706058  0.62903936  1
  O  O344  1  0.63096306  0.38573522  0.12395563  1
  O  O345  1  0.64730185  0.36879923  0.63898683  1
  O  O346  1  0.64118618  0.88236075  0.11117447  1
  O  O347  1  0.63452482  0.87341507  0.63377865  1
  O  O348  1  0.10747027  0.24582567  0.25562725  1
  O  O349  1  0.11705888  0.26775937  0.74777875  1
  O  O350  1  0.12057795  0.76694087  0.25903434  1
  O  O351  1  0.11044046  0.75192403  0.76082843  1
  O  O352  1  0.63393902  0.25002540  0.22858308  1
  O  O353  1  0.63110676  0.25474015  0.75479213  1
  O  O354  1  0.54381121  0.72927227  0.21063683  1
  O  O355  1  0.62048359  0.74559926  0.75657240  1
  O  O356  1  0.37460076  0.23084804  0.22864284  1
  O  O357  1  0.40035471  0.24165970  0.74955866  1
  O  O358  1  0.40932742  0.79176613  0.29214004  1
  O  O359  1  0.38162932  0.74653606  0.74172761  1
  O  O360  1  0.88001323  0.23840256  0.25627912  1
  O  O361  1  0.91954912  0.26770472  0.79492653  1
  O  O362  1  0.87385140  0.74622799  0.23585533  1
  O  O363  1  0.88991501  0.74016043  0.76144148  1
  O  O364  1  0.42629687  0.56427928  0.48814991  1
  O  O365  1  0.39213785  0.49600199  0.99261752  1
  O  O366  1  0.35993717  1.00527824  0.49835831  1
  O  O367  1  0.39659270  0.98506155  1.00464711  1
  O  O368  1  0.88117851  0.49555806  0.49276312  1
  O  O369  1  0.89861626  0.49793893  1.01379016  1
  O  O370  1  0.89238479  1.01151434  0.48400170  1
  O  O371  1  0.88399996  0.98264072  1.00582587  1
  O  O372  1  0.11130496  -0.00894312  0.01029790  1
  O  O373  1  0.11574197  0.02113980  0.49525042  1
  O  O374  1  0.11169367  0.50612972  0.01697930  1
  O  O375  1  0.10682517  0.51482095  0.49391359  1
  O  O376  1  0.62000176  0.00949842  -0.02457578  1
  O  O377  1  0.62842745  -0.00424322  0.52545422  1
  O  O378  1  0.61952586  0.50282568  -0.00416354  1
  O  O379  1  0.60321151  0.51277350  0.47360547  1
  O  O380  1  0.39772451  0.37264425  0.14578695  1
  O  O381  1  0.36705802  0.34679732  0.64033516  1
  O  O382  1  0.35172690  0.87606395  0.13498623  1
  O  O383  1  0.36794498  0.87403794  0.61534228  1
  O  O384  1  0.88154530  0.37342474  0.10498044  1
  O  O385  1  0.86795665  0.37916434  0.61523878  1
  O  O386  1  0.86710837  0.86145109  0.11730584  1
  O  O387  1  0.85888742  0.87756903  0.62775750  1
  O  O388  1  0.12910295  0.13278169  0.37390347  1
  O  O389  1  0.16004073  0.10607912  0.84703295  1
  O  O390  1  0.11989182  0.64233248  0.38724048  1
  O  O391  1  0.14672933  0.63411175  0.86495803  1
  O  O392  1  0.63884183  0.09823044  0.40662716  1
  O  O393  1  0.64577570  0.13298386  0.87612900  1
  O  O394  1  0.64169258  0.62638459  0.36106607  1
  O  O395  1  0.63274281  0.62972205  0.87800464  1
