# generated using pymatgen
data_V35Zn35O128
_symmetry_space_group_name_H-M   'P 1'
_cell_length_a   16.90096931
_cell_length_b   16.87363321
_cell_length_c   16.87985912
_cell_angle_alpha   89.68610870
_cell_angle_beta   90.25510873
_cell_angle_gamma   89.58082858
_symmetry_Int_Tables_number   1
_chemical_formula_structural   V35Zn35O128
_chemical_formula_sum   'V70 Zn70 O256'
_cell_volume   4813.56136165
_cell_formula_units_Z   2
loop_
 _symmetry_equiv_pos_site_id
 _symmetry_equiv_pos_as_xyz
  1  'x, y, z'
loop_
 _atom_site_type_symbol
 _atom_site_label
 _atom_site_symmetry_multiplicity
 _atom_site_fract_x
 _atom_site_fract_y
 _atom_site_fract_z
 _atom_site_occupancy
  V  V0  1  0.26302083  0.25130396  -0.00567052  1
  V  V1  1  0.75348119  0.11970864  0.38523211  1
  V  V2  1  0.62916958  0.37439279  0.24637028  1
  V  V3  1  0.89219252  0.23873485  0.12877331  1
  V  V4  1  0.23967800  0.25015008  0.50124031  1
  V  V5  1  0.00592066  0.00510894  0.49746281  1
  V  V6  1  0.49944692  0.49904698  0.49649735  1
  V  V7  1  0.62796817  0.25822663  0.87652821  1
  V  V8  1  0.62237549  0.76150067  0.37069843  1
  V  V9  1  0.87817271  0.24447488  0.61726660  1
  V  V10  1  -0.00905384  0.87073745  0.38075301  1
  V  V11  1  0.87877828  0.85959943  0.52237977  1
  V  V12  1  0.87717226  0.62973229  0.74763518  1
  V  V13  1  0.12314656  0.13197316  -0.01077053  1
  V  V14  1  0.88054704  0.38155148  -0.00216672  1
  V  V15  1  -0.00287618  -0.00154302  -0.01743653  1
  V  V16  1  0.00026551  0.25669779  0.75559179  1
  V  V17  1  0.25828885  0.12411813  0.37203125  1
  V  V18  1  0.63067549  0.50261887  0.12415686  1
  V  V19  1  0.62348593  -0.00189305  0.13053269  1
  V  V20  1  0.13648026  0.73874222  0.37276326  1
  V  V21  1  0.75066670  0.76003594  -0.00651761  1
  V  V22  1  0.24538776  0.50803955  0.27487375  1
  V  V23  1  0.37478479  0.37399910  0.50295677  1
  V  V24  1  0.39031754  0.86091304  0.00461581  1
  V  V25  1  0.37623072  0.25775246  0.14475632  1
  V  V26  1  0.39030609  0.89240693  0.48488669  1
  V  V27  1  0.87773129  0.48753457  0.86445190  1
  V  V28  1  0.63038860  0.48743251  0.63556605  1
  V  V29  1  -0.01188826  0.74426141  0.23796558  1
  V  V30  1  0.50442480  0.63027015  0.63279169  1
  V  V31  1  0.37745912  0.00132717  0.89619108  1
  V  V32  1  0.23592715  0.38132984  0.13019919  1
  V  V33  1  0.75242058  0.27149309  0.49630736  1
  V  V34  1  0.50422412  0.25087793  0.74435198  1
  V  V35  1  0.12821176  0.26322787  0.87197823  1
  V  V36  1  0.49391606  0.76640473  0.24589928  1
  V  V37  1  0.24856282  0.86706926  0.12121038  1
  V  V38  1  -0.00662925  0.37166709  0.36840681  1
  V  V39  1  0.78039065  0.01071969  0.75215249  1
  V  V40  1  0.61290650  0.12601221  0.00064584  1
  V  V41  1  0.00144640  0.50929561  0.50201747  1
  V  V42  1  0.35997017  0.50605783  0.86477341  1
  V  V43  1  0.61593133  0.62888273  -0.00663514  1
  V  V44  1  0.13662169  0.38402276  0.72800838  1
  V  V45  1  0.36626269  0.12072748  0.75679784  1
  V  V46  1  0.12228434  0.87753765  0.25190979  1
  V  V47  1  0.72923168  0.87589989  0.63139988  1
  V  V48  1  0.49135799  0.13023953  0.14260205  1
  V  V49  1  0.62567211  0.25098646  0.37538544  1
  V  V50  1  0.26192372  0.00665452  0.24999071  1
  V  V51  1  0.74733779  0.24201078  0.01456789  1
  V  V52  1  0.11417285  0.01343215  0.12812109  1
  V  V53  1  0.49347585  0.37383458  0.36578280  1
  V  V54  1  0.25897087  0.75265442  0.51031609  1
  V  V55  1  0.15228493  0.89416125  0.76729721  1
  V  V56  1  0.01183823  0.12700902  0.62790812  1
  V  V57  1  0.74904765  -0.00759937  0.25248583  1
  V  V58  1  0.73736621  0.61216864  0.86853841  1
  V  V59  1  0.48854381  0.37556607  0.87597933  1
  V  V60  1  0.48515106  0.49726670  0.00729319  1
  V  V61  1  0.11897799  0.62084317  -0.02037926  1
  V  V62  1  0.35411830  0.62559294  0.74343948  1
  V  V63  1  0.63678247  0.62573327  0.49651173  1
  V  V64  1  0.11812046  0.24874338  0.35218017  1
  V  V65  1  0.75448033  0.37050208  0.65130899  1
  V  V66  1  0.75614544  0.62337114  0.34557374  1
  V  V67  1  0.37933058  0.24695089  0.62247368  1
  V  V68  1  0.88263981  0.12132240  0.25164119  1
  V  V69  1  0.00534585  0.59608562  0.11918447  1
  Zn  Zn70  1  0.75894072  0.37926743  0.13119797  1
  Zn  Zn71  1  0.86866098  0.49094538  0.36291440  1
  Zn  Zn72  1  0.36213039  0.62890852  0.23290812  1
  Zn  Zn73  1  0.23176977  0.75047519  -0.02767228  1
  Zn  Zn74  1  0.14265818  0.00778743  0.62224840  1
  Zn  Zn75  1  0.38544579  0.76988603  0.63049448  1
  Zn  Zn76  1  0.19116679  0.18963675  0.18209813  1
  Zn  Zn77  1  0.18997165  0.19363134  0.68302488  1
  Zn  Zn78  1  0.17751947  0.67979484  0.18820036  1
  Zn  Zn79  1  0.17422318  0.70033607  0.69093223  1
  Zn  Zn80  1  0.68776619  0.18271528  0.19380780  1
  Zn  Zn81  1  0.69469222  0.18104294  0.69460436  1
  Zn  Zn82  1  0.67505399  0.69589533  0.17820376  1
  Zn  Zn83  1  0.73019885  0.66131367  0.65048487  1
  Zn  Zn84  1  0.30283836  0.32045359  0.31517770  1
  Zn  Zn85  1  0.31041149  0.31276714  0.80759369  1
  Zn  Zn86  1  0.31770101  0.81773769  0.31002614  1
  Zn  Zn87  1  0.32903801  0.81528155  0.81265426  1
  Zn  Zn88  1  0.81254116  0.30840205  0.30773042  1
  Zn  Zn89  1  0.82772500  0.28190337  0.82778416  1
  Zn  Zn90  1  0.80938156  0.80745623  0.32180017  1
  Zn  Zn91  1  0.77386019  0.79493873  0.79527403  1
  Zn  Zn92  1  0.17809771  0.43291332  0.43551396  1
  Zn  Zn93  1  0.18548933  0.43708197  0.94508675  1
  Zn  Zn94  1  0.19152553  0.93336737  0.44093719  1
  Zn  Zn95  1  0.19927911  0.95139217  0.94076814  1
  Zn  Zn96  1  0.68377292  0.44524122  0.42991667  1
  Zn  Zn97  1  0.68819248  0.43224028  0.94486511  1
  Zn  Zn98  1  0.69162645  0.94018513  0.44934799  1
  Zn  Zn99  1  0.70475691  0.96129167  0.93959079  1
  Zn  Zn100  1  0.30959028  0.06694335  0.06664694  1
  Zn  Zn101  1  0.32793585  0.07134363  0.55273057  1
  Zn  Zn102  1  0.29675431  0.56915386  0.05500679  1
  Zn  Zn103  1  0.32546482  0.57746796  0.54086641  1
  Zn  Zn104  1  0.83481803  0.02491009  0.08381339  1
  Zn  Zn105  1  0.82428183  0.05228995  0.56774779  1
  Zn  Zn106  1  0.82430061  0.56379745  0.17862416  1
  Zn  Zn107  1  0.83056310  0.54169822  0.56176783  1
  Zn  Zn108  1  0.42175523  0.44227754  0.18862806  1
  Zn  Zn109  1  0.43847669  0.43590815  0.68664896  1
  Zn  Zn110  1  0.43796027  0.94034621  0.17871057  1
  Zn  Zn111  1  0.31653117  0.94367567  0.66881560  1
  Zn  Zn112  1  0.94320123  0.42499524  0.19189904  1
  Zn  Zn113  1  0.93877988  0.43643817  0.68540304  1
  Zn  Zn114  1  0.93375640  0.92722261  0.18650092  1
  Zn  Zn115  1  0.95095556  0.93596448  0.69186424  1
  Zn  Zn116  1  0.06966289  0.06378739  0.32232058  1
  Zn  Zn117  1  0.07272590  0.06741337  0.80757729  1
  Zn  Zn118  1  0.06104952  0.55576105  0.30841627  1
  Zn  Zn119  1  0.05598425  0.55605800  0.80803169  1
  Zn  Zn120  1  0.57777510  0.07957398  0.30175004  1
  Zn  Zn121  1  0.54915933  0.06611336  0.81984288  1
  Zn  Zn122  1  0.56540553  0.55948253  0.31360356  1
  Zn  Zn123  1  0.55685577  0.55300757  0.81144118  1
  Zn  Zn124  1  0.43913946  0.18621677  0.42802666  1
  Zn  Zn125  1  0.44005991  0.18457435  0.93648643  1
  Zn  Zn126  1  0.44309741  0.69913881  0.43459104  1
  Zn  Zn127  1  0.43894731  0.68718424  1.06587133  1
  Zn  Zn128  1  0.93631794  0.18926777  0.43650452  1
  Zn  Zn129  1  0.91389079  0.14780841  0.94967349  1
  Zn  Zn130  1  0.93313962  0.68482538  0.43407042  1
  Zn  Zn131  1  0.89275047  0.63518303  0.98989600  1
  Zn  Zn132  1  0.06091356  0.31449846  0.06136959  1
  Zn  Zn133  1  0.05830294  0.32410785  0.55547876  1
  Zn  Zn134  1  0.05755065  0.81207411  0.05244578  1
  Zn  Zn135  1  0.06568772  0.78628036  0.56313490  1
  Zn  Zn136  1  0.55354407  0.31569410  0.06481502  1
  Zn  Zn137  1  0.56707923  0.31103113  0.55826758  1
  Zn  Zn138  1  0.58283102  0.80453126  0.07267734  1
  Zn  Zn139  1  0.56218567  0.81468318  0.55573624  1
  O  O140  1  0.12624234  0.11688646  0.11940542  1
  O  O141  1  0.11434316  0.13334386  0.61783586  1
  O  O142  1  0.10658916  0.62942376  0.11692787  1
  O  O143  1  0.16833685  0.55135171  0.61180427  1
  O  O144  1  0.60970564  0.12840037  0.12306273  1
  O  O145  1  0.61880494  0.12368364  0.62109871  1
  O  O146  1  0.61938670  0.60899206  0.11062627  1
  O  O147  1  0.62176529  0.61144907  0.61566704  1
  O  O148  1  0.38966424  0.36649485  0.38206368  1
  O  O149  1  0.38375446  0.38313017  0.86757363  1
  O  O150  1  0.37795565  0.87568781  0.38274329  1
  O  O151  1  0.37423468  0.88151921  0.89676301  1
  O  O152  1  0.88849641  0.36291084  0.37016424  1
  O  O153  1  0.86160105  0.37827006  0.88588099  1
  O  O154  1  0.88897107  0.87332996  0.38471670  1
  O  O155  1  0.95433371  0.82555179  0.86082014  1
  O  O156  1  0.24054311  0.01377700  0.36313605  1
  O  O157  1  0.27586071  0.00286080  0.87522771  1
  O  O158  1  0.25246431  0.49493903  0.37507748  1
  O  O159  1  0.26369978  0.48813016  0.87450782  1
  O  O160  1  0.74071069  0.01264905  0.36833854  1
  O  O161  1  0.73183790  0.00663028  0.84389140  1
  O  O162  1  0.74546015  0.52057239  0.37039980  1
  O  O163  1  0.75136142  0.50616973  0.88421450  1
  O  O164  1  0.24864895  0.47825529  0.10689956  1
  O  O165  1  0.23204081  0.51453744  0.60587640  1
  O  O166  1  0.24002529  0.99868269  0.13597103  1
  O  O167  1  0.25231352  1.01898907  0.61534763  1
  O  O168  1  0.73247517  0.49701881  0.12218847  1
  O  O169  1  0.74178267  0.48049325  0.62491734  1
  O  O170  1  0.73343930  1.01537435  0.14191403  1
  O  O171  1  0.76489154  0.98673655  0.64006448  1
  O  O172  1  0.00769638  0.36868354  0.26707490  1
  O  O173  1  0.01368009  0.36054446  0.73745895  1
  O  O174  1  0.00332815  0.87700447  0.26283325  1
  O  O175  1  0.04922191  0.86509159  0.72087626  1
  O  O176  1  0.50204031  0.38041309  0.26286104  1
  O  O177  1  0.49973318  0.36395042  0.76301779  1
  O  O178  1  0.49929107  0.86645167  0.24068540  1
  O  O179  1  0.49580697  0.88585775  0.72606270  1
  O  O180  1  0.49638138  0.13069311  0.24415359  1
  O  O181  1  0.48630729  0.14777388  0.75910959  1
  O  O182  1  0.48480396  0.63632140  0.28201850  1
  O  O183  1  0.50647565  0.62037337  0.73411222  1
  O  O184  1  0.98091020  0.11244420  0.26387407  1
  O  O185  1  1.01160073  0.14021884  0.73471323  1
  O  O186  1  1.00177991  0.63734144  0.23359092  1
  O  O187  1  0.97553239  0.61619747  0.74758248  1
  O  O188  1  0.36419552  0.24457820  0.00077654  1
  O  O189  1  0.38100477  0.25491410  0.50598669  1
  O  O190  1  0.36692182  0.76081270  0.00199064  1
  O  O191  1  0.37386589  0.75711768  0.50421534  1
  O  O192  1  0.85993028  0.23940425  0.01640108  1
  O  O193  1  0.86413818  0.24780590  0.50744885  1
  O  O194  1  0.84865682  0.74357534  0.00328077  1
  O  O195  1  0.87557355  0.76203092  0.49701750  1
  O  O196  1  0.14069081  0.25299688  0.50194655  1
  O  O197  1  0.12724345  0.24347840  0.99197126  1
  O  O198  1  0.14522637  0.76062848  0.47937374  1
  O  O199  1  0.11735930  0.73937330  0.99475846  1
  O  O200  1  0.63882525  0.25517060  0.48817622  1
  O  O201  1  0.62594887  0.24716849  0.99811774  1
  O  O202  1  0.61741357  0.73177057  0.48772981  1
  O  O203  1  0.59195611  0.72595617  0.98588623  1
  O  O204  1  0.48569520  0.24428870  0.12568452  1
  O  O205  1  0.50142769  0.25846054  0.63912878  1
  O  O206  1  0.51180203  0.73994848  0.14230100  1
  O  O207  1  0.50694591  0.73246929  0.62081497  1
  O  O208  1  0.99007696  0.24166954  0.12267190  1
  O  O209  1  0.99607400  0.24241465  0.61679982  1
  O  O210  1  0.99616449  0.76993919  0.14077895  1
  O  O211  1  1.07743422  0.70451030  0.63773747  1
  O  O212  1  0.01301025  0.25174076  0.38025740  1
  O  O213  1  0.01068414  0.24814994  0.85639672  1
  O  O214  1  0.00913147  0.76137625  0.36699142  1
  O  O215  1  0.00300852  0.77220976  0.86952850  1
  O  O216  1  0.51305174  0.26379442  0.38275285  1
  O  O217  1  0.50302540  0.26185113  0.87249586  1
  O  O218  1  0.51510538  0.76136065  0.36589900  1
  O  O219  1  0.50554961  0.75868182  0.84149437  1
  O  O220  1  0.25818340  0.14106520  0.48269853  1
  O  O221  1  0.23682301  0.14144220  1.01072381  1
  O  O222  1  0.26519163  0.65158583  0.48359568  1
  O  O223  1  0.22892510  0.63549914  0.99262368  1
  O  O224  1  0.76240662  0.11817599  0.48696426  1
  O  O225  1  0.73086235  0.14067164  1.00839255  1
  O  O226  1  0.73587928  0.62016359  0.51217739  1
  O  O227  1  0.72466976  0.63558875  0.98985821  1
  O  O228  1  0.24328252  0.35568337  0.01086407  1
  O  O229  1  0.26490992  0.35802691  0.48455641  1
  O  O230  1  0.24292415  0.86837319  0.01348491  1
  O  O231  1  0.26606548  0.86148980  0.48780250  1
  O  O232  1  0.75777372  0.35997648  0.00749150  1
  O  O233  1  0.75093356  0.37185161  0.49310599  1
  O  O234  1  0.73399156  0.85825598  -0.03315130  1
  O  O235  1  0.77112246  0.88824772  0.52068704  1
  O  O236  1  0.14475854  0.50058868  0.25388234  1
  O  O237  1  0.11690795  0.48140054  0.75057051  1
  O  O238  1  0.12533350  0.99755127  0.24080079  1
  O  O239  1  0.13558931  0.99731150  0.74292615  1
  O  O240  1  0.61133997  0.49349110  0.23167885  1
  O  O241  1  0.62240567  0.49576499  0.73357715  1
  O  O242  1  0.63358354  1.00169213  0.24360883  1
  O  O243  1  0.62277830  1.04547185  0.73109311  1
  O  O244  1  0.35999986  -0.00295906  0.24577565  1
  O  O245  1  0.37489799  0.02172665  0.74264778  1
  O  O246  1  0.35315576  0.50531110  0.24729281  1
  O  O247  1  0.37853603  0.50745328  0.75462126  1
  O  O248  1  0.85992288  0.01295416  0.24658316  1
  O  O249  1  0.87936784  -0.01270850  0.76329703  1
  O  O250  1  0.86509921  0.48467279  0.24777346  1
  O  O251  1  0.86760011  0.49663024  0.76063013  1
  O  O252  1  0.12181440  0.35283822  0.37424626  1
  O  O253  1  0.12612135  0.36465330  0.87292533  1
  O  O254  1  0.11912479  0.87261994  0.36270108  1
  O  O255  1  0.13372536  0.89487751  0.86553977  1
  O  O256  1  0.61776803  0.37124729  0.36560102  1
  O  O257  1  0.61230014  0.36352170  0.88116841  1
  O  O258  1  0.64310875  0.85766092  0.38576367  1
  O  O259  1  0.56304754  0.88924812  0.75371858  1
  O  O260  1  0.38558917  0.13475164  0.12447125  1
  O  O261  1  0.38311748  0.14156576  0.63363464  1
  O  O262  1  0.37231994  0.61822537  0.11996767  1
  O  O263  1  0.39290599  0.61577329  0.63198342  1
  O  O264  1  0.87165826  0.12990221  0.13778291  1
  O  O265  1  0.89294418  0.13567623  0.61672099  1
  O  O266  1  0.89679607  0.61634888  0.11063575  1
  O  O267  1  0.84080161  0.61654341  0.64773269  1
  O  O268  1  0.26264078  0.25492091  0.11963102  1
  O  O269  1  0.26248881  0.24609730  0.60607862  1
  O  O270  1  0.24181364  0.76977846  0.14021237  1
  O  O271  1  0.25235923  0.75009259  0.61175698  1
  O  O272  1  0.74523517  0.25278712  0.12026745  1
  O  O273  1  0.75268474  0.25889381  0.61792221  1
  O  O274  1  0.70364786  0.76020417  0.08945528  1
  O  O275  1  0.73716632  0.77362380  0.63853131  1
  O  O276  1  0.23884838  0.24326470  0.37562430  1
  O  O277  1  0.24621022  0.25506388  0.88839897  1
  O  O278  1  0.23537557  0.75084321  0.35411973  1
  O  O279  1  0.23253055  0.75357830  0.84654310  1
  O  O280  1  0.74635687  0.24366422  0.38292650  1
  O  O281  1  0.72950965  0.25566160  0.89205965  1
  O  O282  1  0.73532753  0.73149131  0.36692027  1
  O  O283  1  0.73982638  0.72787430  0.88163742  1
  O  O284  1  0.01969025  0.12412768  -0.00105347  1
  O  O285  1  -0.00073619  0.10942468  0.50044161  1
  O  O286  1  0.00627087  0.62013530  0.01124266  1
  O  O287  1  -0.00133912  0.61195719  0.48668668  1
  O  O288  1  0.50901438  0.13156946  0.01477806  1
  O  O289  1  0.50676745  0.10385317  0.48594901  1
  O  O290  1  0.50406671  0.60380475  -0.00372513  1
  O  O291  1  0.50645493  0.61367540  0.50840433  1
  O  O292  1  0.49543927  0.38012163  0.49336352  1
  O  O293  1  0.49625612  0.38274379  0.98637614  1
  O  O294  1  0.49141337  0.87385730  0.49269303  1
  O  O295  1  0.48792694  0.86236191  1.01886856  1
  O  O296  1  1.00022065  0.38297255  0.48078814  1
  O  O297  1  0.97886929  0.35928909  0.99644046  1
  O  O298  1  0.99895805  0.86335849  0.49335398  1
  O  O299  1  1.00217351  0.89949306  1.00125005  1
  O  O300  1  0.50985766  0.48305084  0.38586135  1
  O  O301  1  0.49242766  0.48681051  0.87871862  1
  O  O302  1  0.54424306  1.04314280  0.44685768  1
  O  O303  1  0.47979898  0.99578637  0.87015199  1
  O  O304  1  0.99668492  0.48570814  0.37209035  1
  O  O305  1  0.97607252  0.49466002  0.87333711  1
  O  O306  1  1.00923347  0.98545784  0.39002104  1
  O  O307  1  1.01183263  1.00788078  0.88381585  1
  O  O308  1  0.01408570  0.00158613  0.12058691  1
  O  O309  1  0.00708678  0.01757602  0.62391371  1
  O  O310  1  0.00999605  0.49683202  0.12993786  1
  O  O311  1  -0.01668487  0.49734547  0.60314589  1
  O  O312  1  0.51098442  0.01849702  0.13364166  1
  O  O313  1  0.58701654  0.06238761  0.65732530  1
  O  O314  1  0.49493099  0.48692460  0.10938253  1
  O  O315  1  0.51498710  0.49860495  0.61671800  1
  O  O316  1  0.25260380  0.38844526  0.23752617  1
  O  O317  1  0.23629645  0.36994745  0.74555313  1
  O  O318  1  0.24152773  0.89022081  0.24392513  1
  O  O319  1  0.25643285  0.88339710  0.74747651  1
  O  O320  1  0.73396909  0.37374658  0.24915637  1
  O  O321  1  0.75399021  0.35453820  0.74815844  1
  O  O322  1  0.75774036  0.89366380  0.26242631  1
  O  O323  1  0.74336305  0.88868399  0.74043425  1
  O  O324  1  0.24669338  0.11424250  0.25433621  1
  O  O325  1  0.26858268  0.14599155  0.75154043  1
  O  O326  1  0.24698316  0.61518333  0.25147942  1
  O  O327  1  0.25651972  0.62287323  0.72835676  1
  O  O328  1  0.75603806  0.11827379  0.26336508  1
  O  O329  1  0.77610299  0.11241974  0.73200016  1
  O  O330  1  0.74721744  0.62784148  0.24125664  1
  O  O331  1  0.73908467  0.62302963  0.76695030  1
  O  O332  1  0.35807677  0.13420807  0.36562349  1
  O  O333  1  0.37923427  0.11611235  0.86831705  1
  O  O334  1  0.42314963  0.62609996  0.34363369  1
  O  O335  1  0.36618865  0.61223774  0.85260558  1
  O  O336  1  0.86157756  0.13462675  0.36381610  1
  O  O337  1  0.86153010  0.17783836  0.85943371  1
  O  O338  1  0.85523666  0.63168024  0.36524464  1
  O  O339  1  0.85774636  0.60524337  0.87383691  1
  O  O340  1  0.13700335  0.36294920  0.12693412  1
  O  O341  1  0.13000592  0.37395022  0.62778043  1
  O  O342  1  0.13280156  0.88933055  0.13315524  1
  O  O343  1  0.10451104  0.86952037  0.65525088  1
  O  O344  1  0.62000413  0.38223770  0.13236005  1
  O  O345  1  0.63741375  0.37944983  0.62354144  1
  O  O346  1  0.62025658  0.90111735  0.11856884  1
  O  O347  1  0.63252832  0.88939989  0.60695724  1
  O  O348  1  0.12162502  0.24523242  0.25268205  1
  O  O349  1  0.12142019  0.25898410  0.75319134  1
  O  O350  1  0.11101205  0.76189345  0.25438713  1
  O  O351  1  0.16926404  0.76562601  0.79396500  1
  O  O352  1  0.62732583  0.25968707  0.26248532  1
  O  O353  1  0.61637805  0.24006357  0.76633172  1
  O  O354  1  0.61338996  0.74404633  0.26267124  1
  O  O355  1  0.57500088  0.77767864  0.83254753  1
  O  O356  1  0.36882635  0.25268041  0.24327252  1
  O  O357  1  0.38639122  0.25255502  0.74199863  1
  O  O358  1  0.38993183  0.75141824  0.24834417  1
  O  O359  1  0.37330651  0.73188722  0.74242250  1
  O  O360  1  0.86967871  0.23728386  0.23553681  1
  O  O361  1  0.89591004  0.25746827  0.73177786  1
  O  O362  1  0.89032487  0.75746910  0.25770087  1
  O  O363  1  0.86370304  0.72893916  0.76174686  1
  O  O364  1  0.38777602  0.48818027  0.50600914  1
  O  O365  1  0.38226330  0.50638844  0.98075346  1
  O  O366  1  0.37953631  0.99439403  0.48952945  1
  O  O367  1  0.37601424  0.99583040  1.00092843  1
  O  O368  1  0.88631934  0.49944946  0.47738040  1
  O  O369  1  0.87198109  0.48169904  0.99489889  1
  O  O370  1  0.90215021  0.97883464  0.51224502  1
  O  O371  1  0.89626242  1.03547303  0.98867028  1
  O  O372  1  0.12373382  0.01418354  0.00891239  1
  O  O373  1  0.10966368  -0.01958487  0.51128537  1
  O  O374  1  0.12575746  0.51814137  -0.00725343  1
  O  O375  1  0.10531658  0.49489256  0.49179151  1
  O  O376  1  0.63495128  0.01998319  0.01318757  1
  O  O377  1  0.59809432  0.00678658  0.49397657  1
  O  O378  1  0.61066709  0.49618182  0.01082232  1
  O  O379  1  0.61870924  0.50729031  0.50550364  1
  O  O380  1  0.36878147  0.35976438  0.12436822  1
  O  O381  1  0.38160226  0.36427539  0.61320628  1
  O  O382  1  0.35753735  0.88451026  0.11351479  1
  O  O383  1  0.38159328  0.87950521  0.60452364  1
  O  O384  1  0.87566438  0.35572863  0.11673544  1
  O  O385  1  0.85806440  0.36622258  0.62814756  1
  O  O386  1  0.85831600  0.91622376  0.10871201  1
  O  O387  1  0.89600189  0.85954942  0.62232443  1
  O  O388  1  0.13697884  0.13964617  0.37384753  1
  O  O389  1  0.13058329  0.13656475  0.88468208  1
  O  O390  1  0.11645441  0.64220834  0.36572746  1
  O  O391  1  0.10537320  0.62745443  0.87933385  1
  O  O392  1  0.64168813  0.13918379  0.37163063  1
  O  O393  1  0.60962458  0.13922624  0.89426116  1
  O  O394  1  0.63495876  0.62522584  0.38454200  1
  O  O395  1  0.62630385  0.60445395  0.88485136  1
