# generated using pymatgen
data_V35Zn35O128
_symmetry_space_group_name_H-M   'P 1'
_cell_length_a   16.82758916
_cell_length_b   16.81320466
_cell_length_c   16.82213949
_cell_angle_alpha   90.00322385
_cell_angle_beta   90.01370172
_cell_angle_gamma   90.11541776
_symmetry_Int_Tables_number   1
_chemical_formula_structural   V35Zn35O128
_chemical_formula_sum   'V70 Zn70 O256'
_cell_volume   4759.40579752
_cell_formula_units_Z   2
loop_
 _symmetry_equiv_pos_site_id
 _symmetry_equiv_pos_as_xyz
  1  'x, y, z'
loop_
 _atom_site_type_symbol
 _atom_site_label
 _atom_site_symmetry_multiplicity
 _atom_site_fract_x
 _atom_site_fract_y
 _atom_site_fract_z
 _atom_site_occupancy
  V  V0  1  0.00787337  0.49011121  0.51658082  1
  V  V1  1  0.12777983  0.23885259  0.87619593  1
  V  V2  1  0.50286306  0.87472652  0.87780078  1
  V  V3  1  0.76197684  0.01414561  0.24537511  1
  V  V4  1  0.37917754  0.75954543  0.61403864  1
  V  V5  1  0.86956197  0.36927077  0.48127952  1
  V  V6  1  0.12504909  0.76215889  0.88983978  1
  V  V7  1  0.75253802  0.88149326  0.61435716  1
  V  V8  1  0.75022116  0.12888057  0.39988541  1
  V  V9  1  0.50012959  0.50680494  -0.02191010  1
  V  V10  1  0.23850446  -0.00381106  0.74768160  1
  V  V11  1  0.62717112  0.63777725  -0.01546167  1
  V  V12  1  0.00984254  0.75767557  0.75162476  1
  V  V13  1  0.12403988  0.37539180  0.74720693  1
  V  V14  1  0.24032119  0.86675036  0.14454778  1
  V  V15  1  0.50766228  0.76283619  0.24963225  1
  V  V16  1  0.86251032  0.50792606  0.87943772  1
  V  V17  1  0.11972543  0.11202112  0.50758169  1
  V  V18  1  0.76377673  0.86902903  0.13124546  1
  V  V19  1  0.51023621  0.37579035  0.36004372  1
  V  V20  1  0.12833617  0.25532909  0.35918712  1
  V  V21  1  0.89640580  0.23150146  0.13580447  1
  V  V22  1  0.24701248  0.24657327  0.50318563  1
  V  V23  1  0.13387441  0.01744667  0.11070876  1
  V  V24  1  0.51361525  0.50824590  0.51792244  1
  V  V25  1  0.37146066  0.62707680  0.74669607  1
  V  V26  1  0.50537233  -0.01254991  0.50130465  1
  V  V27  1  0.37471478  0.12363968  0.75189420  1
  V  V28  1  0.24229573  0.63135276  0.88561193  1
  V  V29  1  0.24548692  0.38176461  0.62356962  1
  V  V30  1  0.61520158  0.25063961  0.87460245  1
  V  V31  1  0.61906993  -0.00582423  0.13420493  1
  V  V32  1  0.01288783  0.87809095  0.38824817  1
  V  V33  1  0.76307379  0.10997150  0.86302891  1
  V  V34  1  0.75866202  0.75456766  -0.00738262  1
  V  V35  1  0.24380229  0.50622288  0.74990105  1
  V  V36  1  0.24509795  0.39002912  0.13481571  1
  V  V37  1  0.00558137  0.37917487  0.87130587  1
  V  V38  1  0.74347663  0.60696387  0.38654834  1
  V  V39  1  0.00421060  0.63423249  0.12996306  1
  V  V40  1  0.23725266  0.87806452  0.62226864  1
  V  V41  1  0.75892979  0.24690072  -0.00172753  1
  V  V42  1  0.62882208  0.89105726  0.74698391  1
  V  V43  1  0.63050611  0.75809444  0.38461284  1
  V  V44  1  0.36786921  0.00430127  0.87647531  1
  V  V45  1  0.87602140  -0.00612005  0.39075172  1
  V  V46  1  0.62472130  0.24742758  0.40942995  1
  V  V47  1  0.26154896  0.12165565  0.35929778  1
  V  V48  1  0.01656935  0.50928253  0.00510114  1
  V  V49  1  0.36848211  0.62233873  0.24452591  1
  V  V50  1  0.38770713  0.24510312  0.12679547  1
  V  V51  1  0.51004730  0.12271206  0.62033099  1
  V  V52  1  0.87601757  0.62306564  0.74899841  1
  V  V53  1  0.87277016  0.74640910  0.61516538  1
  V  V54  1  0.50899937  0.62046704  0.13013963  1
  V  V55  1  0.38059507  0.25125246  0.63138819  1
  V  V56  1  0.50113797  0.75395674  0.75049594  1
  V  V57  1  0.36221917  0.86512396  0.00670017  1
  V  V58  1  0.61296028  0.37754969  0.75933609  1
  V  V59  1  0.25255876  0.23910520  -0.00484800  1
  V  V60  1  0.37380273  0.39020608  -0.01580346  1
  V  V61  1  0.23663070  0.75022291  0.49167256  1
  V  V62  1  0.62845296  0.12382137  0.00681561  1
  V  V63  1  0.88054090  0.36388246  0.00147837  1
  V  V64  1  0.38145025  -0.01401257  0.37123932  1
  V  V65  1  -0.00125981  0.76275589  0.25628387  1
  V  V66  1  0.24734782  0.61500382  0.38019574  1
  V  V67  1  -0.00212949  0.11831128  0.64780402  1
  V  V68  1  0.49795724  0.00507375  0.00442880  1
  V  V69  1  0.75836510  0.37151087  0.64031739  1
  Zn  Zn70  1  0.38110208  0.37619114  0.49760247  1
  Zn  Zn71  1  -0.11768275  0.24777051  0.63631737  1
  Zn  Zn72  1  0.70956301  0.53485547  0.71365661  1
  Zn  Zn73  1  0.67400049  0.40907991  0.18570032  1
  Zn  Zn74  1  0.38214196  0.49745255  0.37439622  1
  Zn  Zn75  1  0.85771915  0.63473476  0.24046740  1
  Zn  Zn76  1  0.19758294  0.19506104  0.17973234  1
  Zn  Zn77  1  0.18619855  0.18535543  0.68823130  1
  Zn  Zn78  1  0.17996365  0.68844377  0.19246130  1
  Zn  Zn79  1  0.18431238  0.68419771  0.67614560  1
  Zn  Zn80  1  0.69661218  0.20377384  0.18769509  1
  Zn  Zn81  1  0.69247025  0.19264850  0.69086217  1
  Zn  Zn82  1  0.68375467  0.68515266  0.18975195  1
  Zn  Zn83  1  0.68853023  0.69709180  0.69055439  1
  Zn  Zn84  1  0.32064095  0.30975267  0.30852142  1
  Zn  Zn85  1  0.31072120  0.31370465  0.81124402  1
  Zn  Zn86  1  0.32074049  0.80372407  0.31039092  1
  Zn  Zn87  1  0.30991015  0.81451823  0.81249725  1
  Zn  Zn88  1  0.79517280  0.30596998  0.30262541  1
  Zn  Zn89  1  0.80806519  0.31250320  0.81735066  1
  Zn  Zn90  1  0.80783455  0.81282038  0.31032770  1
  Zn  Zn91  1  0.80690675  0.80240245  0.80096030  1
  Zn  Zn92  1  0.18568509  0.43574169  0.43607315  1
  Zn  Zn93  1  0.19399948  0.44090080  0.93492832  1
  Zn  Zn94  1  0.19765803  0.93737118  0.43393455  1
  Zn  Zn95  1  0.18102264  0.94070280  0.93939340  1
  Zn  Zn96  1  0.68790408  0.43285571  0.44915143  1
  Zn  Zn97  1  0.67903016  0.43044488  0.96653272  1
  Zn  Zn98  1  0.68388019  0.93905364  0.43473382  1
  Zn  Zn99  1  0.68947947  0.93302276  0.94220923  1
  Zn  Zn100  1  0.31151843  0.06038058  0.07177546  1
  Zn  Zn101  1  0.31822966  0.05938960  0.55842519  1
  Zn  Zn102  1  0.31382566  0.56706512  0.06552233  1
  Zn  Zn103  1  0.32490997  0.56466361  0.55817749  1
  Zn  Zn104  1  0.81898130  0.06406749  0.05770198  1
  Zn  Zn105  1  0.81644427  0.06059662  0.57521224  1
  Zn  Zn106  1  0.82132243  0.57217395  0.05412701  1
  Zn  Zn107  1  0.81834882  0.55166861  0.55721316  1
  Zn  Zn108  1  0.43328591  0.43864577  0.17978737  1
  Zn  Zn109  1  0.43650974  0.43994125  0.69471022  1
  Zn  Zn110  1  0.42682868  0.94155845  0.18895052  1
  Zn  Zn111  1  0.43368564  0.93931138  0.68444089  1
  Zn  Zn112  1  0.93992070  0.43335613  0.17721722  1
  Zn  Zn113  1  0.93693444  0.44316962  0.68907351  1
  Zn  Zn114  1  0.93894675  0.94088135  0.19044134  1
  Zn  Zn115  1  0.95027491  0.92639226  0.66873621  1
  Zn  Zn116  1  0.05914769  0.07093027  0.32274740  1
  Zn  Zn117  1  0.06023461  0.04845733  0.82752845  1
  Zn  Zn118  1  0.05688493  0.57720049  0.31443180  1
  Zn  Zn119  1  0.06128810  0.56818894  0.81084900  1
  Zn  Zn120  1  0.57040105  0.05682827  0.32640609  1
  Zn  Zn121  1  0.56020277  0.06877729  0.81483314  1
  Zn  Zn122  1  0.57769349  0.55766201  0.31120166  1
  Zn  Zn123  1  0.57064673  0.57655733  0.79605350  1
  Zn  Zn124  1  0.43987050  0.19065135  0.44126328  1
  Zn  Zn125  1  0.43442659  0.18785557  0.94449302  1
  Zn  Zn126  1  0.44433103  0.68452513  0.43001800  1
  Zn  Zn127  1  0.43119501  0.68601286  0.93380470  1
  Zn  Zn128  1  0.93219684  0.18531881  0.44578396  1
  Zn  Zn129  1  0.93938993  0.19217930  0.82036452  1
  Zn  Zn130  1  0.91673501  0.69127045  0.41974972  1
  Zn  Zn131  1  0.94420240  0.69708286  0.94168629  1
  Zn  Zn132  1  0.06820601  0.31100120  0.06269250  1
  Zn  Zn133  1  0.05583246  0.30317435  0.55979773  1
  Zn  Zn134  1  0.06063721  0.82327694  0.06664239  1
  Zn  Zn135  1  0.05785828  0.80150275  0.56361450  1
  Zn  Zn136  1  0.56261464  0.32323947  0.05632273  1
  Zn  Zn137  1  0.56318784  0.32935222  0.57210648  1
  Zn  Zn138  1  0.56005952  0.81163676  0.06854067  1
  Zn  Zn139  1  0.56835364  0.81087159  0.56396063  1
  O  O140  1  0.14445432  0.11808315  0.11402413  1
  O  O141  1  0.11719937  0.12420369  0.61654202  1
  O  O142  1  0.10490575  0.61691123  0.13987872  1
  O  O143  1  0.12429393  0.63374449  0.59694239  1
  O  O144  1  0.63646206  0.11878234  0.11285322  1
  O  O145  1  0.60719132  0.13398385  0.63814606  1
  O  O146  1  0.61124936  0.62592603  0.11356688  1
  O  O147  1  0.62304965  0.60783413  0.69406722  1
  O  O148  1  0.39726878  0.36915435  0.37391054  1
  O  O149  1  0.37131861  0.37877488  0.88370406  1
  O  O150  1  0.37212138  0.88649977  0.37442556  1
  O  O151  1  0.38002215  0.88499226  0.88475276  1
  O  O152  1  0.86086456  0.36215500  0.38085210  1
  O  O153  1  0.88921009  0.38687915  0.87842468  1
  O  O154  1  0.86932358  0.89176016  0.37418492  1
  O  O155  1  0.87098469  0.91287603  0.83596623  1
  O  O156  1  0.26772161  0.01398850  0.38056224  1
  O  O157  1  0.25808741  -0.00808134  0.86153109  1
  O  O158  1  0.25714651  0.51015466  0.38393519  1
  O  O159  1  0.24699252  0.51758746  0.86116442  1
  O  O160  1  0.75269489  0.01015301  0.36509452  1
  O  O161  1  0.74663063  0.01040205  0.88311616  1
  O  O162  1  0.73680691  0.50559469  0.37537936  1
  O  O163  1  0.76484425  0.49584930  0.89096774  1
  O  O164  1  0.25415724  0.49131894  0.12440231  1
  O  O165  1  0.25888177  0.48871031  0.63033619  1
  O  O166  1  0.23920924  0.99067026  0.12444261  1
  O  O167  1  0.25608630  0.98710399  0.63111907  1
  O  O168  1  0.78353589  0.47991314  0.14989772  1
  O  O169  1  0.75608710  0.48220710  0.62634781  1
  O  O170  1  0.74465070  0.99838543  0.13142791  1
  O  O171  1  0.76495852  0.97991916  0.63692034  1
  O  O172  1  0.00985562  0.41729347  0.27185159  1
  O  O173  1  0.01429365  0.38677673  0.75798634  1
  O  O174  1  -0.00338773  0.86801085  0.25809616  1
  O  O175  1  0.00048544  0.85906330  0.74824453  1
  O  O176  1  0.50868782  0.38057530  0.25914265  1
  O  O177  1  0.51200059  0.37715886  0.75501500  1
  O  O178  1  0.49297346  0.86158807  0.24065685  1
  O  O179  1  0.50124701  0.87256984  0.75650903  1
  O  O180  1  0.51358781  0.14232364  0.24542557  1
  O  O181  1  0.48336238  0.11799574  0.73898246  1
  O  O182  1  0.50027420  0.62315078  0.23797969  1
  O  O183  1  0.47992614  0.64454234  0.75922307  1
  O  O184  1  0.99922554  0.17112086  0.30302685  1
  O  O185  1  1.00220899  0.11649241  0.75348246  1
  O  O186  1  0.98659424  0.62967696  0.24377857  1
  O  O187  1  0.98684377  0.63376906  0.75258546  1
  O  O188  1  0.36504060  0.26486715  -0.00479705  1
  O  O189  1  0.36538041  0.25119248  0.51579627  1
  O  O190  1  0.37900238  0.76697508  -0.00115539  1
  O  O191  1  0.37879737  0.74496021  0.51269367  1
  O  O192  1  0.88055381  0.25935491  -0.00904981  1
  O  O193  1  0.88732959  0.26625645  0.51090626  1
  O  O194  1  0.85755463  0.73789279  0.00523791  1
  O  O195  1  0.87872809  0.73974654  0.51671596  1
  O  O196  1  0.13424396  0.24046000  0.49323973  1
  O  O197  1  0.14072070  0.25686289  0.98706385  1
  O  O198  1  0.13703394  0.74485163  0.49852059  1
  O  O199  1  0.11999286  0.75407381  0.98908250  1
  O  O200  1  0.62534125  0.24930680  0.50780136  1
  O  O201  1  0.63806270  0.24056622  0.99399882  1
  O  O202  1  0.61902275  0.74818325  0.48618763  1
  O  O203  1  0.62999578  0.74353278  1.00472689  1
  O  O204  1  0.48770761  0.25618751  0.10254324  1
  O  O205  1  0.48461909  0.24550287  0.62543420  1
  O  O206  1  0.50081360  0.73765032  0.13623100  1
  O  O207  1  0.48841038  0.76003401  0.63798238  1
  O  O208  1  0.99655803  0.24826605  0.12300773  1
  O  O209  1  1.00630000  0.22736251  0.62952171  1
  O  O210  1  1.00232264  0.74086029  0.13464607  1
  O  O211  1  0.98357931  0.75107014  0.63637752  1
  O  O212  1  0.01530569  0.22916231  0.36008277  1
  O  O213  1  0.01883668  0.26471313  0.87674444  1
  O  O214  1  -0.00850246  0.76721918  0.37085169  1
  O  O215  1  0.01492385  0.74542280  0.86467060  1
  O  O216  1  0.51752435  0.25602414  0.38323039  1
  O  O217  1  0.51555513  0.24597813  0.88608858  1
  O  O218  1  0.51434410  0.74421250  0.36038613  1
  O  O219  1  0.48606280  0.76464241  0.86195696  1
  O  O220  1  0.24404827  0.13522999  0.50389771  1
  O  O221  1  0.25919079  0.14039382  0.99490926  1
  O  O222  1  0.25790569  0.63634925  0.48993937  1
  O  O223  1  0.25725449  0.62513324  0.98402064  1
  O  O224  1  0.74459148  0.11432874  0.49813393  1
  O  O225  1  0.74561094  0.12598689  0.98939602  1
  O  O226  1  0.75791929  0.61857629  0.48712192  1
  O  O227  1  0.73538309  0.63635333  1.00821136  1
  O  O228  1  0.26380216  0.37972643  0.00295857  1
  O  O229  1  0.25301780  0.36520785  0.50853303  1
  O  O230  1  0.26146098  0.87676867  -0.00331061  1
  O  O231  1  0.24901322  0.86265644  0.50836777  1
  O  O232  1  0.77459809  0.36283023  -0.01428347  1
  O  O233  1  0.76560497  0.37429027  0.51355999  1
  O  O234  1  0.74603098  0.86464011  0.01538517  1
  O  O235  1  0.74381540  0.87947332  0.51512303  1
  O  O236  1  0.07362498  0.46161774  0.26953675  1
  O  O237  1  0.13487091  0.49347685  0.74925182  1
  O  O238  1  0.08786401  1.01068142  0.22307724  1
  O  O239  1  0.13955740  1.00132130  0.75791290  1
  O  O240  1  0.64599684  0.50782535  0.23397115  1
  O  O241  1  0.63230773  0.47756608  0.78294315  1
  O  O242  1  0.62904215  1.00847465  0.23740245  1
  O  O243  1  0.61413255  0.99000543  0.74883947  1
  O  O244  1  0.38981524  0.00977570  0.27097168  1
  O  O245  1  0.36841118  0.00380086  0.75899712  1
  O  O246  1  0.38392832  0.51633104  0.25435859  1
  O  O247  1  0.36595153  0.51998932  0.74514676  1
  O  O248  1  0.86423440  0.00888224  0.25536021  1
  O  O249  1  0.87749893  -0.03497125  0.78321966  1
  O  O250  1  0.83228082  0.47661908  0.21107644  1
  O  O251  1  0.87875171  0.51123943  0.76582306  1
  O  O252  1  0.12685924  0.35364737  0.37958060  1
  O  O253  1  0.12236203  0.37591007  0.86573478  1
  O  O254  1  0.11179871  0.88885401  0.37387717  1
  O  O255  1  0.12955999  0.86232678  0.87305872  1
  O  O256  1  0.62303371  0.35540797  0.38259060  1
  O  O257  1  0.63358411  0.35701262  0.87858930  1
  O  O258  1  0.63191049  0.86032272  0.37158238  1
  O  O259  1  0.60938213  0.88268448  0.86805475  1
  O  O260  1  0.37561679  0.14348916  0.11229607  1
  O  O261  1  0.37856641  0.13620632  0.63098627  1
  O  O262  1  0.38065307  0.62803567  0.13835994  1
  O  O263  1  0.36555496  0.64342740  0.63806511  1
  O  O264  1  0.88689715  0.12984483  0.12208476  1
  O  O265  1  0.89225923  0.12723707  0.62621578  1
  O  O266  1  0.89148433  0.61538721  0.13033702  1
  O  O267  1  0.86749755  0.63261458  0.63891856  1
  O  O268  1  0.26132680  0.26122356  0.10677502  1
  O  O269  1  0.25528459  0.25713986  0.62033427  1
  O  O270  1  0.23856935  0.76592604  0.12927326  1
  O  O271  1  0.25819244  0.76013979  0.61460702  1
  O  O272  1  0.77479226  0.23696433  0.10162716  1
  O  O273  1  0.75512528  0.26418278  0.62897575  1
  O  O274  1  0.74753085  0.76578402  0.12899104  1
  O  O275  1  0.76287578  0.76098660  0.63623617  1
  O  O276  1  0.24656946  0.24321613  0.38175275  1
  O  O277  1  0.24158233  0.25548026  0.88389051  1
  O  O278  1  0.25620749  0.74502185  0.38852612  1
  O  O279  1  0.23599591  0.74299307  0.86726245  1
  O  O280  1  0.74063675  0.23607003  0.38779118  1
  O  O281  1  0.74648270  0.23517546  0.88380581  1
  O  O282  1  0.73682173  0.74227825  0.36650542  1
  O  O283  1  0.75167083  0.76399859  0.89273888  1
  O  O284  1  -0.04392278  0.03128422  -0.04140884  1
  O  O285  1  0.01865052  0.12312590  0.49252101  1
  O  O286  1  -0.00096582  0.61712575  0.01174497  1
  O  O287  1  -0.01135886  0.59904629  0.46779668  1
  O  O288  1  0.50991870  0.11144267  -0.00503802  1
  O  O289  1  0.50076983  0.12718042  0.51685839  1
  O  O290  1  0.50245069  0.62605404  0.00384994  1
  O  O291  1  0.49999874  0.60695627  0.49270088  1
  O  O292  1  0.49962075  0.38422440  0.49602516  1
  O  O293  1  0.48919941  0.39767103  0.99351493  1
  O  O294  1  0.49836510  0.88808980  0.51284573  1
  O  O295  1  0.49250089  0.88477444  0.99727105  1
  O  O296  1  0.99079635  0.38047647  0.50321727  1
  O  O297  1  0.99825238  0.38429983  0.99027288  1
  O  O298  1  1.00343003  0.87171766  0.48851096  1
  O  O299  1  0.97325276  0.85124920  1.00162079  1
  O  O300  1  0.51348792  0.48282974  0.37929603  1
  O  O301  1  0.49450992  0.52009064  0.87973584  1
  O  O302  1  0.49280727  1.00370730  0.38761226  1
  O  O303  1  0.48984098  0.99388586  0.88373324  1
  O  O304  1  0.99032596  0.54042367  0.40669734  1
  O  O305  1  0.99893663  0.49577872  0.88536493  1
  O  O306  1  0.98459814  0.99107085  0.36958948  1
  O  O307  1  0.99214018  0.98650274  0.90180539  1
  O  O308  1  0.02668895  0.01618387  0.16164872  1
  O  O309  1  0.00034497  0.01619529  0.62814908  1
  O  O310  1  0.00230812  0.50006950  0.10903622  1
  O  O311  1  -0.00291417  0.50783831  0.61634254  1
  O  O312  1  0.51056254  -0.00342592  0.12000101  1
  O  O313  1  0.49142634  0.01323474  0.61504172  1
  O  O314  1  0.49242295  0.51712706  0.11094593  1
  O  O315  1  0.49362820  0.50094968  0.61876739  1
  O  O316  1  0.26031941  0.37413446  0.23493230  1
  O  O317  1  0.24490464  0.38703019  0.74509733  1
  O  O318  1  0.25446093  0.87256006  0.24426976  1
  O  O319  1  0.25279149  0.88503095  0.73648612  1
  O  O320  1  0.70151253  0.30883967  0.23599558  1
  O  O321  1  0.74433262  0.37711985  0.74670571  1
  O  O322  1  0.75190384  0.89345548  0.23778774  1
  O  O323  1  0.72985442  0.87417608  0.75707863  1
  O  O324  1  0.25121460  0.12626336  0.26080787  1
  O  O325  1  0.26079578  0.10701178  0.73846487  1
  O  O326  1  0.26270956  0.63429256  0.25928092  1
  O  O327  1  0.25308979  0.62210787  0.74852590  1
  O  O328  1  0.74499072  0.11590218  0.25110904  1
  O  O329  1  0.74359004  0.12159722  0.76397262  1
  O  O330  1  0.74257920  0.60886736  0.24781254  1
  O  O331  1  0.77175375  0.63089726  0.76183334  1
  O  O332  1  0.36258031  0.13702312  0.37647129  1
  O  O333  1  0.38022613  0.11450050  0.86768006  1
  O  O334  1  0.36699885  0.62201994  0.36527480  1
  O  O335  1  0.35507380  0.64163665  0.85660126  1
  O  O336  1  0.85766733  0.11703603  0.38421963  1
  O  O337  1  0.86464733  0.12186843  0.87305671  1
  O  O338  1  0.84948775  0.62578463  0.35683972  1
  O  O339  1  0.88170295  0.61258830  0.87653809  1
  O  O340  1  0.14505339  0.37143124  0.12022501  1
  O  O341  1  0.13612846  0.36356440  0.63530065  1
  O  O342  1  0.13529964  0.88709898  0.12522173  1
  O  O343  1  0.13781120  0.86924685  0.62236444  1
  O  O344  1  0.64791923  0.38981837  0.07645873  1
  O  O345  1  0.63440185  0.36985458  0.65127492  1
  O  O346  1  0.63267666  0.89196072  0.12280741  1
  O  O347  1  0.63778047  0.87080825  0.63792696  1
  O  O348  1  0.13631902  0.24909432  0.25982972  1
  O  O349  1  0.13980056  0.26221457  0.76505531  1
  O  O350  1  0.09943666  0.74279464  0.25689950  1
  O  O351  1  0.11204638  0.74330189  0.74583616  1
  O  O352  1  0.55585371  0.20208228  0.23182021  1
  O  O353  1  0.62699021  0.25684215  0.76896742  1
  O  O354  1  0.61268885  0.75202013  0.25118153  1
  O  O355  1  0.60392856  0.76414409  0.74979232  1
  O  O356  1  0.38067156  0.25380710  0.22735681  1
  O  O357  1  0.36321255  0.23937711  0.74020957  1
  O  O358  1  0.39510800  0.73175873  0.25871634  1
  O  O359  1  0.37749124  0.75018075  0.73923571  1
  O  O360  1  0.87423968  0.25595832  0.23170185  1
  O  O361  1  0.88336170  0.26033759  0.75297033  1
  O  O362  1  0.88736754  0.75131827  0.25131941  1
  O  O363  1  0.88700950  0.73917002  0.75340359  1
  O  O364  1  0.38803518  0.49417695  0.49400022  1
  O  O365  1  0.38188136  0.49807963  0.99540110  1
  O  O366  1  0.38909719  1.00873817  0.48588475  1
  O  O367  1  0.38061801  0.99665553  0.99504762  1
  O  O368  1  0.88673412  0.47741939  0.50087772  1
  O  O369  1  0.88523092  0.49099351  0.99210160  1
  O  O370  1  0.87216334  0.99963875  0.48987830  1
  O  O371  1  0.90063675  0.99106337  0.99784148  1
  O  O372  1  0.11652194  0.00055005  0.01057060  1
  O  O373  1  0.13662918  0.01394627  0.49716645  1
  O  O374  1  0.11529645  0.50154905  -0.00606934  1
  O  O375  1  0.10873659  0.48639801  0.50194003  1
  O  O376  1  0.61758087  0.00470088  0.01019455  1
  O  O377  1  0.60653674  0.00280384  0.49168266  1
  O  O378  1  0.60835629  0.52123776  -0.01009134  1
  O  O379  1  0.61472251  0.49205891  0.51253706  1
  O  O380  1  0.36976486  0.36972739  0.10935108  1
  O  O381  1  0.36562520  0.36155558  0.63463416  1
  O  O382  1  0.35821215  0.88438043  0.11407947  1
  O  O383  1  0.36533828  0.86428318  0.62548537  1
  O  O384  1  0.88713367  0.35994487  0.10524596  1
  O  O385  1  0.86610984  0.37154117  0.63476583  1
  O  O386  1  0.86358530  0.88626721  0.12310225  1
  O  O387  1  0.86531944  0.85969766  0.63009450  1
  O  O388  1  0.14380025  0.12976491  0.38472238  1
  O  O389  1  0.11990209  0.13967340  0.87353136  1
  O  O390  1  0.14781877  0.62017487  0.36493038  1
  O  O391  1  0.13655478  0.63460737  0.87218839  1
  O  O392  1  0.63479953  0.13880946  0.37643242  1
  O  O393  1  0.63051217  0.13192840  0.88425204  1
  O  O394  1  0.63722826  0.63501929  0.37163874  1
  O  O395  1  0.62073065  0.63853676  0.88530866  1
