# generated using pymatgen
data_V35Zn35O128
_symmetry_space_group_name_H-M   'P 1'
_cell_length_a   16.87176606
_cell_length_b   16.86943614
_cell_length_c   16.86542205
_cell_angle_alpha   89.92005864
_cell_angle_beta   90.00277397
_cell_angle_gamma   89.90271833
_symmetry_Int_Tables_number   1
_chemical_formula_structural   V35Zn35O128
_chemical_formula_sum   'V70 Zn70 O256'
_cell_volume   4800.17726658
_cell_formula_units_Z   2
loop_
 _symmetry_equiv_pos_site_id
 _symmetry_equiv_pos_as_xyz
  1  'x, y, z'
loop_
 _atom_site_type_symbol
 _atom_site_label
 _atom_site_symmetry_multiplicity
 _atom_site_fract_x
 _atom_site_fract_y
 _atom_site_fract_z
 _atom_site_occupancy
  V  V0  1  0.75547634  0.62104171  0.37568496  1
  V  V1  1  0.49243171  0.11764376  0.63096032  1
  V  V2  1  -0.00284599  0.50409385  -0.01191796  1
  V  V3  1  0.00603449  0.00772876  0.00893293  1
  V  V4  1  0.87671142  0.00344046  0.87421136  1
  V  V5  1  0.89114319  0.00603286  0.37633618  1
  V  V6  1  0.62854201  0.13338079  0.49790393  1
  V  V7  1  0.36033749  0.25818832  0.12581788  1
  V  V8  1  0.75607723  0.62401665  0.87868556  1
  V  V9  1  0.37312437  0.73980283  0.12587525  1
  V  V10  1  0.62377665  0.48140183  0.13400407  1
  V  V11  1  0.37638160  0.11569486  0.25680217  1
  V  V12  1  0.50183859  0.36801480  0.35877006  1
  V  V13  1  0.62901283  0.86831791  0.75385192  1
  V  V14  1  0.01363840  0.86913084  0.87851097  1
  V  V15  1  0.87499200  0.86431698  0.00221867  1
  V  V16  1  0.25580574  0.88085545  0.60915065  1
  V  V17  1  0.86290539  0.86486302  0.49315738  1
  V  V18  1  0.50907312  0.25510208  0.76133239  1
  V  V19  1  0.00011792  0.12014646  0.62659231  1
  V  V20  1  0.25853201  0.73400946  0.49770731  1
  V  V21  1  0.62732499  0.74451271  0.37927584  1
  V  V22  1  0.62328082  0.74643198  0.88324403  1
  V  V23  1  0.62351499  0.87589719  0.24963797  1
  V  V24  1  0.50180107  0.13715960  0.12600197  1
  V  V25  1  0.48875778  0.74611016  0.73992080  1
  V  V26  1  0.38238940  0.37091543  0.50195488  1
  V  V27  1  0.47981773  0.87698677  0.37487696  1
  V  V28  1  0.62084562  0.00315564  0.11337503  1
  V  V29  1  0.11761342  0.89579399  0.25330852  1
  V  V30  1  -0.00098665  0.73828746  0.74612749  1
  V  V31  1  0.48605977  -0.00733411  0.49451061  1
  V  V32  1  0.88192741  0.36762528  0.02226282  1
  V  V33  1  0.61745135  0.62948118  0.01554422  1
  V  V34  1  0.24702445  0.89200483  0.13461141  1
  V  V35  1  0.74476476  0.01108051  0.25862566  1
  V  V36  1  0.24401778  0.37527559  0.63236334  1
  V  V37  1  0.75671203  -0.00514618  0.74250801  1
  V  V38  1  0.75406353  0.49122640  0.24558704  1
  V  V39  1  0.62237462  0.40518689  0.74216674  1
  V  V40  1  0.24649149  0.38184466  0.10816412  1
  V  V41  1  0.49817328  0.73696633  0.24175646  1
  V  V42  1  -0.00428816  0.51595525  0.51391473  1
  V  V43  1  0.74538924  0.13295798  0.88092771  1
  V  V44  1  0.12423336  0.13183266  0.01013221  1
  V  V45  1  0.37021291  0.51166567  0.36531961  1
  V  V46  1  0.50665347  0.50460947  0.51456360  1
  V  V47  1  0.24354770  0.74513987  -0.00594461  1
  V  V48  1  0.77647105  0.51399095  0.74312097  1
  V  V49  1  0.34457791  0.50331360  0.85267684  1
  V  V50  1  0.24234097  0.24407415  0.49012663  1
  V  V51  1  0.37551643  0.88730624  -0.00305058  1
  V  V52  1  0.00172493  0.26390592  0.24218281  1
  V  V53  1  0.75600953  0.86692576  0.12370339  1
  V  V54  1  0.12743500  0.87537124  0.73994321  1
  V  V55  1  0.87852020  0.36948711  0.50834429  1
  V  V56  1  0.49464380  0.48046376  0.00412757  1
  V  V57  1  0.88103878  0.12994903  0.23357527  1
  V  V58  1  0.37584638  0.24356926  0.63421124  1
  V  V59  1  0.25687498  0.13256684  0.87722594  1
  V  V60  1  0.62847884  0.24804426  0.35473299  1
  V  V61  1  0.62486183  -0.01357636  0.61911813  1
  V  V62  1  0.11618113  0.74528251  0.37720339  1
  V  V63  1  0.87955805  0.63181681  0.23442609  1
  V  V64  1  0.11124736  0.37665517  0.74893130  1
  V  V65  1  0.11902828  0.50896081  0.12953790  1
  V  V66  1  0.10707690  0.25044287  0.86916884  1
  V  V67  1  0.25440464  0.00335573  0.75420779  1
  V  V68  1  0.13901898  0.37292623  0.26453605  1
  V  V69  1  0.24731331  0.11113125  0.37386138  1
  Zn  Zn70  1  0.41925050  0.05859953  0.81592459  1
  Zn  Zn71  1  -0.00213848  0.75729123  0.24327145  1
  Zn  Zn72  1  0.49432740  0.88049484  0.87371132  1
  Zn  Zn73  1  0.50020377  0.00957115  -0.01180094  1
  Zn  Zn74  1  0.12902421  0.62749756  -0.02066345  1
  Zn  Zn75  1  0.63208527  0.61130650  0.51980214  1
  Zn  Zn76  1  0.18979587  0.18923109  0.19663217  1
  Zn  Zn77  1  0.19300671  0.19244099  0.69223046  1
  Zn  Zn78  1  0.18836597  0.69731992  0.19390312  1
  Zn  Zn79  1  0.14612478  0.71083460  0.65746553  1
  Zn  Zn80  1  0.69110057  0.18724175  0.17711853  1
  Zn  Zn81  1  0.67834008  0.16744302  0.69685649  1
  Zn  Zn82  1  0.69248710  0.68707882  0.19343809  1
  Zn  Zn83  1  0.63339658  0.62234568  0.71140307  1
  Zn  Zn84  1  0.32087165  0.30828373  0.30748027  1
  Zn  Zn85  1  0.31725619  0.31886989  0.82123372  1
  Zn  Zn86  1  0.29903738  0.79327951  0.30689523  1
  Zn  Zn87  1  0.30859829  0.81288042  0.81233767  1
  Zn  Zn88  1  0.81027491  0.30952756  0.31457649  1
  Zn  Zn89  1  0.75206333  0.33381724  0.83744706  1
  Zn  Zn90  1  0.81630344  0.81358364  0.31671042  1
  Zn  Zn91  1  0.81478648  0.80551294  0.81327703  1
  Zn  Zn92  1  0.19567027  0.43368283  0.44070965  1
  Zn  Zn93  1  0.17910861  0.43881977  0.93332622  1
  Zn  Zn94  1  0.17458103  0.94348175  0.42996979  1
  Zn  Zn95  1  0.19527244  0.94384539  0.94271986  1
  Zn  Zn96  1  0.68505241  0.43037717  0.42951382  1
  Zn  Zn97  1  0.64931758  0.46267413  0.91337946  1
  Zn  Zn98  1  0.68262753  0.93328444  0.43926466  1
  Zn  Zn99  1  0.69293869  0.93452932  0.93477269  1
  Zn  Zn100  1  0.31259005  0.07156313  0.06334719  1
  Zn  Zn101  1  0.30289828  0.05827017  0.56296706  1
  Zn  Zn102  1  0.31249288  0.56046135  0.06183169  1
  Zn  Zn103  1  0.30557169  0.55451175  0.55253900  1
  Zn  Zn104  1  0.80873620  0.05468787  0.05958025  1
  Zn  Zn105  1  0.80941735  0.05763323  0.55476793  1
  Zn  Zn106  1  0.80672081  0.55984549  0.05802563  1
  Zn  Zn107  1  0.79234129  0.51246713  0.53779274  1
  Zn  Zn108  1  0.43375325  0.44337919  0.18363815  1
  Zn  Zn109  1  0.43243416  0.43502682  0.69285380  1
  Zn  Zn110  1  0.43454250  0.93543201  0.18635399  1
  Zn  Zn111  1  0.43787775  0.92179834  0.68101181  1
  Zn  Zn112  1  0.93873887  0.44275811  0.19025417  1
  Zn  Zn113  1  0.94222220  0.44145459  0.68249103  1
  Zn  Zn114  1  0.93607474  0.94517713  0.19088087  1
  Zn  Zn115  1  0.93585267  0.92209104  0.68534307  1
  Zn  Zn116  1  0.05490842  0.08854337  0.31259042  1
  Zn  Zn117  1  0.06960947  0.05813981  0.81922195  1
  Zn  Zn118  1  0.07096336  0.56503843  0.31034753  1
  Zn  Zn119  1  0.07374211  0.55844381  0.81107908  1
  Zn  Zn120  1  0.55807686  0.06334475  0.31226778  1
  Zn  Zn121  1  0.58012536  0.06295915  0.81426524  1
  Zn  Zn122  1  0.55811967  0.55551783  0.31739211  1
  Zn  Zn123  1  0.50845824  0.57316965  0.83108054  1
  Zn  Zn124  1  0.44184011  0.18615233  0.44056515  1
  Zn  Zn125  1  0.43872488  0.19685472  0.94780256  1
  Zn  Zn126  1  0.44300338  0.68875980  0.44216011  1
  Zn  Zn127  1  0.43272098  0.68560220  0.93898529  1
  Zn  Zn128  1  0.91852768  0.21309894  0.40141515  1
  Zn  Zn129  1  0.92901249  0.18996476  0.94083056  1
  Zn  Zn130  1  0.93719843  0.68934858  0.43110498  1
  Zn  Zn131  1  0.94468334  0.68425150  0.94065904  1
  Zn  Zn132  1  0.06145707  0.31349146  0.06511667  1
  Zn  Zn133  1  0.06213150  0.31651809  0.55332427  1
  Zn  Zn134  1  0.06617622  0.81275823  0.07224515  1
  Zn  Zn135  1  0.04736211  0.81134043  0.55326165  1
  Zn  Zn136  1  0.57035615  0.31098944  0.06572568  1
  Zn  Zn137  1  0.56468280  0.31445315  0.57328424  1
  Zn  Zn138  1  0.55845416  0.81667633  0.06280357  1
  Zn  Zn139  1  0.59885063  0.77279011  0.59114838  1
  O  O140  1  0.13630307  0.13278335  0.10855496  1
  O  O141  1  0.10461769  0.12718019  0.63554947  1
  O  O142  1  0.13834917  0.60804871  0.13913331  1
  O  O143  1  0.21016041  0.61454834  0.67621636  1
  O  O144  1  0.61362139  0.11217693  0.12785012  1
  O  O145  1  0.61384831  0.10715859  0.61890428  1
  O  O146  1  0.62656946  0.63439218  0.11587003  1
  O  O147  1  0.64622839  0.67179337  0.61246793  1
  O  O148  1  0.38759382  0.37302886  0.38425643  1
  O  O149  1  0.36620176  0.40458520  0.87719506  1
  O  O150  1  0.38326347  0.86708605  0.36125815  1
  O  O151  1  0.37193198  0.87373272  0.89376474  1
  O  O152  1  0.89013986  0.33097147  0.39274269  1
  O  O153  1  0.82251019  0.38983729  0.91883954  1
  O  O154  1  0.86783937  0.89571199  0.37769112  1
  O  O155  1  0.87990690  0.88017939  0.88882364  1
  O  O156  1  0.25814651  0.01260202  0.38219360  1
  O  O157  1  0.25000155  0.01117745  0.86498021  1
  O  O158  1  0.27140746  0.49749263  0.38690776  1
  O  O159  1  0.24545427  0.51393275  0.87835461  1
  O  O160  1  0.73770680  -0.00033644  0.35816106  1
  O  O161  1  0.76287778  0.00215046  0.86932114  1
  O  O162  1  0.72994653  0.51488433  0.35429802  1
  O  O163  1  0.74220017  0.51811213  0.86585040  1
  O  O164  1  0.24350074  0.48766781  0.12107524  1
  O  O165  1  0.24605797  0.47271885  0.61019345  1
  O  O166  1  0.25375220  0.99112366  0.12228841  1
  O  O167  1  0.24784648  0.99345747  0.64133306  1
  O  O168  1  0.73529139  0.50481024  0.13596418  1
  O  O169  1  0.75776489  0.52830287  0.64369560  1
  O  O170  1  0.73535943  0.99326945  0.13155907  1
  O  O171  1  0.74441074  1.00236384  0.63660157  1
  O  O172  1  0.00382230  0.36743300  0.25467850  1
  O  O173  1  0.01209983  0.36760097  0.73917313  1
  O  O174  1  0.01319081  0.87922006  0.23894095  1
  O  O175  1  0.01227709  0.87869645  0.76230178  1
  O  O176  1  0.49550321  0.37406445  0.26060990  1
  O  O177  1  0.51020412  0.36395856  0.74888058  1
  O  O178  1  0.50913841  0.87410099  0.25651274  1
  O  O179  1  0.51049171  0.86824721  0.75553494  1
  O  O180  1  0.49081415  0.11954599  0.23602677  1
  O  O181  1  0.49921630  0.12240535  0.74278683  1
  O  O182  1  0.50381057  0.63911042  0.25139561  1
  O  O183  1  0.51828531  0.64346789  0.74469171  1
  O  O184  1  0.97780712  0.10385338  0.22301334  1
  O  O185  1  0.99782409  0.11811140  0.73364651  1
  O  O186  1  0.97869100  0.61210087  0.25770898  1
  O  O187  1  1.00430983  0.64147881  0.77034163  1
  O  O188  1  0.38023990  0.25133986  0.02634891  1
  O  O189  1  0.37751778  0.25575998  0.51267354  1
  O  O190  1  0.37263422  0.75848376  0.01176625  1
  O  O191  1  0.35903571  0.74345392  0.49645456  1
  O  O192  1  0.88395645  0.26755452  0.00634642  1
  O  O193  1  0.88048042  0.25871714  0.49992987  1
  O  O194  1  0.88466866  0.76650811  0.00179912  1
  O  O195  1  0.86281623  0.76603082  0.47295198  1
  O  O196  1  0.14323349  0.25242624  0.50073710  1
  O  O197  1  0.11638249  0.23834210  0.98851317  1
  O  O198  1  0.11856431  0.75435332  0.48390448  1
  O  O199  1  0.13979509  0.75130716  1.00632330  1
  O  O200  1  0.62014651  0.23377144  0.51175707  1
  O  O201  1  0.66960789  0.25442980  1.02778066  1
  O  O202  1  0.61856455  0.75889840  0.47729722  1
  O  O203  1  0.61909586  0.74492531  0.99322786  1
  O  O204  1  0.50488139  0.23878043  0.12729310  1
  O  O205  1  0.49426825  0.23672246  0.63579283  1
  O  O206  1  0.49133084  0.75456555  0.13340261  1
  O  O207  1  0.49404574  0.76456806  0.64058989  1
  O  O208  1  1.00436202  0.24656013  0.14175931  1
  O  O209  1  0.99574686  0.22441423  0.62537793  1
  O  O210  1  1.00112590  0.74603489  0.13047029  1
  O  O211  1  1.02970212  0.73661171  0.64283835  1
  O  O212  1  0.01180003  0.20602366  0.33342269  1
  O  O213  1  0.00798882  0.24351360  0.87134715  1
  O  O214  1  0.01051365  0.74935569  0.36493189  1
  O  O215  1  -0.00013582  0.76627556  0.87235138  1
  O  O216  1  0.50702519  0.26164600  0.37903270  1
  O  O217  1  0.49345059  0.24030872  0.85957453  1
  O  O218  1  0.50636844  0.75986066  0.36163747  1
  O  O219  1  0.51116882  0.75269331  0.87169713  1
  O  O220  1  0.26247732  0.13563944  0.48805650  1
  O  O221  1  0.23534132  0.11685252  0.98612688  1
  O  O222  1  0.24189267  0.63481776  0.50347938  1
  O  O223  1  0.25052365  0.64128079  1.00831979  1
  O  O224  1  0.72706504  0.11681484  0.50437563  1
  O  O225  1  0.76326318  0.12029855  0.98009495  1
  O  O226  1  0.74393730  0.60568122  0.47875443  1
  O  O227  1  0.73070749  0.61855902  0.98882752  1
  O  O228  1  0.24407626  0.37381878  0.00945787  1
  O  O229  1  0.26122946  0.35890879  0.50761066  1
  O  O230  1  0.25862187  0.87108306  0.01035162  1
  O  O231  1  0.24583560  0.89664191  0.51091760  1
  O  O232  1  0.77479273  0.39691026  -0.01277936  1
  O  O233  1  0.77452024  0.40194095  0.49171903  1
  O  O234  1  0.76393728  0.87961050  0.01037759  1
  O  O235  1  0.76215266  0.88810270  0.50334521  1
  O  O236  1  0.11962674  0.48252558  0.24066830  1
  O  O237  1  0.12496243  0.47577292  0.75064075  1
  O  O238  1  0.11946099  0.99522009  0.25657893  1
  O  O239  1  0.13832154  0.98622946  0.75965019  1
  O  O240  1  0.62845586  0.50821889  0.23719362  1
  O  O241  1  0.60672260  0.50559429  0.74609768  1
  O  O242  1  0.62993552  0.99405505  0.24184915  1
  O  O243  1  0.63513065  0.98844501  0.74124142  1
  O  O244  1  0.37539794  0.01590257  0.24354415  1
  O  O245  1  0.36085268  -0.01265106  0.74936558  1
  O  O246  1  0.37851524  0.49790566  0.26506612  1
  O  O247  1  0.36028722  0.49912402  0.75108241  1
  O  O248  1  0.85662525  0.00374382  0.25286834  1
  O  O249  1  0.86456684  -0.01798402  0.75989581  1
  O  O250  1  0.85913435  0.51009791  0.24482124  1
  O  O251  1  0.87543651  0.50530169  0.75258704  1
  O  O252  1  0.13588831  0.37203076  0.36373451  1
  O  O253  1  0.12870686  0.35907597  0.86387833  1
  O  O254  1  0.12666123  0.87220350  0.35810640  1
  O  O255  1  0.11433118  0.88099888  0.88008248  1
  O  O256  1  0.61181452  0.36103802  0.37481798  1
  O  O257  1  0.63948699  0.36847522  0.84670505  1
  O  O258  1  0.62697108  0.86415419  0.36051638  1
  O  O259  1  0.62486868  0.86540500  0.87275602  1
  O  O260  1  0.38109142  0.13499453  0.13360606  1
  O  O261  1  0.38371846  0.12901125  0.62233640  1
  O  O262  1  0.37219265  0.64098786  0.12452790  1
  O  O263  1  0.34270977  0.62165540  0.65004943  1
  O  O264  1  0.85069339  0.12577304  0.13638837  1
  O  O265  1  0.89591676  0.11773448  0.62113210  1
  O  O266  1  0.86585529  0.62670156  0.13511929  1
  O  O267  1  0.85398066  0.67226361  0.61609660  1
  O  O268  1  0.25529154  0.25913126  0.12509656  1
  O  O269  1  0.26029804  0.24706338  0.61509395  1
  O  O270  1  0.26300510  0.76272394  0.11814614  1
  O  O271  1  0.23159989  0.77010768  0.60128033  1
  O  O272  1  0.72383914  0.25105737  0.08357667  1
  O  O273  1  0.76300653  0.23565822  0.63580083  1
  O  O274  1  0.74642035  0.76877030  0.12937868  1
  O  O275  1  0.79711023  0.71590535  0.62453140  1
  O  O276  1  0.26150453  0.24695868  0.38821493  1
  O  O277  1  0.24779987  0.23531989  0.86900166  1
  O  O278  1  0.23501943  0.76839100  0.39855543  1
  O  O279  1  0.25586792  0.75576258  0.89513914  1
  O  O280  1  0.72673874  0.25253033  0.37386940  1
  O  O281  1  0.77574141  0.22739193  0.85699314  1
  O  O282  1  0.73453161  0.73695064  0.36236986  1
  O  O283  1  0.73349831  0.74276951  0.87060539  1
  O  O284  1  0.00829777  0.11563637  -0.00486347  1
  O  O285  1  0.00930798  0.11477874  0.52429911  1
  O  O286  1  0.01212649  0.61278273  -0.00503373  1
  O  O287  1  -0.01477380  0.61696452  0.50285406  1
  O  O288  1  0.49210158  0.12115473  0.02052516  1
  O  O289  1  0.50611173  0.11373436  0.51080357  1
  O  O290  1  0.51540544  0.62001336  0.00032083  1
  O  O291  1  0.50723667  0.60929300  0.49921833  1
  O  O292  1  0.49298562  0.37882241  0.50405361  1
  O  O293  1  0.50190982  0.37903595  1.00847047  1
  O  O294  1  0.49612167  0.87875939  0.47840436  1
  O  O295  1  0.48623254  0.88130095  1.00044753  1
  O  O296  1  0.99131771  0.38542166  0.50503673  1
  O  O297  1  0.99111181  0.38705476  1.00817866  1
  O  O298  1  0.97598501  0.88148821  0.50402931  1
  O  O299  1  0.99543214  0.88432869  0.99292955  1
  O  O300  1  0.49515798  0.48249391  0.38431369  1
  O  O301  1  0.53037923  0.49072537  0.90315364  1
  O  O302  1  0.50172199  0.98627504  0.37829771  1
  O  O303  1  0.50271539  1.00152607  0.87270517  1
  O  O304  1  1.04799856  0.49851791  0.40761891  1
  O  O305  1  1.00859525  0.49465259  0.88908786  1
  O  O306  1  0.99009378  1.00646759  0.36694603  1
  O  O307  1  0.99088620  0.98953243  0.87771586  1
  O  O308  1  -0.00355014  -0.00312006  0.10603578  1
  O  O309  1  0.00131556  0.01545153  0.63365214  1
  O  O310  1  0.01558603  0.49982147  0.12303885  1
  O  O311  1  0.00936306  0.50540177  0.61429335  1
  O  O312  1  0.51433106  -0.00091824  0.12398512  1
  O  O313  1  0.50514363  -0.00227236  0.61854862  1
  O  O314  1  0.51349465  0.49570617  0.11893628  1
  O  O315  1  0.49281681  0.49643795  0.61375281  1
  O  O316  1  0.24091286  0.36893005  0.24480208  1
  O  O317  1  0.24779855  0.36353999  0.73494800  1
  O  O318  1  0.24513115  0.87705046  0.23877297  1
  O  O319  1  0.24049558  0.88015727  0.74597024  1
  O  O320  1  0.75485150  0.39193288  0.25771379  1
  O  O321  1  0.74031183  0.41057812  0.74761514  1
  O  O322  1  0.74372017  0.88386196  0.23881300  1
  O  O323  1  0.74106714  0.88284321  0.75874024  1
  O  O324  1  0.26451269  0.13079617  0.26180647  1
  O  O325  1  0.24735715  0.11281900  0.75959873  1
  O  O326  1  0.27275817  0.68443775  0.26841349  1
  O  O327  1  0.28486369  0.64114380  0.69834174  1
  O  O328  1  0.74595428  0.11382436  0.24694957  1
  O  O329  1  0.74877518  0.10043283  0.76002687  1
  O  O330  1  0.75892191  0.61925819  0.25514749  1
  O  O331  1  0.74182923  0.62078248  0.76581116  1
  O  O332  1  0.37879625  0.12961920  0.36123716  1
  O  O333  1  0.36154318  0.12833279  0.88623156  1
  O  O334  1  0.38839225  0.60981595  0.37874002  1
  O  O335  1  0.39849423  0.59479568  0.87546605  1
  O  O336  1  0.87060534  0.11369522  0.35227344  1
  O  O337  1  0.88071339  0.10534093  0.87229053  1
  O  O338  1  0.85674545  0.62453684  0.36798624  1
  O  O339  1  0.85476023  0.63826409  0.88574547  1
  O  O340  1  0.13693875  0.38134161  0.12876684  1
  O  O341  1  0.13636662  0.35487686  0.63593134  1
  O  O342  1  0.13972168  0.87936877  0.13295195  1
  O  O343  1  0.12610778  0.87764695  0.63779046  1
  O  O344  1  0.62958478  0.38256800  0.13432568  1
  O  O345  1  0.62869635  0.37355185  0.64519574  1
  O  O346  1  0.63240864  0.88270101  0.12997413  1
  O  O347  1  0.62505982  0.88003940  0.63424039  1
  O  O348  1  0.11764744  0.26649392  0.24274872  1
  O  O349  1  0.12629525  0.25181787  0.76346899  1
  O  O350  1  0.12087986  0.76721513  0.25633761  1
  O  O351  1  0.11893776  0.77043917  0.76055971  1
  O  O352  1  0.62469021  0.24092075  0.25526511  1
  O  O353  1  0.60986070  0.24205653  0.74718551  1
  O  O354  1  0.61383372  0.75795068  0.25042615  1
  O  O355  1  0.61714738  0.76030265  0.76225737  1
  O  O356  1  0.37799285  0.23959044  0.23386805  1
  O  O357  1  0.38627219  0.25718700  0.74031876  1
  O  O358  1  0.39172236  0.75948562  0.23676674  1
  O  O359  1  0.39092200  0.75280986  0.76253324  1
  O  O360  1  0.88306703  0.23845127  0.24819173  1
  O  O361  1  0.80938116  0.26579337  0.68538158  1
  O  O362  1  0.87666953  0.73745201  0.25496546  1
  O  O363  1  0.90000958  0.76493076  0.74814769  1
  O  O364  1  0.38689121  0.48936840  0.49528310  1
  O  O365  1  0.39537202  0.50212021  1.00751302  1
  O  O366  1  0.38792626  1.00378000  0.50469098  1
  O  O367  1  0.37459787  0.99032645  1.00521668  1
  O  O368  1  0.89480029  0.48916278  0.48899680  1
  O  O369  1  0.89369156  0.50051260  1.00935364  1
  O  O370  1  0.87360096  1.00801157  0.47836450  1
  O  O371  1  0.88631946  0.99373671  0.98924525  1
  O  O372  1  0.11289267  0.01267354  -0.00720807  1
  O  O373  1  0.12687571  0.01350415  0.50065706  1
  O  O374  1  0.11731308  0.50059526  0.01384369  1
  O  O375  1  0.10564505  0.50598569  0.47056224  1
  O  O376  1  0.62574884  -0.00672915  0.01114879  1
  O  O377  1  0.61289314  0.00152878  0.50593511  1
  O  O378  1  0.62168675  0.50923009  0.02110908  1
  O  O379  1  0.61131153  0.49291363  0.49928749  1
  O  O380  1  0.35883341  0.36825763  0.13405611  1
  O  O381  1  0.36647932  0.36383085  0.61986831  1
  O  O382  1  0.36638738  0.87124915  0.11745016  1
  O  O383  1  0.35461752  0.87180294  0.62293247  1
  O  O384  1  0.86951384  0.37888512  0.12185238  1
  O  O385  1  0.87666569  0.37900504  0.60993197  1
  O  O386  1  0.86414172  0.88456759  0.11623128  1
  O  O387  1  0.88414106  0.87432059  0.60060981  1
  O  O388  1  0.14891921  0.12427749  0.36662209  1
  O  O389  1  0.13197119  0.13581784  0.87900780  1
  O  O390  1  0.13492518  0.64717527  0.35793844  1
  O  O391  1  0.15016377  0.61766341  0.86743234  1
  O  O392  1  0.60945373  0.13800487  0.38758011  1
  O  O393  1  0.64377396  0.12999918  0.87697833  1
  O  O394  1  0.62433348  0.63811511  0.37197094  1
  O  O395  1  0.62595980  0.63950212  0.88408008  1
