# generated using pymatgen
data_V35Zn35O128
_symmetry_space_group_name_H-M   'P 1'
_cell_length_a   16.91369901
_cell_length_b   16.94059522
_cell_length_c   16.88803973
_cell_angle_alpha   89.94887893
_cell_angle_beta   89.79332877
_cell_angle_gamma   89.47766835
_symmetry_Int_Tables_number   1
_chemical_formula_structural   V35Zn35O128
_chemical_formula_sum   'V70 Zn70 O256'
_cell_volume   4838.66407968
_cell_formula_units_Z   2
loop_
 _symmetry_equiv_pos_site_id
 _symmetry_equiv_pos_as_xyz
  1  'x, y, z'
loop_
 _atom_site_type_symbol
 _atom_site_label
 _atom_site_symmetry_multiplicity
 _atom_site_fract_x
 _atom_site_fract_y
 _atom_site_fract_z
 _atom_site_occupancy
  V  V0  1  0.49521039  0.86445619  0.89450882  1
  V  V1  1  0.00133878  0.37269560  0.87441281  1
  V  V2  1  0.27530910  0.23207591  0.51148957  1
  V  V3  1  -0.00131739  0.23443002  0.24453699  1
  V  V4  1  0.74708132  0.74383552  0.49857061  1
  V  V5  1  0.87503646  0.23340817  0.12787028  1
  V  V6  1  0.75157028  0.49967740  0.24629457  1
  V  V7  1  0.87842759  0.22307843  0.63950271  1
  V  V8  1  0.74393075  0.63730302  0.87507846  1
  V  V9  1  0.00271743  0.59940924  0.11359747  1
  V  V10  1  0.11742936  0.12851449  0.00782284  1
  V  V11  1  0.61792249  0.50594242  0.12727641  1
  V  V12  1  0.36991100  0.85172696  0.52363751  1
  V  V13  1  0.13322839  0.62237899  -0.01178037  1
  V  V14  1  0.35394408  0.74550879  0.11282094  1
  V  V15  1  0.88631648  0.76226408  0.12062987  1
  V  V16  1  0.39045036  0.12135649  0.74224569  1
  V  V17  1  0.38518353  0.47858667  0.87628507  1
  V  V18  1  0.38179815  0.62328305  0.75240307  1
  V  V19  1  0.26258526  0.48937247  0.74398208  1
  V  V20  1  0.25756248  0.00794928  0.24239801  1
  V  V21  1  0.61896875  0.63375654  0.00128775  1
  V  V22  1  0.19068451  0.43497353  0.07402781  1
  V  V23  1  0.12263181  0.87187946  0.24333427  1
  V  V24  1  0.63143718  0.50402309  0.60134414  1
  V  V25  1  0.62848443  0.88189425  0.25445208  1
  V  V26  1  0.48595539  0.00094751  0.50347335  1
  V  V27  1  0.87568835  0.01546603  0.37912516  1
  V  V28  1  0.38190384  0.49776069  0.38870417  1
  V  V29  1  0.37342999  -0.02114023  0.89767165  1
  V  V30  1  0.74784546  0.62692953  0.37323494  1
  V  V31  1  0.50074650  0.62591599  0.60336564  1
  V  V32  1  0.38362463  0.25952253  0.10420780  1
  V  V33  1  0.74845765  0.24590546  -0.01243324  1
  V  V34  1  0.88394091  0.63588481  0.74778259  1
  V  V35  1  0.75217499  0.01274182  0.25776457  1
  V  V36  1  -0.00579163  0.37348359  0.37239849  1
  V  V37  1  0.62476872  0.74876590  0.37666135  1
  V  V38  1  0.74181241  0.86850296  0.62004570  1
  V  V39  1  0.74268487  0.49578909  0.74561490  1
  V  V40  1  0.24479290  -0.01360884  0.75511467  1
  V  V41  1  0.34440193  0.61461385  0.25440672  1
  V  V42  1  0.88423018  0.49948217  0.37707989  1
  V  V43  1  0.88163092  0.87498024  0.49706272  1
  V  V44  1  0.61552423  0.00464824  0.62332607  1
  V  V45  1  0.03741216  0.13132125  0.61751440  1
  V  V46  1  0.48749251  0.87610376  0.37034889  1
  V  V47  1  0.51259665  0.10209830  0.13376892  1
  V  V48  1  0.11959425  0.23872284  0.38909292  1
  V  V49  1  0.87952855  0.38597048  0.00180717  1
  V  V50  1  0.74653369  0.88366970  0.12193610  1
  V  V51  1  0.26395699  0.11817274  0.37513913  1
  V  V52  1  0.13575651  0.25878374  0.88553631  1
  V  V53  1  0.89170057  0.75091060  0.62530478  1
  V  V54  1  0.75179565  0.23577438  0.50088452  1
  V  V55  1  0.00000086  0.86403593  0.36371999  1
  V  V56  1  0.13168845  0.37862237  0.25067788  1
  V  V57  1  0.74846080  0.37966277  0.12492064  1
  V  V58  1  0.75049187  -0.00091434  0.75735330  1
  V  V59  1  0.28833870  0.36442837  0.61810646  1
  V  V60  1  0.61327568  0.86170499  0.75368537  1
  V  V61  1  0.87655626  0.37667181  0.51579265  1
  V  V62  1  0.88809938  0.63113822  0.24769636  1
  V  V63  1  0.12140737  0.36590984  0.73666095  1
  V  V64  1  0.10694368  0.00651517  0.12453406  1
  V  V65  1  0.26375248  0.13289946  0.88474434  1
  V  V66  1  0.87968990  0.50376571  0.87371189  1
  V  V67  1  0.50480720  0.71985912  0.24726072  1
  V  V68  1  0.12545270  0.66525386  0.49134158  1
  V  V69  1  0.50448793  0.48448700  -0.00283014  1
  Zn  Zn70  1  0.48062270  0.75237980  0.74232640  1
  Zn  Zn71  1  0.62702823  0.25992622  0.35624009  1
  Zn  Zn72  1  0.06090199  0.54188680  0.57889087  1
  Zn  Zn73  1  0.74894010  0.76538556  -0.00272625  1
  Zn  Zn74  1  0.03193269  -0.00191834  0.50964254  1
  Zn  Zn75  1  0.61674081  0.13057648  0.49523668  1
  Zn  Zn76  1  0.19727483  0.19499069  0.18832221  1
  Zn  Zn77  1  0.20551430  0.18922080  0.69898082  1
  Zn  Zn78  1  0.18159630  0.68336667  0.17756272  1
  Zn  Zn79  1  0.12969267  0.70555662  0.67563588  1
  Zn  Zn80  1  0.68082058  0.18753797  0.17918577  1
  Zn  Zn81  1  0.69199650  0.18259676  0.68362139  1
  Zn  Zn82  1  0.69338555  0.69226367  0.18598968  1
  Zn  Zn83  1  0.68253559  0.68139723  0.68502899  1
  Zn  Zn84  1  0.26908316  0.36096130  0.38296172  1
  Zn  Zn85  1  0.32644507  0.30570996  0.80960523  1
  Zn  Zn86  1  0.31885867  0.81807304  0.27343425  1
  Zn  Zn87  1  0.25255066  0.77886479  0.74506765  1
  Zn  Zn88  1  0.78779453  0.28773975  0.29476826  1
  Zn  Zn89  1  0.81223093  0.31485606  0.80654798  1
  Zn  Zn90  1  0.81623031  0.81362585  0.30846348  1
  Zn  Zn91  1  0.80641986  0.82132298  0.80726341  1
  Zn  Zn92  1  0.19261434  0.52712349  0.43637799  1
  Zn  Zn93  1  0.17193958  0.47171904  0.91018816  1
  Zn  Zn94  1  0.19764869  0.92395308  0.42028430  1
  Zn  Zn95  1  0.15971410  0.96357730  0.91115838  1
  Zn  Zn96  1  0.71172974  0.43567193  0.43736038  1
  Zn  Zn97  1  0.69142938  0.43812321  0.93530838  1
  Zn  Zn98  1  0.68733275  0.93881654  0.43721466  1
  Zn  Zn99  1  0.67905191  0.94790318  0.93568855  1
  Zn  Zn100  1  0.30669647  0.06426071  0.06384118  1
  Zn  Zn101  1  0.29987192  0.04878023  0.56991377  1
  Zn  Zn102  1  0.32051789  0.56231384  0.06310095  1
  Zn  Zn103  1  0.31244490  0.56750049  0.56523641  1
  Zn  Zn104  1  0.64492555  0.12089858  0.00098971  1
  Zn  Zn105  1  0.80758705  0.05599449  0.56507654  1
  Zn  Zn106  1  0.81288097  0.56936550  0.06159642  1
  Zn  Zn107  1  0.81952751  0.56417085  0.56397768  1
  Zn  Zn108  1  0.33240156  0.41620290  0.22515050  1
  Zn  Zn109  1  0.45951839  0.43624026  0.68058744  1
  Zn  Zn110  1  0.43657189  0.92904355  0.17739323  1
  Zn  Zn111  1  0.42624365  0.94081021  0.69409673  1
  Zn  Zn112  1  0.93552661  0.43179432  0.19438915  1
  Zn  Zn113  1  0.94454785  0.44738009  0.69278368  1
  Zn  Zn114  1  0.93102259  0.94735250  0.18733671  1
  Zn  Zn115  1  0.93999748  1.04043776  0.71405492  1
  Zn  Zn116  1  0.06012997  0.05736434  0.31811995  1
  Zn  Zn117  1  0.07384537  0.08553537  0.80648473  1
  Zn  Zn118  1  0.06839546  0.56795335  0.31291144  1
  Zn  Zn119  1  0.06505071  0.55863969  0.78672019  1
  Zn  Zn120  1  0.55995554  0.06614730  0.32057098  1
  Zn  Zn121  1  0.56321556  0.04872174  0.82875380  1
  Zn  Zn122  1  0.57584416  0.45852553  0.33099658  1
  Zn  Zn123  1  0.56300543  0.56138670  0.81385991  1
  Zn  Zn124  1  0.45588362  0.18133426  0.42062113  1
  Zn  Zn125  1  0.43439580  0.19656969  0.94077523  1
  Zn  Zn126  1  0.30457879  0.69503648  0.42552886  1
  Zn  Zn127  1  0.43001515  0.68308699  0.93054611  1
  Zn  Zn128  1  0.94618672  0.19012682  0.45352479  1
  Zn  Zn129  1  0.95129046  0.20659831  0.95265686  1
  Zn  Zn130  1  0.94253989  0.68573422  0.43884123  1
  Zn  Zn131  1  0.93355834  0.68518073  0.94484157  1
  Zn  Zn132  1  0.05777680  0.31269915  0.06505590  1
  Zn  Zn133  1  0.10291138  0.36921288  0.52331521  1
  Zn  Zn134  1  0.08568996  0.80521279  0.06106828  1
  Zn  Zn135  1  0.17079779  0.86899529  0.57155224  1
  Zn  Zn136  1  0.56492568  0.30624045  0.07417689  1
  Zn  Zn137  1  0.59775288  0.35307151  0.51477801  1
  Zn  Zn138  1  0.56643668  0.80825709  0.07529308  1
  Zn  Zn139  1  0.55474165  0.80612807  0.55959582  1
  O  O140  1  0.12544429  0.12701976  0.11395978  1
  O  O141  1  0.13629540  0.14507168  0.61991224  1
  O  O142  1  0.10549598  0.62561786  0.11428618  1
  O  O143  1  0.13527145  0.63146667  0.59536245  1
  O  O144  1  0.61671391  0.12122039  0.11360947  1
  O  O145  1  0.62075357  0.10648856  0.62324906  1
  O  O146  1  0.63882391  0.61763030  0.11105695  1
  O  O147  1  0.61315841  0.61670121  0.62509707  1
  O  O148  1  0.37250562  0.39393752  0.34184224  1
  O  O149  1  0.39095196  0.37918213  0.87171614  1
  O  O150  1  0.38999890  0.87342047  0.35922847  1
  O  O151  1  0.38148344  0.87605213  0.88792173  1
  O  O152  1  0.88034815  0.38635023  0.37457295  1
  O  O153  1  0.88270612  0.38237297  0.87959743  1
  O  O154  1  0.88278876  0.87815247  0.37757960  1
  O  O155  1  0.90552350  0.83973461  0.87252049  1
  O  O156  1  0.24709762  0.01409837  0.36604450  1
  O  O157  1  0.26420496  0.01174216  0.88055701  1
  O  O158  1  0.26516340  0.47687185  0.37060440  1
  O  O159  1  0.27479495  0.48306142  0.85677904  1
  O  O160  1  0.76196014  -0.00144703  0.36991008  1
  O  O161  1  0.75803086  -0.03476153  0.85328023  1
  O  O162  1  0.76377601  0.50926697  0.36535981  1
  O  O163  1  0.76140115  0.51006426  0.86397030  1
  O  O164  1  0.26350493  0.48273049  0.12738911  1
  O  O165  1  0.26763407  0.47194056  0.63038973  1
  O  O166  1  0.23557141  1.01656560  0.13923459  1
  O  O167  1  0.23928376  0.99716609  0.65400097  1
  O  O168  1  0.74666828  0.49952334  0.12910549  1
  O  O169  1  0.74172633  0.51952736  0.63698578  1
  O  O170  1  0.75580382  0.98412907  0.14767006  1
  O  O171  1  0.73094211  0.98490094  0.62201410  1
  O  O172  1  0.00439012  0.36258707  0.25723937  1
  O  O173  1  0.01717945  0.37312900  0.75658033  1
  O  O174  1  0.00445090  0.88327444  0.25610331  1
  O  O175  1  0.02836918  0.88437965  0.72759306  1
  O  O176  1  0.50065397  0.29312282  0.27297902  1
  O  O177  1  0.52087506  0.35042735  0.74405055  1
  O  O178  1  0.51410105  0.88837014  0.26300575  1
  O  O179  1  0.50679679  0.87012307  0.74493739  1
  O  O180  1  0.50163892  0.11440982  0.23367017  1
  O  O181  1  0.48956016  0.10101424  0.75817565  1
  O  O182  1  0.52571184  0.62651935  0.25026388  1
  O  O183  1  0.48984840  0.62758632  0.75279488  1
  O  O184  1  0.99988893  0.13662855  0.25291842  1
  O  O185  1  1.01311329  0.13505890  0.72617145  1
  O  O186  1  0.99505007  0.61917413  0.23492065  1
  O  O187  1  0.97947348  0.64438630  0.77006857  1
  O  O188  1  0.37798862  0.27148010  0.00265470  1
  O  O189  1  0.37168648  0.22783502  0.49900344  1
  O  O190  1  0.38293868  0.74503791  0.01634056  1
  O  O191  1  0.37287300  0.75418418  0.50057657  1
  O  O192  1  0.87160471  0.26236012  0.01035673  1
  O  O193  1  0.86988117  0.25658950  0.51440350  1
  O  O194  1  0.86545254  0.74676796  0.01758953  1
  O  O195  1  0.86971341  0.75339125  0.50890314  1
  O  O196  1  0.11333080  0.25726091  0.48765384  1
  O  O197  1  0.12362603  0.24339465  0.99571015  1
  O  O198  1  0.13066551  0.76252503  0.48827980  1
  O  O199  1  0.11174313  0.72252542  0.98704407  1
  O  O200  1  0.64609879  0.24863201  0.51687442  1
  O  O201  1  0.64537735  0.25017863  1.00987639  1
  O  O202  1  0.63533211  0.75449957  0.48721917  1
  O  O203  1  0.63131468  0.73637023  1.00754978  1
  O  O204  1  0.49126620  0.23638429  0.12355717  1
  O  O205  1  0.55506347  0.29035829  0.70530933  1
  O  O206  1  0.50311406  0.74880226  0.14763868  1
  O  O207  1  0.50337805  0.73187387  0.62798245  1
  O  O208  1  0.98761648  0.25144229  0.13376124  1
  O  O209  1  0.98180521  0.22984912  0.61350560  1
  O  O210  1  0.98696382  0.76312401  0.11586369  1
  O  O211  1  0.98704187  0.75817478  0.62978008  1
  O  O212  1  0.00275160  0.25098234  0.36434688  1
  O  O213  1  0.01441790  0.26331323  0.87577698  1
  O  O214  1  -0.00672361  0.76512267  0.36854387  1
  O  O215  1  -0.04513329  0.78044624  0.87207939  1
  O  O216  1  0.47649206  0.30921032  0.42573923  1
  O  O217  1  0.52830628  0.24129825  0.88062508  1
  O  O218  1  0.51254915  0.76361154  0.36027134  1
  O  O219  1  0.48687132  0.76360145  0.86591746  1
  O  O220  1  0.25213500  0.12586204  0.49172552  1
  O  O221  1  0.24067058  0.12536039  0.98851407  1
  O  O222  1  0.24260808  0.62422505  0.49324269  1
  O  O223  1  0.23304117  0.61611022  1.00372232  1
  O  O224  1  0.74460861  0.13111951  0.50248988  1
  O  O225  1  0.76180197  0.14691237  0.99414112  1
  O  O226  1  0.76579585  0.63675203  0.48721801  1
  O  O227  1  0.74399230  0.62355989  0.98533419  1
  O  O228  1  0.23298889  0.38335108  0.00178173  1
  O  O229  1  0.25904876  0.34647669  0.51082438  1
  O  O230  1  0.20647844  0.85814243  -0.03139782  1
  O  O231  1  0.27383023  0.87728561  0.49595843  1
  O  O232  1  0.76202321  0.37525167  0.00693235  1
  O  O233  1  0.77227510  0.36625597  0.50636780  1
  O  O234  1  0.73397025  0.88582083  0.01680900  1
  O  O235  1  0.75599351  0.86252675  0.50128100  1
  O  O236  1  0.11965675  0.47733417  0.25672519  1
  O  O237  1  0.15545640  0.47207062  0.75790190  1
  O  O238  1  0.12256391  1.00299823  0.23567830  1
  O  O239  1  0.14325550  0.99354296  0.79612565  1
  O  O240  1  0.64109143  0.49863403  0.24381544  1
  O  O241  1  0.64084567  0.50444137  0.75117280  1
  O  O242  1  0.64078386  0.99248964  0.27147371  1
  O  O243  1  0.62543390  0.98373572  0.73581813  1
  O  O244  1  0.35584089  -0.00342745  0.23711212  1
  O  O245  1  0.36268991  0.00481454  0.76820755  1
  O  O246  1  0.37859589  0.52062557  0.24028181  1
  O  O247  1  0.38444499  0.49095118  0.75841661  1
  O  O248  1  0.86465593  0.00058006  0.26704372  1
  O  O249  1  0.84614918  -0.01664565  0.72743294  1
  O  O250  1  0.87223718  0.51250364  0.25584791  1
  O  O251  1  0.86566950  0.52072274  0.75269199  1
  O  O252  1  0.11357875  0.35456016  0.36310619  1
  O  O253  1  0.11801959  0.37316077  0.87444972  1
  O  O254  1  0.10802132  0.88241631  0.35626349  1
  O  O255  1  0.05180017  0.89980746  0.91455883  1
  O  O256  1  0.62298419  0.37430658  0.39676565  1
  O  O257  1  0.61215528  0.39690481  0.87066852  1
  O  O258  1  0.62419467  0.86492385  0.37085650  1
  O  O259  1  0.60775428  0.87771001  0.86037546  1
  O  O260  1  0.40716301  0.12538227  0.08306148  1
  O  O261  1  0.37065794  0.10732705  0.64417464  1
  O  O262  1  0.36507164  0.63913522  0.13798228  1
  O  O263  1  0.39344427  0.60636687  0.63809638  1
  O  O264  1  0.87241740  0.13890399  0.12199482  1
  O  O265  1  0.87172105  0.11935531  0.63661923  1
  O  O266  1  0.88857944  0.63209483  0.12761706  1
  O  O267  1  0.87649160  0.63751195  0.63563623  1
  O  O268  1  0.29683249  0.21235540  0.13836524  1
  O  O269  1  0.26470315  0.25057975  0.61861400  1
  O  O270  1  0.25245333  0.74974835  0.11365583  1
  O  O271  1  0.19573828  0.79408665  0.64467760  1
  O  O272  1  0.76550908  0.26205874  0.11827781  1
  O  O273  1  0.76894491  0.24080352  0.61886990  1
  O  O274  1  0.75776909  0.76705360  0.12505160  1
  O  O275  1  0.74408653  0.75234337  0.61226577  1
  O  O276  1  0.23727112  0.24066275  0.39397324  1
  O  O277  1  0.25097690  0.24125537  0.87715127  1
  O  O278  1  0.25913857  0.76437799  0.35001315  1
  O  O279  1  0.23763396  0.80372142  0.92869708  1
  O  O280  1  0.75777181  0.25184365  0.39959568  1
  O  O281  1  0.75477695  0.26467424  0.88811094  1
  O  O282  1  0.74797838  0.74560751  0.37864702  1
  O  O283  1  0.75514890  0.74148517  0.87846242  1
  O  O284  1  0.01757414  0.12457492  -0.01015807  1
  O  O285  1  0.01183110  0.11667440  0.51025323  1
  O  O286  1  -0.00172309  0.61538098  0.00901448  1
  O  O287  1  0.02011138  0.63510492  0.50117251  1
  O  O288  1  0.46902071  0.11469124  0.02191500  1
  O  O289  1  0.48956718  0.10147322  0.50534404  1
  O  O290  1  0.51762707  0.62294370  -0.00976652  1
  O  O291  1  0.49612314  0.62635051  0.50793378  1
  O  O292  1  0.48025058  0.34210502  0.49454341  1
  O  O293  1  0.51120456  0.38713564  1.00419600  1
  O  O294  1  0.48521111  0.87084350  0.48776842  1
  O  O295  1  0.51315877  0.86433547  0.99197124  1
  O  O296  1  0.98480767  0.36435405  0.48185252  1
  O  O297  1  0.98951269  0.37254434  0.99027553  1
  O  O298  1  0.98517584  0.87766717  0.48491993  1
  O  O299  1  1.02135678  0.87984927  0.98056268  1
  O  O300  1  0.48298011  0.49756603  0.37292247  1
  O  O301  1  0.49747187  0.49749835  0.88529585  1
  O  O302  1  0.50617843  0.98491287  0.39266699  1
  O  O303  1  0.48028390  0.97723383  0.87573079  1
  O  O304  1  0.99041164  0.49035681  0.36562129  1
  O  O305  1  0.98570893  0.48865940  0.85977920  1
  O  O306  1  0.98603645  0.99220260  0.37993850  1
  O  O307  1  0.97533426  1.01824445  0.83262511  1
  O  O308  1  0.00732461  0.00932388  0.12612620  1
  O  O309  1  0.01560167  0.02428303  0.62576931  1
  O  O310  1  -0.00343343  0.50127103  0.12318504  1
  O  O311  1  0.02306188  0.52390009  0.68087933  1
  O  O312  1  0.50443082  0.00136588  0.12566573  1
  O  O313  1  0.50947580  -0.01653380  0.61455619  1
  O  O314  1  0.51577794  0.50362931  0.11009542  1
  O  O315  1  0.52042560  0.51000600  0.62106976  1
  O  O316  1  0.23140630  0.35871083  0.25783015  1
  O  O317  1  0.26186615  0.36619724  0.73033642  1
  O  O318  1  0.22849161  0.90033591  0.25679477  1
  O  O319  1  0.25954288  0.88919521  0.77309550  1
  O  O320  1  0.77151727  0.39432761  0.23727483  1
  O  O321  1  0.76258131  0.39826968  0.74608568  1
  O  O322  1  0.74246361  0.87863574  0.24845464  1
  O  O323  1  0.73153973  0.87330250  0.73598737  1
  O  O324  1  0.24131889  0.11837813  0.26696461  1
  O  O325  1  0.25859219  0.11640961  0.77097817  1
  O  O326  1  0.24426479  0.61912290  0.24741486  1
  O  O327  1  0.26929788  0.58948593  0.73288381  1
  O  O328  1  0.74450775  0.10963594  0.24547341  1
  O  O329  1  0.73179791  0.09949261  0.75586610  1
  O  O330  1  0.76299719  0.61902443  0.25368345  1
  O  O331  1  0.75381754  0.62583309  0.76363931  1
  O  O332  1  0.36241581  0.12838132  0.37127626  1
  O  O333  1  0.36968280  0.11892794  0.88169347  1
  O  O334  1  0.35909306  0.60587303  0.36346888  1
  O  O335  1  0.37730791  0.60616888  0.85944411  1
  O  O336  1  0.88086660  0.11326360  0.38816130  1
  O  O337  1  0.91280510  0.04398903  0.89029413  1
  O  O338  1  0.87452427  0.62052309  0.36672811  1
  O  O339  1  0.86441278  0.62294041  0.86909962  1
  O  O340  1  0.12771033  0.36899931  0.13603037  1
  O  O341  1  0.12719921  0.35946632  0.63778316  1
  O  O342  1  0.11759540  0.89445897  0.12984097  1
  O  O343  1  0.05872286  0.83396592  0.77008820  1
  O  O344  1  0.64117568  0.38839215  0.12042933  1
  O  O345  1  0.62767675  0.40204118  0.61203813  1
  O  O346  1  0.63639512  0.87358173  0.14192749  1
  O  O347  1  0.62770331  0.87412457  0.62648822  1
  O  O348  1  0.11050504  0.25142828  0.24970579  1
  O  O349  1  0.14246010  0.26493584  0.76810809  1
  O  O350  1  0.12788277  0.77428096  0.23034838  1
  O  O351  1  0.16214491  0.71598132  0.78104797  1
  O  O352  1  0.67850088  0.26668375  0.25633295  1
  O  O353  1  0.62260199  0.26578121  0.73943548  1
  O  O354  1  0.62266780  0.75815563  0.25779396  1
  O  O355  1  0.62346507  0.76123172  0.74780042  1
  O  O356  1  0.44171740  0.25320814  0.28846227  1
  O  O357  1  0.38290244  0.22229830  0.75895769  1
  O  O358  1  0.39538036  0.71669599  0.25939186  1
  O  O359  1  0.35826399  0.72366570  0.75020185  1
  O  O360  1  0.88395874  0.25239589  0.23809910  1
  O  O361  1  0.87533718  0.25222168  0.73615646  1
  O  O362  1  0.87123525  0.73912054  0.23566349  1
  O  O363  1  0.86208359  0.74506061  0.73391968  1
  O  O364  1  0.37185178  0.49616580  0.48863018  1
  O  O365  1  0.39330221  0.50374234  0.98830553  1
  O  O366  1  0.38469188  0.98401290  0.51255075  1
  O  O367  1  0.36470893  0.98748550  0.99711366  1
  O  O368  1  0.87234464  0.48864287  0.49170893  1
  O  O369  1  0.86882464  0.49545338  0.98687470  1
  O  O370  1  0.86425077  0.98703989  0.48924759  1
  O  O371  1  0.89525876  0.99200995  0.93990333  1
  O  O372  1  0.12970304  0.01638605  0.01291793  1
  O  O373  1  0.13590482  -0.04485431  0.51236993  1
  O  O374  1  0.13005495  0.50051220  0.02011357  1
  O  O375  1  0.11639798  0.47752342  0.50400655  1
  O  O376  1  0.61990745  0.04320400  -0.07245145  1
  O  O377  1  0.61536718  -0.00204823  0.50950702  1
  O  O378  1  0.62047814  0.50998725  0.00590084  1
  O  O379  1  0.64774824  0.51266754  0.50236435  1
  O  O380  1  0.37976320  0.35157492  0.14467794  1
  O  O381  1  0.38650950  0.36397273  0.62309387  1
  O  O382  1  0.36938240  0.83945778  0.16588914  1
  O  O383  1  0.37819916  0.86186362  0.62424823  1
  O  O384  1  0.86870483  0.38087034  0.11407618  1
  O  O385  1  0.89202807  0.38259569  0.61504487  1
  O  O386  1  0.86402371  0.86905306  0.13167232  1
  O  O387  1  0.85863218  0.85928856  0.61427930  1
  O  O388  1  0.12486082  0.13652454  0.37623966  1
  O  O389  1  0.13808963  0.14033795  0.88563619  1
  O  O390  1  0.12971785  0.61990697  0.39006768  1
  O  O391  1  0.12034890  0.58329158  0.88969188  1
  O  O392  1  0.57150389  0.16204672  0.38823006  1
  O  O393  1  0.58544494  0.19450006  0.86552469  1
  O  O394  1  0.64541473  0.63581734  0.36894100  1
  O  O395  1  0.63779745  0.62243993  0.88446826  1
