# generated using pymatgen
data_V35Zn35O128
_symmetry_space_group_name_H-M   'P 1'
_cell_length_a   16.89056204
_cell_length_b   16.85751748
_cell_length_c   16.86558714
_cell_angle_alpha   89.89019563
_cell_angle_beta   89.96796826
_cell_angle_gamma   90.29819286
_symmetry_Int_Tables_number   1
_chemical_formula_structural   V35Zn35O128
_chemical_formula_sum   'V70 Zn70 O256'
_cell_volume   4802.11366187
_cell_formula_units_Z   2
loop_
 _symmetry_equiv_pos_site_id
 _symmetry_equiv_pos_as_xyz
  1  'x, y, z'
loop_
 _atom_site_type_symbol
 _atom_site_label
 _atom_site_symmetry_multiplicity
 _atom_site_fract_x
 _atom_site_fract_y
 _atom_site_fract_z
 _atom_site_occupancy
  V  V0  1  0.00114939  0.24759205  0.24960651  1
  V  V1  1  0.87967569  0.12495944  0.25163089  1
  V  V2  1  0.13502690  0.23668432  0.38357966  1
  V  V3  1  0.00655734  0.26014651  0.74168431  1
  V  V4  1  0.74875173  -0.00616342  0.24998974  1
  V  V5  1  0.12210334  0.48996708  0.62767351  1
  V  V6  1  0.50108455  0.74296233  0.75276957  1
  V  V7  1  0.49554395  -0.00531858  -0.00173759  1
  V  V8  1  0.03178366  0.50632246  -0.00376220  1
  V  V9  1  0.39258823  0.00396631  0.36932815  1
  V  V10  1  0.26404305  0.36949971  0.61300531  1
  V  V11  1  0.39165057  0.75449323  0.11720590  1
  V  V12  1  0.74954680  0.38457164  0.60980081  1
  V  V13  1  0.06440719  0.82565406  0.82956147  1
  V  V14  1  0.74462948  -0.00390298  0.74379419  1
  V  V15  1  0.12798759  0.74794979  0.37595348  1
  V  V16  1  0.37490187  0.49186347  0.38526158  1
  V  V17  1  0.01036654  -0.00173773  0.49962149  1
  V  V18  1  0.00525446  0.61977413  0.12034399  1
  V  V19  1  -0.01392337  0.74638797  0.23799893  1
  V  V20  1  0.62203795  0.63062100  -0.00207192  1
  V  V21  1  0.61104903  0.25043098  0.39389552  1
  V  V22  1  -0.00464389  0.37717579  0.37528418  1
  V  V23  1  0.13028239  0.39207719  0.24786414  1
  V  V24  1  0.87242859  -0.00735847  0.38236551  1
  V  V25  1  0.89187371  0.74317176  0.62444947  1
  V  V26  1  0.49272385  0.75979784  0.27358055  1
  V  V27  1  0.93163268  0.18381049  0.07840068  1
  V  V28  1  0.25337648  0.01569291  0.25285100  1
  V  V29  1  0.87462884  0.40388948  -0.00390241  1
  V  V30  1  0.75242376  0.24779530  0.00929177  1
  V  V31  1  0.89086490  -0.00068228  0.88056723  1
  V  V32  1  0.37518270  0.62464707  0.25004910  1
  V  V33  1  0.61295830  0.87955795  0.26843603  1
  V  V34  1  0.87437581  0.12504903  0.74290949  1
  V  V35  1  0.50505207  0.49796733  0.00436823  1
  V  V36  1  0.50281567  0.35770189  0.86645075  1
  V  V37  1  0.62645709  0.13182267  0.00902387  1
  V  V38  1  0.88500409  0.62058090  0.76143302  1
  V  V39  1  0.00956227  0.12172974  0.61474657  1
  V  V40  1  0.62422173  -0.00836044  0.12191232  1
  V  V41  1  0.37203924  0.63117651  0.73851206  1
  V  V42  1  0.22442114  0.87468413  0.62602915  1
  V  V43  1  0.12674051  0.62684012  0.51054933  1
  V  V44  1  0.11912094  0.25458792  0.89178525  1
  V  V45  1  0.24800678  0.62929899  0.88283559  1
  V  V46  1  0.49802816  0.11809880  0.63437376  1
  V  V47  1  0.74274981  0.58913169  0.87012868  1
  V  V48  1  0.37621517  0.23910287  0.13991109  1
  V  V49  1  0.52357707  0.62439080  0.61830665  1
  V  V50  1  0.74424387  0.13197549  0.87422596  1
  V  V51  1  0.75614389  0.86306790  0.61109058  1
  V  V52  1  0.24120753  0.75159443  0.00080745  1
  V  V53  1  0.25286401  0.38941324  0.12311913  1
  V  V54  1  0.25087475  0.24585188  0.00258790  1
  V  V55  1  0.25231610  0.87588846  0.12100132  1
  V  V56  1  0.10755947  0.00969256  0.11849564  1
  V  V57  1  0.74856338  0.13423463  0.39009330  1
  V  V58  1  0.86398868  0.25087853  0.60590012  1
  V  V59  1  0.75057325  0.40289854  0.12849720  1
  V  V60  1  -0.00831971  0.86825364  0.38015113  1
  V  V61  1  0.12716008  0.87076365  0.24747082  1
  V  V62  1  0.64297970  0.37009454  0.75079516  1
  V  V63  1  0.24454031  0.49492295  0.74984474  1
  V  V64  1  0.25009982  0.62310543  0.37358790  1
  V  V65  1  -0.00933463  0.50051789  0.50188373  1
  V  V66  1  0.62965741  0.85820818  0.75192511  1
  V  V67  1  0.50842993  0.48709749  0.50494650  1
  V  V68  1  0.37881294  0.49319836  0.87736680  1
  V  V69  1  0.86773889  0.51034120  0.35320149  1
  Zn  Zn70  1  0.68721226  0.69457212  0.49494227  1
  Zn  Zn71  1  0.36861603  0.87399713  0.49440168  1
  Zn  Zn72  1  -0.00287732  0.39242364  0.85635899  1
  Zn  Zn73  1  0.50705737  0.87207011  0.88312181  1
  Zn  Zn74  1  0.79320856  0.81393078  0.08432911  1
  Zn  Zn75  1  0.63179586  0.36399112  0.24511739  1
  Zn  Zn76  1  0.18301750  0.19190981  0.18185505  1
  Zn  Zn77  1  0.18725669  0.19029237  0.67865233  1
  Zn  Zn78  1  0.18829999  0.68589063  0.18613167  1
  Zn  Zn79  1  0.17991755  0.69527347  0.69389102  1
  Zn  Zn80  1  0.69950731  0.18087556  0.18788250  1
  Zn  Zn81  1  0.68513808  0.19545803  0.69061762  1
  Zn  Zn82  1  0.64830327  0.71093405  0.16642098  1
  Zn  Zn83  1  0.70245255  0.68424113  0.69279286  1
  Zn  Zn84  1  0.31293758  0.30785900  0.30876474  1
  Zn  Zn85  1  0.30262872  0.31726702  0.81822242  1
  Zn  Zn86  1  0.31235423  0.81743294  0.31623147  1
  Zn  Zn87  1  0.23173161  0.82060150  0.81020334  1
  Zn  Zn88  1  0.81352033  0.31550995  0.31095635  1
  Zn  Zn89  1  0.82036084  0.31317240  0.81565508  1
  Zn  Zn90  1  0.80217181  0.80486008  0.30585965  1
  Zn  Zn91  1  0.83698028  0.81601372  0.80841461  1
  Zn  Zn92  1  0.18656180  0.43441023  0.43612712  1
  Zn  Zn93  1  0.18845853  0.42643934  0.93031323  1
  Zn  Zn94  1  0.19315557  0.94006271  0.43976731  1
  Zn  Zn95  1  0.19129947  0.95677559  0.94123645  1
  Zn  Zn96  1  0.68838959  0.43650919  0.42672698  1
  Zn  Zn97  1  0.67796733  0.42840848  0.94158866  1
  Zn  Zn98  1  0.68445151  0.95394351  0.44251642  1
  Zn  Zn99  1  0.70647793  0.93590829  0.92701254  1
  Zn  Zn100  1  0.30168766  0.06287165  0.04640830  1
  Zn  Zn101  1  0.32719905  0.03250246  0.57257037  1
  Zn  Zn102  1  0.32198365  0.56736803  0.06356777  1
  Zn  Zn103  1  0.30675056  0.55990350  0.55930443  1
  Zn  Zn104  1  0.83574941  -0.00183733  0.07883593  1
  Zn  Zn105  1  0.81826253  0.05566537  0.56403030  1
  Zn  Zn106  1  0.78502062  0.61651152  0.09666746  1
  Zn  Zn107  1  0.81181079  0.56925168  0.57204357  1
  Zn  Zn108  1  0.43115943  0.43741876  0.18774727  1
  Zn  Zn109  1  0.44140806  0.44174944  0.69000354  1
  Zn  Zn110  1  0.43631691  0.94275216  0.18262149  1
  Zn  Zn111  1  0.45004657  0.90470917  0.65804768  1
  Zn  Zn112  1  0.93840476  0.43577261  0.18082909  1
  Zn  Zn113  1  0.92376210  0.44067037  0.67790562  1
  Zn  Zn114  1  0.93511941  0.92701308  0.19478341  1
  Zn  Zn115  1  0.94080897  0.93259399  0.68883071  1
  Zn  Zn116  1  0.06592955  0.05731791  0.30920280  1
  Zn  Zn117  1  0.06658931  0.07482451  0.81166259  1
  Zn  Zn118  1  0.05318358  0.56855167  0.31180297  1
  Zn  Zn119  1  0.06387124  0.57368614  0.81243601  1
  Zn  Zn120  1  0.56588141  0.08350137  0.30161285  1
  Zn  Zn121  1  0.56474724  0.05681530  0.82091517  1
  Zn  Zn122  1  0.55423309  0.56543918  0.31665405  1
  Zn  Zn123  1  0.56560182  0.55215490  0.80589134  1
  Zn  Zn124  1  0.43847647  0.16588990  0.43011427  1
  Zn  Zn125  1  0.45744983  0.20821408  0.98693234  1
  Zn  Zn126  1  0.43763588  0.69254850  0.45410339  1
  Zn  Zn127  1  0.43752633  0.68452229  0.93235851  1
  Zn  Zn128  1  0.94186884  0.18580579  0.43084228  1
  Zn  Zn129  1  0.93757867  0.18683146  0.91884823  1
  Zn  Zn130  1  0.93436001  0.68227480  0.43866042  1
  Zn  Zn131  1  0.90588790  0.64435652  0.96953450  1
  Zn  Zn132  1  0.06030537  0.32804128  0.06711409  1
  Zn  Zn133  1  0.06408273  0.31361162  0.55829211  1
  Zn  Zn134  1  0.06191718  0.81478179  0.05187474  1
  Zn  Zn135  1  0.06198033  0.81046507  0.56472112  1
  Zn  Zn136  1  0.56198699  0.32499923  0.06409793  1
  Zn  Zn137  1  0.56182126  0.31090871  0.57287686  1
  Zn  Zn138  1  0.61149448  0.83344826  0.03113620  1
  Zn  Zn139  1  0.57880807  0.85923478  0.53501290  1
  O  O140  1  0.12116811  0.10938167  0.12975513  1
  O  O141  1  0.10791908  0.13033423  0.61812516  1
  O  O142  1  0.10625715  0.63764143  0.12420884  1
  O  O143  1  0.12861275  0.62124087  0.61399174  1
  O  O144  1  0.63384353  0.11591755  0.11327783  1
  O  O145  1  0.60416504  0.12943800  0.62751722  1
  O  O146  1  0.62494577  0.62177979  0.10077314  1
  O  O147  1  0.62275914  0.62269799  0.62989119  1
  O  O148  1  0.36840348  0.39456721  0.36356663  1
  O  O149  1  0.37782496  0.38706370  0.87081761  1
  O  O150  1  0.37054259  0.89248620  0.37411963  1
  O  O151  1  0.37355142  0.91088095  0.83865586  1
  O  O152  1  0.89078078  0.38367005  0.36563896  1
  O  O153  1  0.88537864  0.36784425  0.89531477  1
  O  O154  1  0.88195039  0.87805403  0.36565498  1
  O  O155  1  0.87582105  0.89970045  0.87057166  1
  O  O156  1  0.24155020  -0.00191246  0.35371545  1
  O  O157  1  0.27415626  0.02938077  0.93867739  1
  O  O158  1  0.26042379  0.51253967  0.37911017  1
  O  O159  1  0.25778412  0.50592627  0.87135804  1
  O  O160  1  0.75449899  0.00745976  0.36942718  1
  O  O161  1  0.76206375  0.01214107  0.86005639  1
  O  O162  1  0.76978721  0.48819209  0.36676100  1
  O  O163  1  0.74846196  0.48984148  0.87209231  1
  O  O164  1  0.26063880  0.48952727  0.12112597  1
  O  O165  1  0.24084736  0.49359173  0.63191658  1
  O  O166  1  0.24200394  0.98880003  0.13185099  1
  O  O167  1  0.22434475  0.99699697  0.59157409  1
  O  O168  1  0.75359294  0.50247106  0.12523705  1
  O  O169  1  0.76396120  0.48176701  0.62966032  1
  O  O170  1  0.73861484  1.00784562  0.14248294  1
  O  O171  1  0.76391633  0.98658321  0.63891571  1
  O  O172  1  0.00886772  0.36794991  0.25124893  1
  O  O173  1  -0.01203270  0.36269801  0.73982024  1
  O  O174  1  0.00838807  0.86380191  0.26006406  1
  O  O175  1  0.00798349  0.87601542  0.76347554  1
  O  O176  1  0.52465305  0.41649679  0.25272689  1
  O  O177  1  0.49190367  0.36736042  0.76340362  1
  O  O178  1  0.50386043  0.87199001  0.25077875  1
  O  O179  1  0.51818055  0.86347932  0.73975203  1
  O  O180  1  0.55129771  0.17997327  0.23687324  1
  O  O181  1  0.50595545  0.12244033  0.73942749  1
  O  O182  1  0.48719041  0.64688991  0.26156145  1
  O  O183  1  0.48947432  0.62111627  0.74495969  1
  O  O184  1  0.98938859  0.13103447  0.25722079  1
  O  O185  1  0.99390802  0.13170665  0.73136645  1
  O  O186  1  0.99627504  0.63725464  0.23538066  1
  O  O187  1  0.98337011  0.64265849  0.77636682  1
  O  O188  1  0.35066395  0.24701537  -0.01025948  1
  O  O189  1  0.34274025  0.20893084  0.50379866  1
  O  O190  1  0.37794285  0.74341515  0.01473242  1
  O  O191  1  0.36948363  0.76008184  0.50871551  1
  O  O192  1  0.87408418  0.24040980  0.00947911  1
  O  O193  1  0.87995597  0.24621098  0.50765774  1
  O  O194  1  0.84194788  0.75793880  -0.02863009  1
  O  O195  1  0.88334646  0.73881478  0.52163633  1
  O  O196  1  0.12032364  0.25112619  0.48350315  1
  O  O197  1  0.11601745  0.25843009  0.99521895  1
  O  O198  1  0.11047919  0.73342712  0.48985275  1
  O  O199  1  0.14307556  0.74579701  1.00058166  1
  O  O200  1  0.62483817  0.25623452  0.49306146  1
  O  O201  1  0.63215658  0.23824188  1.00633689  1
  O  O202  1  0.60586106  0.76264283  0.49278823  1
  O  O203  1  0.60815670  0.72975486  0.98604667  1
  O  O204  1  0.47297306  0.25870709  0.09651889  1
  O  O205  1  0.49110790  0.22538434  0.62888352  1
  O  O206  1  0.48914868  0.75623017  0.13339813  1
  O  O207  1  0.50381054  0.72703479  0.64378945  1
  O  O208  1  0.99420843  0.25131841  0.13197766  1
  O  O209  1  0.99074808  0.24243374  0.62538230  1
  O  O210  1  1.00102625  0.75723491  0.13527113  1
  O  O211  1  0.99149399  0.75370971  0.63515514  1
  O  O212  1  0.00589234  0.25915832  0.36707500  1
  O  O213  1  0.00275217  0.25389325  0.85420532  1
  O  O214  1  0.00458071  0.75185172  0.36555858  1
  O  O215  1  0.00139065  0.76059504  0.89590579  1
  O  O216  1  0.51000516  0.24157015  0.38639594  1
  O  O217  1  0.48759305  0.26066112  0.88715964  1
  O  O218  1  0.48969397  0.76076343  0.37153558  1
  O  O219  1  0.48819060  0.75917539  0.85923169  1
  O  O220  1  0.29515592  0.15674503  0.52881526  1
  O  O221  1  0.22722987  0.14963100  1.01250922  1
  O  O222  1  0.23377744  0.62363461  0.49055744  1
  O  O223  1  0.26088595  0.63514419  0.99067703  1
  O  O224  1  0.75596774  0.11458897  0.48836958  1
  O  O225  1  0.74015602  0.13156969  0.99187527  1
  O  O226  1  0.75188040  0.61086423  0.49144969  1
  O  O227  1  0.73406242  0.61727873  0.98183572  1
  O  O228  1  0.23941912  0.36759184  0.01838677  1
  O  O229  1  0.24957264  0.37808178  0.51254732  1
  O  O230  1  0.25072824  0.86118944  0.00931449  1
  O  O231  1  0.25028896  0.87768220  0.51212986  1
  O  O232  1  0.75999142  0.37128005  0.00618764  1
  O  O233  1  0.74474509  0.37883769  0.51086146  1
  O  O234  1  0.71933671  0.86894361  0.01362799  1
  O  O235  1  0.75191286  0.88409431  0.51365398  1
  O  O236  1  0.11865762  0.49081060  0.25456585  1
  O  O237  1  0.13120764  0.51422368  0.73745717  1
  O  O238  1  0.13247692  0.98735634  0.24182943  1
  O  O239  1  0.16606472  1.03812244  0.75135331  1
  O  O240  1  0.58065670  0.48305942  0.24033264  1
  O  O241  1  0.61364000  0.47008598  0.74594179  1
  O  O242  1  0.62854064  0.99674165  0.24472451  1
  O  O243  1  0.64247776  0.99848124  0.75037716  1
  O  O244  1  0.35869042  -0.00449729  0.25039933  1
  O  O245  1  0.37604619  -0.03393285  0.78989130  1
  O  O246  1  0.38484590  0.52131495  0.26149324  1
  O  O247  1  0.36454170  0.50860269  0.75890835  1
  O  O248  1  0.86789066  0.00401817  0.26194663  1
  O  O249  1  0.87180823  0.01203239  0.75068880  1
  O  O250  1  0.88411961  0.50432376  0.25339112  1
  O  O251  1  0.88797321  0.51861428  0.74943588  1
  O  O252  1  0.11788577  0.37051108  0.36195370  1
  O  O253  1  0.11075292  0.36379065  0.87138599  1
  O  O254  1  0.11600830  0.86571389  0.36801243  1
  O  O255  1  0.14436082  0.88664853  0.86485706  1
  O  O256  1  0.64040047  0.34925568  0.36183410  1
  O  O257  1  0.61203610  0.36859815  0.86592197  1
  O  O258  1  0.61854285  0.88543158  0.36631488  1
  O  O259  1  0.62591333  0.88308557  0.85497075  1
  O  O260  1  0.36265612  0.14138768  0.11639501  1
  O  O261  1  0.39380681  0.10746387  0.64170972  1
  O  O262  1  0.37168805  0.63985241  0.14238531  1
  O  O263  1  0.36914033  0.61761386  0.63791114  1
  O  O264  1  0.87655062  0.11371979  0.13589325  1
  O  O265  1  0.88027189  0.13409949  0.62624970  1
  O  O266  1  0.90049298  0.64037962  0.08845609  1
  O  O267  1  0.87584617  0.63315638  0.64384012  1
  O  O268  1  0.25734837  0.25979492  0.12076978  1
  O  O269  1  0.24950306  0.27097204  0.63779174  1
  O  O270  1  0.25713856  0.75304209  0.11460741  1
  O  O271  1  0.23327086  0.77077912  0.62795172  1
  O  O272  1  0.75567137  0.24803663  0.11210805  1
  O  O273  1  0.76167495  0.24642064  0.62003082  1
  O  O274  1  0.75593848  0.72144590  0.13841073  1
  O  O275  1  0.75310636  0.75642427  0.61548477  1
  O  O276  1  0.23392196  0.25233487  0.36780272  1
  O  O277  1  0.22943111  0.26718500  0.89142795  1
  O  O278  1  0.23482589  0.74400262  0.37077132  1
  O  O279  1  0.26358905  0.74185879  0.88835442  1
  O  O280  1  0.75970622  0.23554047  0.37740567  1
  O  O281  1  0.76168849  0.24014397  0.88911908  1
  O  O282  1  0.73687847  0.72539583  0.36797906  1
  O  O283  1  0.79057479  0.76485486  0.91426500  1
  O  O284  1  -0.01044725  0.13643444  0.01414301  1
  O  O285  1  -0.00703287  0.11271025  0.50628993  1
  O  O286  1  0.01613225  0.61255000  0.00079168  1
  O  O287  1  0.01563670  0.60850065  0.49048026  1
  O  O288  1  0.52109210  0.11309376  -0.00645128  1
  O  O289  1  0.49072851  0.11794473  0.52892093  1
  O  O290  1  0.50955366  0.60785589  -0.01924138  1
  O  O291  1  0.50370417  0.62152786  0.51495437  1
  O  O292  1  0.49620726  0.38772913  0.51838849  1
  O  O293  1  0.50541870  0.38929748  0.98143373  1
  O  O294  1  0.46854335  0.86291291  0.55373054  1
  O  O295  1  0.51371861  0.88845489  1.00213941  1
  O  O296  1  1.00972779  0.38976699  0.48640798  1
  O  O297  1  0.98769932  0.39972446  1.01202613  1
  O  O298  1  1.00257491  0.88348648  0.48866665  1
  O  O299  1  1.01523578  0.83230113  0.94030976  1
  O  O300  1  0.48334980  0.51119580  0.39259326  1
  O  O301  1  0.48617715  0.49151584  0.87271726  1
  O  O302  1  0.49291807  1.01204395  0.34998799  1
  O  O303  1  0.50147799  0.99494600  0.89107235  1
  O  O304  1  0.99363653  0.49501361  0.38119734  1
  O  O305  1  1.01532914  0.50214367  0.89117160  1
  O  O306  1  0.99214410  0.98976200  0.37940090  1
  O  O307  1  0.99093928  1.01400401  0.86634504  1
  O  O308  1  0.00955586  -0.00432341  0.14044658  1
  O  O309  1  -0.00702852  0.00914165  0.61162529  1
  O  O310  1  0.00207462  0.51394910  0.11588316  1
  O  O311  1  0.00665744  0.49146372  0.60951995  1
  O  O312  1  0.51822720  0.00328433  0.12306706  1
  O  O313  1  0.50901163  0.01436337  0.63819689  1
  O  O314  1  0.48124063  0.49693597  0.10130581  1
  O  O315  1  0.49686138  0.51362883  0.61592790  1
  O  O316  1  0.23540659  0.37609962  0.24314140  1
  O  O317  1  0.24926170  0.39148460  0.74710772  1
  O  O318  1  0.23849993  0.86990502  0.23913565  1
  O  O319  1  0.24889644  0.89138949  0.72751876  1
  O  O320  1  0.75477160  0.37237156  0.22980097  1
  O  O321  1  0.74716459  0.36924673  0.74901759  1
  O  O322  1  0.73179446  0.88396132  0.25952187  1
  O  O323  1  0.74613008  0.88342350  0.75395364  1
  O  O324  1  0.24478343  0.11379768  0.24271543  1
  O  O325  1  0.22048537  0.09171360  0.74206537  1
  O  O326  1  0.26397344  0.63440513  0.25892035  1
  O  O327  1  0.25770347  0.62247683  0.75900710  1
  O  O328  1  0.76098840  0.11573869  0.26225943  1
  O  O329  1  0.75419032  0.11794557  0.74983009  1
  O  O330  1  0.70084800  0.66540102  0.32476069  1
  O  O331  1  0.75400797  0.61719405  0.76719005  1
  O  O332  1  0.36783957  0.10584587  0.36788133  1
  O  O333  1  0.35628404  0.15475231  0.81971462  1
  O  O334  1  0.36505915  0.62720826  0.37068748  1
  O  O335  1  0.36764689  0.61407715  0.86383173  1
  O  O336  1  0.86921398  0.11398096  0.36960712  1
  O  O337  1  0.86632422  0.12144937  0.85837074  1
  O  O338  1  0.87976214  0.60991897  0.37164055  1
  O  O339  1  0.85361656  0.62313367  0.87168515  1
  O  O340  1  0.13377306  0.37541884  0.14003100  1
  O  O341  1  0.13138554  0.38665253  0.62228363  1
  O  O342  1  0.13094909  0.87331697  0.13224986  1
  O  O343  1  0.12211079  0.88553888  0.62241108  1
  O  O344  1  0.64614124  0.37413933  0.12237870  1
  O  O345  1  0.64338057  0.36425158  0.63499983  1
  O  O346  1  0.62475901  0.88905287  0.14035671  1
  O  O347  1  0.64860620  0.87076703  0.64270176  1
  O  O348  1  0.11171758  0.25395371  0.25454952  1
  O  O349  1  0.10741307  0.25127079  0.74128407  1
  O  O350  1  0.11626497  0.75470503  0.25701739  1
  O  O351  1  0.12453839  0.75717569  0.77703260  1
  O  O352  1  0.61554323  0.23231359  0.25623686  1
  O  O353  1  0.62220794  0.26535832  0.75168694  1
  O  O354  1  0.60486148  0.76707145  0.25322526  1
  O  O355  1  0.62421790  0.75382867  0.75478288  1
  O  O356  1  0.38089587  0.24563623  0.24041999  1
  O  O357  1  0.33956123  0.21046242  0.77278811  1
  O  O358  1  0.38255833  0.74990298  0.24673156  1
  O  O359  1  0.38209420  0.73240854  0.74807277  1
  O  O360  1  0.88649938  0.23794770  0.25463956  1
  O  O361  1  0.88278181  0.23877719  0.74066491  1
  O  O362  1  0.88776437  0.75568170  0.24962987  1
  O  O363  1  0.86073485  0.73487096  0.73946512  1
  O  O364  1  0.37759535  0.50162286  0.49039012  1
  O  O365  1  0.38141730  0.50828119  0.98184795  1
  O  O366  1  0.38166000  0.99886268  0.47705653  1
  O  O367  1  0.40045657  1.00138726  1.02313105  1
  O  O368  1  0.89108437  0.50395325  0.49926374  1
  O  O369  1  0.87155491  0.50098069  0.98985993  1
  O  O370  1  0.88355431  0.99728348  0.48652228  1
  O  O371  1  0.87403146  1.01869087  0.97832514  1
  O  O372  1  0.11348971  -0.01446771  0.01987749  1
  O  O373  1  0.10735266  0.00469962  0.48549438  1
  O  O374  1  0.12881353  0.49450218  0.00602905  1
  O  O375  1  0.12226729  0.50966971  0.50805587  1
  O  O376  1  0.62674176  0.00695171  0.01292539  1
  O  O377  1  0.59987235  -0.03290070  0.51044343  1
  O  O378  1  0.61077532  0.50315326  -0.00152130  1
  O  O379  1  0.60663769  0.49481914  0.48383298  1
  O  O380  1  0.35722606  0.36540650  0.13786445  1
  O  O381  1  0.36233140  0.38464288  0.62911341  1
  O  O382  1  0.36475915  0.86211638  0.13176183  1
  O  O383  1  0.34621131  0.92702552  0.62448594  1
  O  O384  1  0.86266231  0.38422320  0.10802588  1
  O  O385  1  0.86307941  0.35820161  0.62427200  1
  O  O386  1  0.86500114  0.89404289  0.11580720  1
  O  O387  1  0.86498765  0.85837689  0.63735018  1
  O  O388  1  0.11776750  0.13723021  0.37096626  1
  O  O389  1  0.11915613  0.15461929  0.87121895  1
  O  O390  1  0.13149668  0.62951697  0.37572064  1
  O  O391  1  0.14992796  0.62197800  0.87418143  1
  O  O392  1  0.64050721  0.13647873  0.37887172  1
  O  O393  1  0.63853557  0.11764347  0.88506798  1
  O  O394  1  0.64516253  0.62757857  0.36938103  1
  O  O395  1  0.63661578  0.61100535  0.87414004  1
