# generated using pymatgen
data_V35Zn35O128
_symmetry_space_group_name_H-M   'P 1'
_cell_length_a   16.97621062
_cell_length_b   16.90401156
_cell_length_c   16.94396113
_cell_angle_alpha   89.88178736
_cell_angle_beta   90.10920296
_cell_angle_gamma   89.85807901
_symmetry_Int_Tables_number   1
_chemical_formula_structural   V35Zn35O128
_chemical_formula_sum   'V70 Zn70 O256'
_cell_volume   4862.30763263
_cell_formula_units_Z   2
loop_
 _symmetry_equiv_pos_site_id
 _symmetry_equiv_pos_as_xyz
  1  'x, y, z'
loop_
 _atom_site_type_symbol
 _atom_site_label
 _atom_site_symmetry_multiplicity
 _atom_site_fract_x
 _atom_site_fract_y
 _atom_site_fract_z
 _atom_site_occupancy
  V  V0  1  0.11674534  0.25737610  0.36839157  1
  V  V1  1  0.87796791  0.51934981  0.89136048  1
  V  V2  1  0.36536334  0.62701961  0.76895984  1
  V  V3  1  0.48262072  0.88447581  0.87305851  1
  V  V4  1  0.00296748  0.37088270  0.87487077  1
  V  V5  1  0.37653733  0.88538196  0.50368878  1
  V  V6  1  0.12015891  0.01090530  0.61422311  1
  V  V7  1  0.25802341  0.88207828  0.11643784  1
  V  V8  1  0.26478730  0.10870222  0.36499853  1
  V  V9  1  0.14347727  0.74214351  0.36695056  1
  V  V10  1  0.01709626  0.50287120  0.00388345  1
  V  V11  1  0.50529336  0.11726505  0.62627979  1
  V  V12  1  0.51712007  0.35251996  0.37816156  1
  V  V13  1  0.37784533  0.74013385  0.11997309  1
  V  V14  1  0.27738890  0.62879404  0.36067143  1
  V  V15  1  0.13172833  0.87795456  0.24644303  1
  V  V16  1  0.75072475  0.88192613  0.11783405  1
  V  V17  1  0.87042343  0.74763022  0.12169315  1
  V  V18  1  0.74248403  0.25265261  0.50941951  1
  V  V19  1  0.25977990  0.74086776  0.49686004  1
  V  V20  1  0.22569462  0.38173043  0.61428787  1
  V  V21  1  0.01430554  0.63532909  0.11365800  1
  V  V22  1  0.12188177  0.25325677  0.86515204  1
  V  V23  1  0.00108304  0.88292868  0.87261666  1
  V  V24  1  0.87951265  0.88000909  -0.00006091  1
  V  V25  1  0.72310281  0.12921917  0.37579643  1
  V  V26  1  0.11407027  0.12530388  0.49271987  1
  V  V27  1  0.51261046  0.74698355  0.76046836  1
  V  V28  1  0.11836444  0.00124556  0.12980770  1
  V  V29  1  0.37659726  0.36798059  -0.01411346  1
  V  V30  1  0.92334232  0.12671350  0.75121840  1
  V  V31  1  0.48964660  0.11314956  0.14109532  1
  V  V32  1  0.62816601  0.12308203  0.00706809  1
  V  V33  1  0.87931065  0.85634311  0.51265343  1
  V  V34  1  0.13075560  0.87438424  0.73729779  1
  V  V35  1  0.74751803  0.13153419  0.86425528  1
  V  V36  1  0.62021824  0.37341490  0.20320441  1
  V  V37  1  0.86441887  0.62368954  0.25927082  1
  V  V38  1  0.24324853  0.24521372  -0.00058343  1
  V  V39  1  0.52054850  -0.00153333  0.50535513  1
  V  V40  1  0.87240737  0.36803328  0.01815516  1
  V  V41  1  0.86536328  0.63079950  0.73485469  1
  V  V42  1  0.64107941  0.91128425  0.75826679  1
  V  V43  1  0.11871385  0.13010350  0.00414958  1
  V  V44  1  0.38091526  0.24328411  0.13545654  1
  V  V45  1  0.86889228  0.37714794  0.44076958  1
  V  V46  1  0.47892393  0.00498501  -0.00787520  1
  V  V47  1  0.52064261  0.52706857  -0.01249728  1
  V  V48  1  0.25182999  0.24938372  0.49231080  1
  V  V49  1  0.38278505  0.73672567  0.62641571  1
  V  V50  1  -0.00696703  0.74498093  0.74506534  1
  V  V51  1  0.25372046  0.50655557  0.23903672  1
  V  V52  1  0.00980949  0.74423486  0.24793506  1
  V  V53  1  0.14616703  0.62874068  -0.00787480  1
  V  V54  1  0.38631040  0.47751482  0.37060119  1
  V  V55  1  0.50146307  0.25871790  0.76405136  1
  V  V56  1  0.13639116  0.74953184  0.87039443  1
  V  V57  1  0.56351528  0.49942213  0.59165481  1
  V  V58  1  0.23136381  0.49657960  0.74470683  1
  V  V59  1  0.00147121  0.86948084  0.38451045  1
  V  V60  1  0.63932158  0.87916370  0.25972858  1
  V  V61  1  0.50553868  0.87522178  0.36597966  1
  V  V62  1  0.37380294  0.25345923  0.62115649  1
  V  V63  1  0.49691927  0.73801835  0.24344305  1
  V  V64  1  0.75466783  0.47991641  0.75738127  1
  V  V65  1  0.70099511  0.61658006  0.43895538  1
  V  V66  1  0.35466692  0.11635758  0.75222937  1
  V  V67  1  0.24620651  0.37257576  0.12990852  1
  V  V68  1  0.87295712  0.01284532  0.37853881  1
  V  V69  1  -0.00902851  0.13985415  0.14490558  1
  Zn  Zn70  1  0.38272130  0.47993406  0.86468213  1
  Zn  Zn71  1  0.10922172  0.36734840  0.24856390  1
  Zn  Zn72  1  0.27342091  0.76134434  -0.02004108  1
  Zn  Zn73  1  -0.00492405  0.00818083  0.00001190  1
  Zn  Zn74  1  0.25654374  0.87635205  0.63034038  1
  Zn  Zn75  1  0.84253929  -0.01242383  0.84643253  1
  Zn  Zn76  1  0.19010305  0.18272041  0.19075459  1
  Zn  Zn77  1  0.17939920  0.19272926  0.68045354  1
  Zn  Zn78  1  0.19882435  0.69053104  0.17967849  1
  Zn  Zn79  1  0.18681469  0.67697195  0.67624108  1
  Zn  Zn80  1  0.66110526  0.17128682  0.19922986  1
  Zn  Zn81  1  0.68399840  0.20125935  0.68637421  1
  Zn  Zn82  1  0.67540168  0.69128683  0.29396008  1
  Zn  Zn83  1  0.69914488  0.60879902  0.64250699  1
  Zn  Zn84  1  0.31475201  0.30735921  0.31131941  1
  Zn  Zn85  1  0.29927776  0.30697302  0.80067471  1
  Zn  Zn86  1  0.32662681  0.83221730  0.30503742  1
  Zn  Zn87  1  0.29550771  0.95539054  0.81483320  1
  Zn  Zn88  1  0.72497951  0.32587548  0.31678460  1
  Zn  Zn89  1  0.82671219  0.29821109  0.82856100  1
  Zn  Zn90  1  0.78333212  0.81279300  0.37843031  1
  Zn  Zn91  1  0.81115098  0.81576970  0.80619574  1
  Zn  Zn92  1  0.19695867  0.44211412  0.42724363  1
  Zn  Zn93  1  0.19677506  0.43620055  0.93540285  1
  Zn  Zn94  1  0.18750588  0.93309897  0.43900253  1
  Zn  Zn95  1  0.18270549  0.94096905  0.94302261  1
  Zn  Zn96  1  0.68107654  0.44058943  0.44795614  1
  Zn  Zn97  1  0.69424938  0.43844901  0.93231756  1
  Zn  Zn98  1  0.73596365  0.97289783  0.50437895  1
  Zn  Zn99  1  0.66647813  0.95608868  0.93205544  1
  Zn  Zn100  1  0.30679057  0.06174702  0.06179722  1
  Zn  Zn101  1  0.30417933  0.06409935  0.56778014  1
  Zn  Zn102  1  0.35423482  0.54185351  0.06988980  1
  Zn  Zn103  1  0.34999001  0.53574829  0.56779809  1
  Zn  Zn104  1  0.81356301  0.05972302  0.07578018  1
  Zn  Zn105  1  0.81359988  0.11642965  0.59290239  1
  Zn  Zn106  1  0.86681903  0.51494190  0.11425175  1
  Zn  Zn107  1  0.84143185  0.52640617  0.57014482  1
  Zn  Zn108  1  0.45429791  0.45053618  0.18402658  1
  Zn  Zn109  1  0.42894337  0.43198761  0.68806475  1
  Zn  Zn110  1  0.42550890  0.94853802  0.19494214  1
  Zn  Zn111  1  0.43791203  0.93451468  0.68823508  1
  Zn  Zn112  1  0.89643868  0.39992024  0.24307327  1
  Zn  Zn113  1  0.94103158  0.44598104  0.70715756  1
  Zn  Zn114  1  0.93642406  0.93797422  0.19728775  1
  Zn  Zn115  1  0.94023066  0.94767944  0.67848671  1
  Zn  Zn116  1  0.06592344  0.05995217  0.31800493  1
  Zn  Zn117  1  0.10769510  0.05314926  0.82029787  1
  Zn  Zn118  1  0.03348473  0.51757645  0.23897181  1
  Zn  Zn119  1  0.06072450  0.56631173  0.81420831  1
  Zn  Zn120  1  0.56101665  0.05346172  0.31791418  1
  Zn  Zn121  1  0.55634746  0.08027038  0.81976968  1
  Zn  Zn122  1  0.56197486  0.54833246  0.30422254  1
  Zn  Zn123  1  0.55659980  0.54739673  0.78731175  1
  Zn  Zn124  1  0.44212533  0.18124736  0.43625452  1
  Zn  Zn125  1  0.42739764  0.18076898  0.93583307  1
  Zn  Zn126  1  0.44767309  0.69187918  0.43337416  1
  Zn  Zn127  1  0.44014448  0.69400656  0.93657387  1
  Zn  Zn128  1  0.93301118  0.20140888  0.43834354  1
  Zn  Zn129  1  0.92769544  0.18420065  0.93949215  1
  Zn  Zn130  1  0.94520534  0.68523811  0.43465087  1
  Zn  Zn131  1  0.94709949  0.69892496  0.93962578  1
  Zn  Zn132  1  0.05625012  0.31330973  0.07020892  1
  Zn  Zn133  1  0.02656136  0.43486483  0.53976476  1
  Zn  Zn134  1  0.06789927  0.81470368  0.05603383  1
  Zn  Zn135  1  0.07039907  0.77563952  0.56254296  1
  Zn  Zn136  1  0.58678404  0.33005525  -0.00047911  1
  Zn  Zn137  1  0.55699825  0.31519912  0.56592890  1
  Zn  Zn138  1  0.55411849  0.84060669  0.07280286  1
  Zn  Zn139  1  0.56354521  0.82604454  0.58752338  1
  O  O140  1  0.11631493  0.11908776  0.12429946  1
  O  O141  1  0.12496216  0.11801504  0.61092917  1
  O  O142  1  0.12606087  0.64078343  0.10237246  1
  O  O143  1  0.10847413  0.67294449  0.60011650  1
  O  O144  1  0.59568806  0.11595755  0.12561935  1
  O  O145  1  0.60165149  0.13163101  0.62936724  1
  O  O146  1  0.63688155  0.69116881  0.06749196  1
  O  O147  1  0.59278925  0.56861739  0.66484514  1
  O  O148  1  0.39096404  0.37239695  0.36521895  1
  O  O149  1  0.36062138  0.35974015  0.88188063  1
  O  O150  1  0.39615561  0.86778344  0.40133613  1
  O  O151  1  0.38345358  0.89131458  0.86379887  1
  O  O152  1  0.84226447  0.36536849  0.33775851  1
  O  O153  1  0.89454634  0.38218153  0.89705362  1
  O  O154  1  0.90270439  0.84292443  0.37345430  1
  O  O155  1  0.88222995  0.87790060  0.88297069  1
  O  O156  1  0.24723304  0.01101163  0.38307059  1
  O  O157  1  0.21102853  0.01051243  0.86247524  1
  O  O158  1  0.26241433  0.50752605  0.35509617  1
  O  O159  1  0.25056419  0.48531568  0.84530877  1
  O  O160  1  0.76635057  0.02315613  0.39693403  1
  O  O161  1  0.75080253  0.02386637  0.89864096  1
  O  O162  1  0.73724367  0.53493950  0.39547752  1
  O  O163  1  0.77749545  0.50180431  0.88192094  1
  O  O164  1  0.26717318  0.48383221  0.12991318  1
  O  O165  1  0.25889215  0.48458924  0.62395096  1
  O  O166  1  0.23588334  0.98901830  0.11916068  1
  O  O167  1  0.22793625  0.98773162  0.61186988  1
  O  O168  1  0.74543063  0.54881048  0.09597794  1
  O  O169  1  0.75941707  0.49533788  0.65581979  1
  O  O170  1  0.76792595  0.97594048  0.14442241  1
  O  O171  1  0.76665441  1.01703149  0.60139267  1
  O  O172  1  0.00741982  0.41243831  0.25738936  1
  O  O173  1  -0.00304153  0.37973892  0.77539031  1
  O  O174  1  0.01293331  0.85796249  0.25382385  1
  O  O175  1  0.00634636  0.86559594  0.75691520  1
  O  O176  1  0.51243280  0.36859530  0.25471372  1
  O  O177  1  0.47756823  0.35806839  0.75697405  1
  O  O178  1  0.50874639  0.88432044  0.26133637  1
  O  O179  1  0.50390076  0.87042374  0.76079367  1
  O  O180  1  0.49024878  0.10028425  0.24044210  1
  O  O181  1  0.48425719  0.13242663  0.73698774  1
  O  O182  1  0.50208888  0.64046519  0.24305739  1
  O  O183  1  0.48043980  0.64012807  0.76759806  1
  O  O184  1  1.00568334  0.11904807  0.24231493  1
  O  O185  1  1.02227422  0.11751039  0.76558765  1
  O  O186  1  1.01649807  0.63164398  0.23050784  1
  O  O187  1  0.98823284  0.63853332  0.75932605  1
  O  O188  1  0.35789351  0.24990107  0.00018727  1
  O  O189  1  0.36006099  0.23878847  0.51098340  1
  O  O190  1  0.38225152  0.75667881  0.01278503  1
  O  O191  1  0.37701377  0.75615088  0.50966053  1
  O  O192  1  0.88883276  0.26886420  0.01008489  1
  O  O193  1  0.86505163  0.27486904  0.48750477  1
  O  O194  1  0.88193279  0.76287871  0.01300900  1
  O  O195  1  0.89401689  0.75402822  0.50641807  1
  O  O196  1  0.13894258  0.23892236  0.48674037  1
  O  O197  1  0.12911234  0.24556454  1.00606345  1
  O  O198  1  0.15625632  0.76020806  0.47909319  1
  O  O199  1  0.12472161  0.74372144  0.98273636  1
  O  O200  1  0.64215940  0.25648495  0.51974963  1
  O  O201  1  0.60873358  0.22067768  1.01286802  1
  O  O202  1  0.59859431  0.69431922  0.49925291  1
  O  O203  1  0.62558127  0.74731686  1.02124203  1
  O  O204  1  0.48237257  0.22790012  0.12549219  1
  O  O205  1  0.48205104  0.23970277  0.61982245  1
  O  O206  1  0.48704371  0.76805632  0.13295596  1
  O  O207  1  0.48559802  0.75908974  0.65046992  1
  O  O208  1  1.00323061  0.24084089  0.13854298  1
  O  O209  1  1.01012046  0.26831444  0.62187010  1
  O  O210  1  1.00248289  0.74896396  0.12837455  1
  O  O211  1  0.99106237  0.75689641  0.64805758  1
  O  O212  1  0.01911749  0.24828950  0.37405106  1
  O  O213  1  0.00975363  0.26436862  0.88887530  1
  O  O214  1  0.02502103  0.74560801  0.36370958  1
  O  O215  1  0.00684413  0.76357766  0.86744836  1
  O  O216  1  0.50422358  0.25201447  0.37242924  1
  O  O217  1  0.49689013  0.23476964  0.86152736  1
  O  O218  1  0.48867823  0.76300570  0.35310116  1
  O  O219  1  0.48945980  0.77017503  0.86629251  1
  O  O220  1  0.24260155  0.13535342  0.49500953  1
  O  O221  1  0.23281605  0.13598735  1.01043654  1
  O  O222  1  0.26620497  0.64073511  0.48023197  1
  O  O223  1  0.24410550  0.63470752  0.99617548  1
  O  O224  1  0.76601315  0.14541644  0.48703340  1
  O  O225  1  0.72671173  0.11579596  1.03108082  1
  O  O226  1  0.74230749  0.61134365  0.53690572  1
  O  O227  1  0.74049233  0.59755943  1.04067772  1
  O  O228  1  0.24856414  0.36191318  0.01128309  1
  O  O229  1  0.24573661  0.36202579  0.50403592  1
  O  O230  1  0.23628702  0.86888421  0.01231867  1
  O  O231  1  0.26882014  0.86543358  0.49529460  1
  O  O232  1  0.77595779  0.38628548  0.00302184  1
  O  O233  1  0.75464993  0.36087085  0.48594924  1
  O  O234  1  0.75640209  0.88161284  0.01556255  1
  O  O235  1  0.77640635  0.86340137  0.48322954  1
  O  O236  1  0.15263914  0.49438495  0.24473895  1
  O  O237  1  0.13277543  0.51163124  0.74186852  1
  O  O238  1  0.12278207  0.98760049  0.24198799  1
  O  O239  1  0.11966331  0.98060820  0.72710246  1
  O  O240  1  0.56698347  0.47714572  0.21751477  1
  O  O241  1  0.65882821  0.49500787  0.78847102  1
  O  O242  1  0.63143376  0.97871159  0.26290583  1
  O  O243  1  0.62037785  1.00919437  0.75432096  1
  O  O244  1  0.35667748  -0.05839396  0.27891461  1
  O  O245  1  0.36537086  0.00920378  0.73880921  1
  O  O246  1  0.36678930  0.49024425  0.25542933  1
  O  O247  1  0.37634576  0.51643715  0.75240973  1
  O  O248  1  0.87604424  -0.02044825  0.28221841  1
  O  O249  1  0.89355801  0.01670447  0.75234091  1
  O  O250  1  0.88259609  0.52425399  0.22966727  1
  O  O251  1  0.87456279  0.51907099  0.77118109  1
  O  O252  1  0.13707950  0.36014557  0.37245163  1
  O  O253  1  0.11382498  0.36659017  0.88540424  1
  O  O254  1  0.12699482  0.86481571  0.36278458  1
  O  O255  1  0.11871324  0.86283198  0.86429896  1
  O  O256  1  0.62022182  0.37633846  0.37090063  1
  O  O257  1  0.62823401  0.35661271  0.90014187  1
  O  O258  1  0.60759896  0.86363181  0.37211133  1
  O  O259  1  0.60738595  0.88596047  0.86234158  1
  O  O260  1  0.37440646  0.13259978  0.12201734  1
  O  O261  1  0.37537307  0.13224068  0.63065447  1
  O  O262  1  0.37218633  0.64118392  0.12092935  1
  O  O263  1  0.37999963  0.63673143  0.61542863  1
  O  O264  1  0.89344925  0.11943657  0.12683471  1
  O  O265  1  0.90984073  0.12926484  0.64902867  1
  O  O266  1  0.89293262  0.64009558  0.11856929  1
  O  O267  1  0.87863460  0.62202282  0.63868637  1
  O  O268  1  0.25524205  0.25471407  0.11974540  1
  O  O269  1  0.24729572  0.26126110  0.61345757  1
  O  O270  1  0.26633179  0.76210004  0.12009504  1
  O  O271  1  0.26312071  0.74860641  0.60691863  1
  O  O272  1  0.77575010  0.23900957  0.13937376  1
  O  O273  1  0.76528712  0.23087213  0.61255998  1
  O  O274  1  0.77213466  0.76163714  0.13364329  1
  O  O275  1  0.62979296  0.73097556  0.56496763  1
  O  O276  1  0.25171095  0.24236755  0.38436129  1
  O  O277  1  0.22952071  0.25892733  0.88644153  1
  O  O278  1  0.26503139  0.74992571  0.37192014  1
  O  O279  1  0.23513096  0.75568540  0.86968720  1
  O  O280  1  0.73634591  0.23609334  0.38640154  1
  O  O281  1  0.76313127  0.22804014  0.89461198  1
  O  O282  1  0.74178438  0.70515804  0.39654399  1
  O  O283  1  0.72903957  0.74897911  0.89246485  1
  O  O284  1  0.00687527  0.12855095  0.01450963  1
  O  O285  1  0.01705040  0.13736585  0.49490761  1
  O  O286  1  0.01405474  0.62321844  0.00042653  1
  O  O287  1  0.01279273  0.59439700  0.48941458  1
  O  O288  1  0.49515612  0.11314673  0.00307700  1
  O  O289  1  0.49415914  0.10669029  0.51121033  1
  O  O290  1  0.51636389  0.62841946  -0.01434218  1
  O  O291  1  0.52405872  0.65943070  0.51499227  1
  O  O292  1  0.50444530  0.36768319  0.47742845  1
  O  O293  1  0.47468499  0.36450685  0.99246759  1
  O  O294  1  0.49725733  0.88378764  0.51083108  1
  O  O295  1  0.49927610  0.89002718  0.98540430  1
  O  O296  1  0.97003861  0.38193590  0.45373480  1
  O  O297  1  1.00476310  0.39124955  1.00203643  1
  O  O298  1  1.01349814  0.85182655  0.48627168  1
  O  O299  1  0.99443745  0.87552986  0.99084696  1
  O  O300  1  0.48697657  0.48978438  0.37054947  1
  O  O301  1  0.49567593  0.50657188  0.88394173  1
  O  O302  1  0.50320499  0.98497675  0.39593957  1
  O  O303  1  0.49453971  0.99917425  0.88217698  1
  O  O304  1  1.07151650  0.56571028  0.44713281  1
  O  O305  1  0.99781736  0.49599675  0.88529808  1
  O  O306  1  1.00855198  0.97149457  0.36961392  1
  O  O307  1  1.01879132  0.98458685  0.87956490  1
  O  O308  1  0.00935959  0.00173649  0.12742770  1
  O  O309  1  0.02406006  -0.01559179  0.60926088  1
  O  O310  1  0.00850244  0.52219072  0.11227321  1
  O  O311  1  -0.05659564  0.47262955  0.60420852  1
  O  O312  1  0.47762705  0.00626080  0.11254377  1
  O  O313  1  0.49833055  0.00817919  0.61920899  1
  O  O314  1  0.46799842  0.50269486  0.07768599  1
  O  O315  1  0.45928316  0.49721545  0.59811554  1
  O  O316  1  0.25524648  0.37649888  0.23573595  1
  O  O317  1  0.24230017  0.38224157  0.72698621  1
  O  O318  1  0.23556956  0.86523048  0.22954876  1
  O  O319  1  0.23275599  0.87038789  0.74989325  1
  O  O320  1  0.71274828  0.40756265  0.23029300  1
  O  O321  1  0.77959983  0.38291980  0.76712909  1
  O  O322  1  0.73626999  0.85221739  0.27757221  1
  O  O323  1  0.74301771  0.89810401  0.77861782  1
  O  O324  1  0.24978205  0.12126763  0.26540265  1
  O  O325  1  0.25531496  0.12930902  0.73864454  1
  O  O326  1  0.25907211  0.61363362  0.24360570  1
  O  O327  1  0.25892732  0.60815234  0.73361023  1
  O  O328  1  0.73345364  0.12501405  0.27408341  1
  O  O329  1  0.73906295  0.13432681  0.76472812  1
  O  O330  1  0.76653608  0.63685208  0.24736597  1
  O  O331  1  0.76307620  0.62676045  0.74283325  1
  O  O332  1  0.36337902  0.12268671  0.38062135  1
  O  O333  1  0.36827242  0.12706511  0.85146885  1
  O  O334  1  0.37912029  0.62115672  0.36965148  1
  O  O335  1  0.35916457  0.63460749  0.86775681  1
  O  O336  1  0.90069525  0.10937400  0.37924073  1
  O  O337  1  0.86937251  0.11435740  0.86857084  1
  O  O338  1  0.89118982  0.62463156  0.35526596  1
  O  O339  1  0.88110262  0.62015749  0.88707032  1
  O  O340  1  0.14292632  0.36997371  0.12803718  1
  O  O341  1  0.12781589  0.38992908  0.60529857  1
  O  O342  1  0.12604435  0.88283361  0.12912619  1
  O  O343  1  0.12765486  0.85807771  0.63464556  1
  O  O344  1  0.61291526  0.36652791  0.10476021  1
  O  O345  1  0.59082332  0.40794370  0.62539432  1
  O  O346  1  0.64531606  0.87192728  0.14096243  1
  O  O347  1  0.62843178  0.87567803  0.66331243  1
  O  O348  1  0.13435269  0.25079486  0.26423295  1
  O  O349  1  0.12687177  0.24915427  0.76647693  1
  O  O350  1  0.12642006  0.75563833  0.24771924  1
  O  O351  1  0.11417815  0.75082682  0.75794379  1
  O  O352  1  0.63882620  0.27329555  0.23823626  1
  O  O353  1  0.59886731  0.25439357  0.73846754  1
  O  O354  1  0.60335537  0.76481519  0.24438274  1
  O  O355  1  0.60718222  0.73565802  0.75873183  1
  O  O356  1  0.37141641  0.24840608  0.23357990  1
  O  O357  1  0.37214743  0.23935394  0.73500093  1
  O  O358  1  0.38550097  0.75774421  0.23293752  1
  O  O359  1  0.36062797  0.73083190  0.73335034  1
  O  O360  1  0.82100483  0.25734890  0.19337838  1
  O  O361  1  0.89503255  0.22705454  0.77174361  1
  O  O362  1  0.89655585  0.73411418  0.23548211  1
  O  O363  1  0.87990387  0.73989429  0.76102835  1
  O  O364  1  0.35686174  0.49122085  0.46626802  1
  O  O365  1  0.34836440  0.47338125  0.97927033  1
  O  O366  1  0.37750607  0.98597809  0.51271605  1
  O  O367  1  0.37775770  1.00687236  0.99016481  1
  O  O368  1  0.84992965  0.47355507  0.47073522  1
  O  O369  1  0.89573719  0.50122418  0.99776423  1
  O  O370  1  0.89403681  0.96295973  0.47069870  1
  O  O371  1  0.87989635  0.98496222  1.00915457  1
  O  O372  1  0.11856663  0.01318080  0.01300177  1
  O  O373  1  0.12662795  0.01543693  0.49989704  1
  O  O374  1  0.12801375  0.51841294  -0.01309216  1
  O  O375  1  0.11030320  0.50121501  0.48846006  1
  O  O376  1  0.59904140  0.01135609  0.00591856  1
  O  O377  1  0.61751353  -0.00885836  0.50845142  1
  O  O378  1  0.61718602  0.50282748  -0.00601693  1
  O  O379  1  0.61344194  0.51749202  0.50333537  1
  O  O380  1  0.36556229  0.35609378  0.10930961  1
  O  O381  1  0.36682030  0.35467162  0.62342861  1
  O  O382  1  0.35807728  0.88235235  0.11893273  1
  O  O383  1  0.37391415  0.86254304  0.61841085  1
  O  O384  1  0.88295466  0.39605269  0.12058409  1
  O  O385  1  0.94301846  0.28992790  0.63688651  1
  O  O386  1  0.87595836  0.86501175  0.12281843  1
  O  O387  1  0.88205319  0.87709850  0.61022163  1
  O  O388  1  0.13478160  0.13133496  0.38201300  1
  O  O389  1  0.11447201  0.14674417  0.89408606  1
  O  O390  1  0.15840064  0.64227407  0.35882449  1
  O  O391  1  0.12398880  0.63878668  0.88060909  1
  O  O392  1  0.62474048  0.11558105  0.38848780  1
  O  O393  1  0.63700642  0.12378445  0.89359574  1
  O  O394  1  0.61354994  0.62331276  0.36795648  1
  O  O395  1  0.71557989  0.67677395  0.89477560  1
