# generated using pymatgen
data_V35Zn35O128
_symmetry_space_group_name_H-M   'P 1'
_cell_length_a   16.96803887
_cell_length_b   17.02180333
_cell_length_c   17.00209045
_cell_angle_alpha   90.47220555
_cell_angle_beta   90.70461924
_cell_angle_gamma   89.83608794
_symmetry_Int_Tables_number   1
_chemical_formula_structural   V35Zn35O128
_chemical_formula_sum   'V70 Zn70 O256'
_cell_volume   4910.09953176
_cell_formula_units_Z   2
loop_
 _symmetry_equiv_pos_site_id
 _symmetry_equiv_pos_as_xyz
  1  'x, y, z'
loop_
 _atom_site_type_symbol
 _atom_site_label
 _atom_site_symmetry_multiplicity
 _atom_site_fract_x
 _atom_site_fract_y
 _atom_site_fract_z
 _atom_site_occupancy
  V  V0  1  0.00409980  0.37069084  0.84313633  1
  V  V1  1  0.87766297  0.00799199  0.87735108  1
  V  V2  1  0.89278239  0.87636984  0.00140117  1
  V  V3  1  0.37445166  0.87485868  0.53392778  1
  V  V4  1  0.38088082  0.38798431  -0.00364081  1
  V  V5  1  0.63302306  0.62487465  -0.01251298  1
  V  V6  1  0.87844770  0.62547077  0.25168018  1
  V  V7  1  0.37804474  0.61981029  0.25207094  1
  V  V8  1  0.14387385  0.25434851  0.38041650  1
  V  V9  1  0.13920900  0.12627353  0.49569910  1
  V  V10  1  0.13592888  0.49846773  0.12548578  1
  V  V11  1  0.87883314  0.12713920  0.24511281  1
  V  V12  1  0.24609146  0.75099074  -0.01042305  1
  V  V13  1  0.36059603  -0.01004407  0.89837601  1
  V  V14  1  0.00035970  0.62676945  0.12607811  1
  V  V15  1  0.46983171  0.64048356  0.67353799  1
  V  V16  1  0.21965765  0.83517605  0.62717828  1
  V  V17  1  0.12286888  -0.00219095  0.62977887  1
  V  V18  1  0.00707910  0.24884226  0.24371275  1
  V  V19  1  -0.00616319  0.72317949  0.75695080  1
  V  V20  1  0.37629161  0.24300028  0.11096979  1
  V  V21  1  0.51585645  0.12359879  0.12490528  1
  V  V22  1  0.74929654  0.75429368  -0.00735236  1
  V  V23  1  0.83758543  0.11519168  0.74790372  1
  V  V24  1  0.74627979  0.25056585  0.00329549  1
  V  V25  1  0.62109180  0.37729603  0.74682441  1
  V  V26  1  0.86886424  0.00163817  0.37330378  1
  V  V27  1  0.81735781  0.44366567  0.19245000  1
  V  V28  1  0.23981100  0.88231753  0.13145947  1
  V  V29  1  -0.00352594  0.48709762  -0.00665039  1
  V  V30  1  0.62306887  0.61019396  0.48425423  1
  V  V31  1  0.85854847  0.49743190  0.86602265  1
  V  V32  1  0.15534750  0.36563949  0.73259503  1
  V  V33  1  0.60972795  0.49953087  0.11865357  1
  V  V34  1  0.49663729  0.63688961  0.11713694  1
  V  V35  1  0.86077074  0.24458513  0.61726711  1
  V  V36  1  0.12311493  0.84547757  0.25899508  1
  V  V37  1  0.49150774  0.21184555  0.73605412  1
  V  V38  1  0.00173578  0.36703138  0.38935213  1
  V  V39  1  0.75807493  0.88191185  0.12924137  1
  V  V40  1  0.14414584  0.50334806  0.62314153  1
  V  V41  1  0.37154190  0.75744825  0.11989038  1
  V  V42  1  0.62357465  0.08537569  0.52637006  1
  V  V43  1  0.75064890  0.64468240  0.36629816  1
  V  V44  1  0.00047236  0.51173704  0.50816109  1
  V  V45  1  0.49934310  0.39351909  0.37692689  1
  V  V46  1  0.83708497  0.61534806  0.73836510  1
  V  V47  1  0.63768738  0.84915287  0.25178166  1
  V  V48  1  0.00706530  0.13571379  0.63726164  1
  V  V49  1  0.63587112  0.25600248  0.38887929  1
  V  V50  1  0.37018023  0.22873686  0.60372358  1
  V  V51  1  0.14160626  0.13845914  0.01417735  1
  V  V52  1  0.00933384  0.02487159  0.01849568  1
  V  V53  1  0.24743138  0.01292457  0.75580068  1
  V  V54  1  0.67549908  0.85253296  0.75561097  1
  V  V55  1  0.10651642  0.87160456  0.77308952  1
  V  V56  1  0.86556464  0.49013364  0.38114251  1
  V  V57  1  0.21455475  0.63122563  0.40128024  1
  V  V58  1  0.49470034  0.39684003  0.86855636  1
  V  V59  1  0.64164853  0.00627483  0.15955097  1
  V  V60  1  0.38478470  0.10972022  0.25765614  1
  V  V61  1  0.88222343  0.75266804  0.13402028  1
  V  V62  1  0.37262165  0.40433014  0.50081004  1
  V  V63  1  0.52699400  -0.00915321  -0.00076327  1
  V  V64  1  0.50599757  0.25796484  0.25376540  1
  V  V65  1  0.00462609  -0.00101155  0.49267579  1
  V  V66  1  0.11824113  0.63121455  -0.01398458  1
  V  V67  1  0.48378231  0.88112380  0.34192833  1
  V  V68  1  0.33219087  0.62186119  0.78717550  1
  V  V69  1  0.87013613  0.86642695  0.50385544  1
  Zn  Zn70  1  0.73063144  0.34543838  0.63100796  1
  Zn  Zn71  1  0.74982719  0.13137515  0.38141968  1
  Zn  Zn72  1  0.48674068  0.86602179  0.83515751  1
  Zn  Zn73  1  0.16120338  0.20866770  0.83409624  1
  Zn  Zn74  1  0.24371199  0.36524897  0.12789497  1
  Zn  Zn75  1  0.63884180  0.38564469  0.24400227  1
  Zn  Zn76  1  0.19888934  0.18316642  0.20175033  1
  Zn  Zn77  1  0.20413195  0.18655601  0.66847589  1
  Zn  Zn78  1  0.19639585  0.68039514  0.18693050  1
  Zn  Zn79  1  0.15500313  0.67222113  0.71253417  1
  Zn  Zn80  1  0.68757131  0.18609562  0.20728890  1
  Zn  Zn81  1  0.67274101  0.17802309  0.69525287  1
  Zn  Zn82  1  0.69891766  0.67896998  0.17365886  1
  Zn  Zn83  1  0.64738594  0.68133953  0.67820447  1
  Zn  Zn84  1  0.32081626  0.31813829  0.31129849  1
  Zn  Zn85  1  0.33658728  0.30460341  0.80001715  1
  Zn  Zn86  1  0.30847063  0.79568274  0.30780302  1
  Zn  Zn87  1  0.30405803  0.81511971  0.80351074  1
  Zn  Zn88  1  0.82069065  0.30590727  0.31273537  1
  Zn  Zn89  1  0.82073111  0.30729165  0.80210516  1
  Zn  Zn90  1  0.82903412  0.81877314  0.31574197  1
  Zn  Zn91  1  0.84945993  0.80119755  0.82289919  1
  Zn  Zn92  1  0.19105559  0.44928716  0.43697637  1
  Zn  Zn93  1  0.21520955  0.36757787  0.91452628  1
  Zn  Zn94  1  0.20258783  0.91618487  0.44377107  1
  Zn  Zn95  1  0.18378846  0.94169762  0.94858675  1
  Zn  Zn96  1  0.68095610  0.43227318  0.43810701  1
  Zn  Zn97  1  0.66871919  0.43932243  0.92841843  1
  Zn  Zn98  1  0.68734314  0.93585609  0.43489474  1
  Zn  Zn99  1  0.67416754  1.04450858  0.88817006  1
  Zn  Zn100  1  0.31208392  0.06300647  0.07594311  1
  Zn  Zn101  1  0.31998588  0.03722267  0.54925150  1
  Zn  Zn102  1  0.29729124  0.54958052  -0.04041899  1
  Zn  Zn103  1  0.31581007  0.58451137  0.55699007  1
  Zn  Zn104  1  0.81772602  0.05782508  0.06304482  1
  Zn  Zn105  1  0.81297215  0.07208803  0.55664083  1
  Zn  Zn106  1  0.81873493  0.56642658  0.05162583  1
  Zn  Zn107  1  0.77322275  0.57007450  0.56880245  1
  Zn  Zn108  1  0.39854632  0.42285078  0.19884603  1
  Zn  Zn109  1  0.44108462  0.46064810  0.68035217  1
  Zn  Zn110  1  0.45282701  0.92685529  0.16724136  1
  Zn  Zn111  1  0.45430077  1.00589052  0.69300347  1
  Zn  Zn112  1  0.99071334  0.43894605  0.19701726  1
  Zn  Zn113  1  0.92288775  0.43565070  0.68220471  1
  Zn  Zn114  1  0.95211798  0.94122838  0.19329861  1
  Zn  Zn115  1  0.81979153  0.94237737  0.68383745  1
  Zn  Zn116  1  0.05931336  0.07253186  0.31874514  1
  Zn  Zn117  1  0.06073474  0.04744507  0.82311009  1
  Zn  Zn118  1  0.06407386  0.55853629  0.31479398  1
  Zn  Zn119  1  0.16155599  0.52833522  0.82832573  1
  Zn  Zn120  1  0.53680043  0.07909355  0.35839296  1
  Zn  Zn121  1  0.49204346  0.12124319  0.86933713  1
  Zn  Zn122  1  0.56561928  0.57225776  0.29609550  1
  Zn  Zn123  1  0.57140098  0.55961546  0.80447594  1
  Zn  Zn124  1  0.44735328  0.18878478  0.44557945  1
  Zn  Zn125  1  0.31578766  0.17987884  0.92635214  1
  Zn  Zn126  1  0.44710827  0.71286346  0.43192039  1
  Zn  Zn127  1  0.46243000  0.67522733  0.89257433  1
  Zn  Zn128  1  0.94469292  0.18323030  0.44187781  1
  Zn  Zn129  1  0.98653275  0.16993631  0.90024296  1
  Zn  Zn130  1  0.92849941  0.68471175  0.57490161  1
  Zn  Zn131  1  0.93129819  0.67767330  0.92869227  1
  Zn  Zn132  1  0.06825230  0.30943107  0.05884508  1
  Zn  Zn133  1  0.06982686  0.30978679  0.56458169  1
  Zn  Zn134  1  0.06864778  0.80970901  0.07030865  1
  Zn  Zn135  1  -0.00533129  0.86187026  0.63165801  1
  Zn  Zn136  1  0.55238454  0.31480037  0.05662350  1
  Zn  Zn137  1  0.53981411  0.31604310  0.56637086  1
  Zn  Zn138  1  0.53474804  0.79610858  0.00748115  1
  Zn  Zn139  1  0.52715547  0.83775764  0.64741348  1
  O  O140  1  0.14067053  0.13452096  0.11448793  1
  O  O141  1  0.12242154  0.12161044  0.61306389  1
  O  O142  1  0.11204538  0.61958274  0.12263766  1
  O  O143  1  0.11263738  0.59718560  0.63733021  1
  O  O144  1  0.62626134  0.11684525  0.13442022  1
  O  O145  1  0.61946994  0.10579435  0.62421970  1
  O  O146  1  0.62344535  0.61962552  0.11172107  1
  O  O147  1  0.66542447  0.62678401  0.58255317  1
  O  O148  1  0.39347588  0.37676566  0.38199575  1
  O  O149  1  0.38271557  0.37885596  0.88367398  1
  O  O150  1  0.38406983  0.87691148  0.32832398  1
  O  O151  1  0.37104477  0.89196195  0.86087644  1
  O  O152  1  0.89220249  0.38173179  0.36839252  1
  O  O153  1  0.88692447  0.39054159  0.85068464  1
  O  O154  1  0.88228932  0.89315014  0.38616050  1
  O  O155  1  0.87439645  0.89174230  0.89950112  1
  O  O156  1  0.21737856  0.01082237  0.31898379  1
  O  O157  1  0.25234177  -0.00599491  0.86741799  1
  O  O158  1  0.23795414  0.53249926  0.37744525  1
  O  O159  1  0.23034532  0.47925476  0.90119603  1
  O  O160  1  0.76810708  0.00327142  0.37475651  1
  O  O161  1  0.78249274  0.02329695  0.90937000  1
  O  O162  1  0.76655959  0.47858085  0.37390576  1
  O  O163  1  0.76244189  0.48277483  0.88025511  1
  O  O164  1  0.23143619  0.51153791  0.12438612  1
  O  O165  1  0.24193736  0.51077390  0.61418463  1
  O  O166  1  0.25309124  0.98067461  0.12740493  1
  O  O167  1  0.23040289  1.00114508  0.63926327  1
  O  O168  1  0.76357060  0.49866647  0.12501263  1
  O  O169  1  0.74573607  0.46046127  0.59027236  1
  O  O170  1  0.74432626  0.99685660  0.12349454  1
  O  O171  1  0.78622662  1.04892762  0.66493491  1
  O  O172  1  0.00901685  0.35454114  0.27038073  1
  O  O173  1  -0.00015473  0.36909989  0.74346588  1
  O  O174  1  0.02737714  0.88095922  0.25130512  1
  O  O175  1  0.00737536  0.88315677  0.75205442  1
  O  O176  1  0.49381690  0.36387239  0.25427812  1
  O  O177  1  0.49648223  0.38741426  0.75982131  1
  O  O178  1  0.52742286  0.87132390  0.24222825  1
  O  O179  1  0.48773809  0.90330353  0.73094409  1
  O  O180  1  0.50561872  0.13773252  0.23813997  1
  O  O181  1  0.49062285  0.10870161  0.73877030  1
  O  O182  1  0.50984262  0.64080176  0.21955146  1
  O  O183  1  0.49548867  0.64064262  0.78220378  1
  O  O184  1  0.99400084  0.13701974  0.25572993  1
  O  O185  1  1.01830843  0.12124604  0.73498421  1
  O  O186  1  0.98602196  0.61624332  0.23944659  1
  O  O187  1  1.00822097  0.62830086  0.75973122  1
  O  O188  1  0.38086559  0.22918477  0.01224927  1
  O  O189  1  0.39223202  0.26427359  0.50538344  1
  O  O190  1  0.34942036  0.74265998  0.00970899  1
  O  O191  1  0.37289042  0.78880728  0.48193306  1
  O  O192  1  0.84697845  0.26281083  0.02732994  1
  O  O193  1  0.87420527  0.23446009  0.51786457  1
  O  O194  1  0.87418388  0.76296859  0.00996007  1
  O  O195  1  0.88507046  0.76771442  0.50345518  1
  O  O196  1  0.13152512  0.23630721  0.49396375  1
  O  O197  1  0.13107733  0.23944243  0.99878030  1
  O  O198  1  0.07444217  0.74784997  0.49158606  1
  O  O199  1  0.12548565  0.73687744  1.00314911  1
  O  O200  1  0.62018354  0.26286669  0.48628219  1
  O  O201  1  0.64240318  0.24393191  0.98597377  1
  O  O202  1  0.64627773  0.76117487  0.48394546  1
  O  O203  1  0.64401525  0.74619103  1.00281738  1
  O  O204  1  0.50558565  0.23467920  0.12512305  1
  O  O205  1  0.48783606  0.23695680  0.62691495  1
  O  O206  1  0.48252469  0.74672236  0.10067678  1
  O  O207  1  0.53436248  0.71983164  0.64829066  1
  O  O208  1  1.01651992  0.25697709  0.14640803  1
  O  O209  1  0.99976137  0.23742891  0.62142245  1
  O  O210  1  0.99056580  0.73912455  0.12108371  1
  O  O211  1  0.98761093  0.74756020  0.65142375  1
  O  O212  1  0.00787706  0.25748976  0.37834098  1
  O  O213  1  -0.00960129  0.28011965  0.88237305  1
  O  O214  1  0.05056540  0.76462910  0.42634336  1
  O  O215  1  -0.04007705  0.75710196  0.85362462  1
  O  O216  1  0.51338411  0.25892239  0.36054564  1
  O  O217  1  0.46992167  0.23711513  0.83540282  1
  O  O218  1  0.51208652  0.80180195  0.39598901  1
  O  O219  1  0.49884694  0.77942098  0.90258732  1
  O  O220  1  0.23574028  0.10673071  0.50164377  1
  O  O221  1  0.24376485  0.12053095  0.99762364  1
  O  O222  1  0.23361811  0.63877945  0.50077882  1
  O  O223  1  0.22750346  0.63575647  0.99767216  1
  O  O224  1  0.72318265  0.11205108  0.49413482  1
  O  O225  1  0.75642106  0.14759713  1.00786240  1
  O  O226  1  0.74905500  0.61655088  0.46616672  1
  O  O227  1  0.74895042  0.64533324  1.00607430  1
  O  O228  1  0.27999203  0.36209069  0.01294974  1
  O  O229  1  0.27365517  0.38770029  0.48900898  1
  O  O230  1  0.22875753  0.85980354  0.01784061  1
  O  O231  1  0.19813270  0.84141865  0.52933546  1
  O  O232  1  0.73597615  0.35383200  -0.00115867  1
  O  O233  1  0.75182921  0.40384958  0.52749489  1
  O  O234  1  0.76579320  0.86655446  0.02055401  1
  O  O235  1  0.77184085  0.88428392  0.49646156  1
  O  O236  1  0.09694917  0.49553317  0.22413730  1
  O  O237  1  0.12887491  0.47680569  0.73171211  1
  O  O238  1  0.15995407  1.01763897  0.27179272  1
  O  O239  1  0.12740959  0.99035189  0.75023238  1
  O  O240  1  0.62625557  0.50151519  0.22361168  1
  O  O241  1  0.63079984  0.47711313  0.75619663  1
  O  O242  1  0.64509736  1.01055012  0.25514313  1
  O  O243  1  0.64982124  0.95208954  0.81514617  1
  O  O244  1  0.39849254  0.01381643  0.23169967  1
  O  O245  1  0.34549725  0.00480315  0.74603584  1
  O  O246  1  0.40852516  0.52435348  0.23985046  1
  O  O247  1  0.37417550  0.54849825  0.72903130  1
  O  O248  1  0.89204577  0.01184918  0.26741923  1
  O  O249  1  0.87448241  0.00206147  0.77392675  1
  O  O250  1  0.87884247  0.50364326  0.25839803  1
  O  O251  1  0.86739524  0.50787619  0.75290288  1
  O  O252  1  0.11938850  0.35983150  0.38859258  1
  O  O253  1  0.11669496  0.36900971  0.84320299  1
  O  O254  1  0.14938293  0.87219504  0.35539544  1
  O  O255  1  0.11717944  0.88762098  0.87054720  1
  O  O256  1  0.61728224  0.36841554  0.36370656  1
  O  O257  1  0.60185211  0.36933130  0.86555938  1
  O  O258  1  0.65022307  0.87209746  0.34872172  1
  O  O259  1  0.61924462  0.88276811  0.84920449  1
  O  O260  1  0.39291925  0.13019959  0.13326245  1
  O  O261  1  0.37020009  0.12869019  0.59533430  1
  O  O262  1  0.39391558  0.63080876  0.11904250  1
  O  O263  1  0.38952743  0.65295219  0.61159097  1
  O  O264  1  0.87366221  0.11448481  0.14689842  1
  O  O265  1  0.89635297  0.13068737  0.63220451  1
  O  O266  1  0.87996490  0.63524156  0.13071550  1
  O  O267  1  0.85804215  0.61188707  0.63173348  1
  O  O268  1  0.27606512  0.24611942  0.13320843  1
  O  O269  1  0.27086036  0.25193149  0.60960719  1
  O  O270  1  0.25636359  0.75394247  0.11725371  1
  O  O271  1  0.21497397  0.73937654  0.64493013  1
  O  O272  1  0.72628658  0.25170427  0.10517062  1
  O  O273  1  0.75605678  0.23036131  0.62483847  1
  O  O274  1  0.76836212  0.75772184  0.11908350  1
  O  O275  1  0.67430546  0.78277781  0.54764189  1
  O  O276  1  0.24175088  0.25888151  0.36921062  1
  O  O277  1  0.25668914  0.26074432  0.87237218  1
  O  O278  1  0.25322025  0.71774851  0.36142236  1
  O  O279  1  0.24626250  0.76327051  0.89207066  1
  O  O280  1  0.73913252  0.26328484  0.37869693  1
  O  O281  1  0.76783604  0.24818991  0.90270184  1
  O  O282  1  0.76327959  0.74198295  0.37137430  1
  O  O283  1  0.76544120  0.76245990  0.89655583  1
  O  O284  1  0.00282062  0.12661804  0.01342777  1
  O  O285  1  0.01443836  0.11629659  0.50915541  1
  O  O286  1  0.00208189  0.62680953  0.00573680  1
  O  O287  1  -0.00918966  0.60991700  0.50960246  1
  O  O288  1  0.49981682  0.09828503  0.02377026  1
  O  O289  1  0.53653367  0.11914875  0.47685574  1
  O  O290  1  0.52711154  0.63804689  -0.00141989  1
  O  O291  1  0.53127090  0.65001094  0.48293351  1
  O  O292  1  0.50454949  0.38467041  0.47969203  1
  O  O293  1  0.49063424  0.36153465  0.97566976  1
  O  O294  1  0.47974801  0.87797465  0.54934448  1
  O  O295  1  0.50109815  0.90133612  1.04022084  1
  O  O296  1  0.99911683  0.36909423  0.49042131  1
  O  O297  1  0.99996875  0.39051517  1.01277331  1
  O  O298  1  0.99326066  0.89841332  0.50908030  1
  O  O299  1  0.99303546  0.87364061  1.00913804  1
  O  O300  1  0.51218566  0.48855892  0.35655015  1
  O  O301  1  0.50281362  0.49401604  0.88019995  1
  O  O302  1  0.51463644  0.97134055  0.37733337  1
  O  O303  1  0.48524557  0.98666628  0.90230397  1
  O  O304  1  1.00245614  0.48328216  0.38634196  1
  O  O305  1  1.00279204  0.47725402  0.88687085  1
  O  O306  1  1.00219449  1.00499369  0.38946974  1
  O  O307  1  0.98660965  1.00809826  0.90319363  1
  O  O308  1  0.00708400  0.00349363  0.11612718  1
  O  O309  1  0.01463315  0.01511455  0.61520578  1
  O  O310  1  -0.01131237  0.51683169  0.10774220  1
  O  O311  1  -0.01373827  0.48397727  0.60347516  1
  O  O312  1  0.53153941  0.00989897  0.13437980  1
  O  O313  1  0.41926023  -0.01884224  0.58413142  1
  O  O314  1  0.51110477  0.52174097  0.10733202  1
  O  O315  1  0.51279899  0.55261914  0.64833279  1
  O  O316  1  0.29491118  0.38493285  0.22648825  1
  O  O317  1  0.25282464  0.37405234  0.74633128  1
  O  O318  1  0.23993534  0.86104939  0.23538823  1
  O  O319  1  0.22378739  0.87497242  0.74318804  1
  O  O320  1  0.75762050  0.37415542  0.24014079  1
  O  O321  1  0.72212130  0.34615462  0.75426159  1
  O  O322  1  0.75490830  0.86599820  0.23648127  1
  O  O323  1  0.78025897  0.86232176  0.75245293  1
  O  O324  1  0.28535083  0.12955868  0.25324797  1
  O  O325  1  0.22932798  0.11323614  0.75709961  1
  O  O326  1  0.27720620  0.61778071  0.23922694  1
  O  O327  1  0.22901278  0.61465695  0.78084845  1
  O  O328  1  0.77389438  0.14135003  0.26310343  1
  O  O329  1  0.74389804  0.13061860  0.77985031  1
  O  O330  1  0.76468789  0.62566996  0.25459494  1
  O  O331  1  0.73894907  0.61670093  0.73791259  1
  O  O332  1  0.41435831  0.11947721  0.35771844  1
  O  O333  1  0.38041009  0.09486170  0.88250253  1
  O  O334  1  0.40532460  0.64510136  0.34718905  1
  O  O335  1  0.36374069  0.61215648  0.88662355  1
  O  O336  1  0.87637547  0.11564291  0.37457213  1
  O  O337  1  0.89123771  0.11914776  0.85166611  1
  O  O338  1  0.86291095  0.60584252  0.36208388  1
  O  O339  1  0.86720437  0.60566389  0.85755912  1
  O  O340  1  0.13183115  0.39193249  0.11035441  1
  O  O341  1  0.13312038  0.37928559  0.62802995  1
  O  O342  1  0.13312958  0.87190450  0.14122766  1
  O  O343  1  0.11431506  0.88406645  0.64418615  1
  O  O344  1  0.61035791  0.39544485  0.11283172  1
  O  O345  1  0.61193604  0.36689782  0.64176657  1
  O  O346  1  0.64245341  0.89421303  0.14575730  1
  O  O347  1  0.63913910  0.87737492  0.66577873  1
  O  O348  1  0.11934889  0.23474670  0.27214169  1
  O  O349  1  0.13979530  0.25986419  0.73290011  1
  O  O350  1  0.12164275  0.74627562  0.24629449  1
  O  O351  1  0.10005825  0.76038034  0.76678609  1
  O  O352  1  0.61484863  0.26650706  0.24110798  1
  O  O353  1  0.59305048  0.24774893  0.74193649  1
  O  O354  1  0.63897624  0.75161152  0.24186476  1
  O  O355  1  0.65610209  0.75398309  0.76333557  1
  O  O356  1  0.39819711  0.24183056  0.23950892  1
  O  O357  1  0.38243294  0.24444534  0.71678580  1
  O  O358  1  0.37462210  0.73689548  0.22168171  1
  O  O359  1  0.35466406  0.71788209  0.76212251  1
  O  O360  1  0.89532802  0.23884595  0.25579277  1
  O  O361  1  0.86417434  0.21955289  0.73875021  1
  O  O362  1  0.87922523  0.74153601  0.24267019  1
  O  O363  1  0.87094735  0.71434111  0.74484811  1
  O  O364  1  0.37817608  0.50392623  0.49822259  1
  O  O365  1  0.38000597  0.48505621  1.01111716  1
  O  O366  1  0.31091263  0.94394670  0.47880172  1
  O  O367  1  0.35464572  0.98642529  0.99744068  1
  O  O368  1  0.88545080  0.49942317  0.48035812  1
  O  O369  1  0.88803450  0.50950606  0.97813155  1
  O  O370  1  0.88858269  1.00971775  0.48885259  1
  O  O371  1  0.89300240  0.99109677  1.01045651  1
  O  O372  1  0.11495423  0.02042680  -0.00135915  1
  O  O373  1  0.11930743  0.00463862  0.50518010  1
  O  O374  1  0.10513251  0.51699729  0.01288930  1
  O  O375  1  0.10969277  0.49085396  0.51394427  1
  O  O376  1  0.62540078  -0.00810202  -0.01114512  1
  O  O377  1  0.62531027  -0.01472095  0.51404455  1
  O  O378  1  0.64523852  0.51584828  0.01056273  1
  O  O379  1  0.61382314  0.51184609  0.48332726  1
  O  O380  1  0.40572120  0.35086516  0.10357678  1
  O  O381  1  0.39915053  0.38854200  0.60193258  1
  O  O382  1  0.36281805  0.86187849  0.12837878  1
  O  O383  1  0.32604293  0.85317304  0.62364036  1
  O  O384  1  0.88926397  0.39307637  0.14793771  1
  O  O385  1  0.86344923  0.34467929  0.64238416  1
  O  O386  1  0.87889922  0.87197290  0.12546991  1
  O  O387  1  0.88317597  0.88982839  0.60782175  1
  O  O388  1  0.12532698  0.13641963  0.39000588  1
  O  O389  1  0.10018343  0.13518815  0.88929674  1
  O  O390  1  0.11250529  0.63168169  0.38244969  1
  O  O391  1  0.10820345  0.61699133  0.88952887  1
  O  O392  1  0.63016172  0.15463489  0.35647089  1
  O  O393  1  0.60253853  0.12652735  0.88281139  1
  O  O394  1  0.64327134  0.62447641  0.36738638  1
  O  O395  1  0.63586834  0.61274666  0.88961581  1
