# generated using pymatgen
data_V35Zn35O128
_symmetry_space_group_name_H-M   'P 1'
_cell_length_a   16.80598505
_cell_length_b   16.92160952
_cell_length_c   17.00554208
_cell_angle_alpha   89.82788009
_cell_angle_beta   89.52669994
_cell_angle_gamma   90.02815345
_symmetry_Int_Tables_number   1
_chemical_formula_structural   V35Zn35O128
_chemical_formula_sum   'V70 Zn70 O256'
_cell_volume   4835.92199538
_cell_formula_units_Z   2
loop_
 _symmetry_equiv_pos_site_id
 _symmetry_equiv_pos_as_xyz
  1  'x, y, z'
loop_
 _atom_site_type_symbol
 _atom_site_label
 _atom_site_symmetry_multiplicity
 _atom_site_fract_x
 _atom_site_fract_y
 _atom_site_fract_z
 _atom_site_occupancy
  V  V0  1  0.36956956  0.02625890  0.87714009  1
  V  V1  1  0.35601187  0.50757300  0.38367309  1
  V  V2  1  0.75105428  0.13172511  0.37190513  1
  V  V3  1  0.14918129  0.25018538  0.89637562  1
  V  V4  1  0.76569920  -0.00265027  0.25065050  1
  V  V5  1  0.87623697  0.87898979  -0.00289488  1
  V  V6  1  0.69653964  0.93103315  0.07908377  1
  V  V7  1  0.36593533  0.24357702  0.12190599  1
  V  V8  1  0.60300712  0.62028354  0.00710876  1
  V  V9  1  0.63243612  0.87912458  0.26227088  1
  V  V10  1  0.01161294  0.63257938  0.61319401  1
  V  V11  1  0.85375240  0.76160174  0.62999392  1
  V  V12  1  0.00537788  0.75183669  0.74675321  1
  V  V13  1  0.24852949  0.02554315  0.74581583  1
  V  V14  1  0.50719154  0.74518341  0.25532777  1
  V  V15  1  0.88666721  0.14185187  0.23511821  1
  V  V16  1  0.61445204  0.88131501  0.75079263  1
  V  V17  1  0.49952049  0.50599062  0.49677341  1
  V  V18  1  0.50844233  0.24908830  0.76114106  1
  V  V19  1  0.25167208  0.88091721  0.64157920  1
  V  V20  1  -0.00175206  0.48952452  0.50061929  1
  V  V21  1  0.62796802  0.62997533  0.48746926  1
  V  V22  1  0.13583235  0.24728377  0.38988762  1
  V  V23  1  0.38635821  0.39240383  0.00482550  1
  V  V24  1  0.75138591  0.11755151  0.89522234  1
  V  V25  1  0.37964519  0.37047624  0.50298897  1
  V  V26  1  0.75051300  0.36603029  0.12440066  1
  V  V27  1  0.01312540  0.25982813  0.23352795  1
  V  V28  1  0.63665672  0.25403127  0.89296066  1
  V  V29  1  0.02726702  0.24800869  0.74229202  1
  V  V30  1  0.60020398  0.37890843  0.25663550  1
  V  V31  1  0.24070586  0.49203021  0.74582914  1
  V  V32  1  0.74804881  0.74853922  0.48072519  1
  V  V33  1  0.11020088  0.87639695  0.24692340  1
  V  V34  1  0.37647922  0.87213767  0.50493505  1
  V  V35  1  0.01539293  -0.00296071  0.01162776  1
  V  V36  1  0.36112446  0.63465014  0.25465568  1
  V  V37  1  0.75291262  -0.00944305  0.74946869  1
  V  V38  1  0.51952250  0.00669969  0.52547458  1
  V  V39  1  -0.01812263  0.36895032  0.37898609  1
  V  V40  1  0.50491829  0.62619303  0.63791707  1
  V  V41  1  0.50020647  0.88391208  0.38222398  1
  V  V42  1  0.50444437  0.11381556  0.11023966  1
  V  V43  1  0.38594801  0.75002417  0.64406510  1
  V  V44  1  0.38918506  0.24299094  0.63198384  1
  V  V45  1  0.48703803  0.88184923  0.89490318  1
  V  V46  1  0.00216725  0.73747055  0.25399461  1
  V  V47  1  0.74440708  0.74296223  -0.00103081  1
  V  V48  1  0.86994173  0.74115026  0.11629236  1
  V  V49  1  0.80131511  0.56641529  0.92728955  1
  V  V50  1  0.25332560  0.62312253  0.86222530  1
  V  V51  1  0.24974740  0.87391951  0.11627551  1
  V  V52  1  0.00112483  0.61562060  0.10893696  1
  V  V53  1  0.61780773  0.24325815  0.37636100  1
  V  V54  1  0.76119652  0.38255129  0.60637019  1
  V  V55  1  0.39115749  0.49557784  0.86631342  1
  V  V56  1  0.86261293  0.62522193  0.26241562  1
  V  V57  1  0.61151269  0.50471852  0.12811133  1
  V  V58  1  0.48824787  0.22540742  0.25598341  1
  V  V59  1  0.24706379  0.41494766  0.12497038  1
  V  V60  1  0.26022487  -0.00981640  0.26689720  1
  V  V61  1  0.75043570  0.49881107  0.26084015  1
  V  V62  1  0.85833285  0.88933963  0.49179481  1
  V  V63  1  0.86205689  0.13103519  0.73110711  1
  V  V64  1  0.85982094  0.61718704  0.74566463  1
  V  V65  1  0.61334378  0.74396278  0.87146582  1
  V  V66  1  0.24706626  0.66332284  0.40464993  1
  V  V67  1  0.24453897  0.37612149  0.62558988  1
  V  V68  1  0.00482239  0.88414310  0.86672019  1
  V  V69  1  0.12046626  0.60495480  -0.01234084  1
  Zn  Zn70  1  0.12414335  0.75223890  0.87450435  1
  Zn  Zn71  1  0.62497640  0.38300307  0.76111740  1
  Zn  Zn72  1  0.01548588  0.38434682  0.87268829  1
  Zn  Zn73  1  0.24669727  0.74824173  0.00197569  1
  Zn  Zn74  1  0.37878325  0.75012256  0.11718218  1
  Zn  Zn75  1  0.14498161  0.40594145  0.26236956  1
  Zn  Zn76  1  0.22434471  0.19855164  0.24227933  1
  Zn  Zn77  1  0.19303388  0.20755985  0.69780585  1
  Zn  Zn78  1  0.18731013  0.67596863  0.18032539  1
  Zn  Zn79  1  0.19272080  0.69725226  0.68133429  1
  Zn  Zn80  1  0.69358916  0.16951770  0.16925467  1
  Zn  Zn81  1  0.65958073  0.16334535  0.71829715  1
  Zn  Zn82  1  0.68425099  0.68711112  0.18613741  1
  Zn  Zn83  1  0.67644689  0.68050487  0.68841819  1
  Zn  Zn84  1  0.31362217  0.32903194  0.31003830  1
  Zn  Zn85  1  0.31906383  0.31234180  0.81411534  1
  Zn  Zn86  1  0.31281695  0.82229721  0.30942570  1
  Zn  Zn87  1  0.31515097  0.81278726  0.81242601  1
  Zn  Zn88  1  0.80707667  0.31009464  0.29675610  1
  Zn  Zn89  1  0.85776970  0.25734778  0.85357242  1
  Zn  Zn90  1  0.82142783  0.81058702  0.31311124  1
  Zn  Zn91  1  0.80999620  0.80737257  0.81695718  1
  Zn  Zn92  1  0.17530998  0.42461390  0.45499675  1
  Zn  Zn93  1  0.19868225  0.43315598  0.93915760  1
  Zn  Zn94  1  0.18583772  0.87884050  0.43405428  1
  Zn  Zn95  1  0.19350764  0.94316919  0.92859875  1
  Zn  Zn96  1  0.67388955  0.43632581  0.43272628  1
  Zn  Zn97  1  0.67626477  0.43446048  0.94703061  1
  Zn  Zn98  1  0.70404034  0.94877281  0.44484324  1
  Zn  Zn99  1  0.68642032  0.93076202  0.91711052  1
  Zn  Zn100  1  0.35011276  0.02808539  0.08340244  1
  Zn  Zn101  1  0.32624997  0.05705995  0.55168835  1
  Zn  Zn102  1  0.32811431  0.58717082  0.04867208  1
  Zn  Zn103  1  0.31412582  0.57078559  0.57013162  1
  Zn  Zn104  1  0.87039263  0.09939495  0.02775972  1
  Zn  Zn105  1  0.75766622  0.07348818  0.57235697  1
  Zn  Zn106  1  0.85477620  0.50465878  0.10467347  1
  Zn  Zn107  1  0.82762183  0.57760596  0.54991155  1
  Zn  Zn108  1  0.42129191  0.45090724  0.19455509  1
  Zn  Zn109  1  0.44655313  0.43602864  0.68468575  1
  Zn  Zn110  1  0.43592282  0.92965907  0.19307586  1
  Zn  Zn111  1  0.43742360  0.94502666  0.69722971  1
  Zn  Zn112  1  0.98934440  0.48502795  0.24083406  1
  Zn  Zn113  1  0.96172458  0.43592911  0.69300927  1
  Zn  Zn114  1  0.93702379  0.92821937  0.17961260  1
  Zn  Zn115  1  0.92975720  0.94233724  0.68597325  1
  Zn  Zn116  1  0.09411179  0.08263607  0.29050065  1
  Zn  Zn117  1  0.06375191  0.07238938  0.67008684  1
  Zn  Zn118  1  0.10465353  0.55278429  0.35933809  1
  Zn  Zn119  1  0.05572016  0.55911246  0.80146146  1
  Zn  Zn120  1  0.56520876  0.05740366  0.30734419  1
  Zn  Zn121  1  0.55933891  0.06541257  0.82654040  1
  Zn  Zn122  1  0.55717543  0.56263276  0.31766432  1
  Zn  Zn123  1  0.57821815  0.55710496  0.81246382  1
  Zn  Zn124  1  0.42356681  0.16939176  0.44056958  1
  Zn  Zn125  1  0.43665278  0.19974179  0.94483726  1
  Zn  Zn126  1  0.44250768  0.69505707  0.43803432  1
  Zn  Zn127  1  0.43052191  0.68842038  0.93139509  1
  Zn  Zn128  1  0.93670374  0.18746191  0.42164091  1
  Zn  Zn129  1  0.98886213  0.11007207  0.87000755  1
  Zn  Zn130  1  1.06356372  0.73275187  0.44351735  1
  Zn  Zn131  1  0.93711228  0.68976740  0.92991818  1
  Zn  Zn132  1  0.08221809  0.31924081  0.06199333  1
  Zn  Zn133  1  0.04583829  0.25605429  0.56720897  1
  Zn  Zn134  1  0.06819480  0.80120009  0.06167265  1
  Zn  Zn135  1  0.05898392  0.90005919  0.56198708  1
  Zn  Zn136  1  0.55928720  0.31000406  0.07347845  1
  Zn  Zn137  1  0.57310860  0.17961917  0.56594502  1
  Zn  Zn138  1  0.55706197  0.80756439  0.06868001  1
  Zn  Zn139  1  0.57004718  0.80947732  0.56564572  1
  O  O140  1  0.17503300  0.12094498  0.07509380  1
  O  O141  1  0.14376951  0.09113860  0.54931803  1
  O  O142  1  0.10990451  0.61942904  0.10539848  1
  O  O143  1  0.11025988  0.63503443  0.63379500  1
  O  O144  1  0.60399702  0.11476070  0.13394783  1
  O  O145  1  0.66961243  0.14540069  0.60985844  1
  O  O146  1  0.62387667  0.62113709  0.11298409  1
  O  O147  1  0.61010757  0.62762559  0.61282776  1
  O  O148  1  0.36292315  0.39666053  0.39038860  1
  O  O149  1  0.37096861  0.38671150  0.89266913  1
  O  O150  1  0.39084276  0.87333827  0.39200963  1
  O  O151  1  0.38727214  0.86334998  0.88311513  1
  O  O152  1  0.88276965  0.34889881  0.37523012  1
  O  O153  1  0.86901476  0.34497257  0.93975051  1
  O  O154  1  0.86055453  0.88015040  0.39049233  1
  O  O155  1  0.88182742  0.86499202  0.89228968  1
  O  O156  1  0.24174668  -0.03787507  0.36202780  1
  O  O157  1  0.25633080  0.00744435  0.85734867  1
  O  O158  1  0.25451919  0.51847710  0.38892871  1
  O  O159  1  0.25430295  0.50421031  0.86024970  1
  O  O160  1  0.74208792  0.01675298  0.35490515  1
  O  O161  1  0.75029439  0.01302752  0.87671699  1
  O  O162  1  0.74254900  0.49509435  0.35977223  1
  O  O163  1  0.74184286  0.50305062  0.87900362  1
  O  O164  1  0.25683757  0.51408026  0.11890713  1
  O  O165  1  0.26623424  0.49324667  0.64013823  1
  O  O166  1  0.25599357  0.97956155  0.13624396  1
  O  O167  1  0.27730096  0.99159897  0.63739715  1
  O  O168  1  0.72913294  0.49095222  0.14122992  1
  O  O169  1  0.75980197  0.48889664  0.60494620  1
  O  O170  1  0.75143480  0.99305187  0.13981063  1
  O  O171  1  0.73669863  0.98976549  0.65302428  1
  O  O172  1  -0.00089317  0.36465332  0.26165747  1
  O  O173  1  -0.00170866  0.31803317  0.67251666  1
  O  O174  1  0.00079545  0.84836960  0.23444011  1
  O  O175  1  -0.01389517  0.86512619  0.76252328  1
  O  O176  1  0.50044737  0.38745775  0.25970679  1
  O  O177  1  0.51193567  0.35782863  0.73724137  1
  O  O178  1  0.51072766  0.87324989  0.26285708  1
  O  O179  1  0.50984762  0.88023868  0.76930265  1
  O  O180  1  0.48971708  0.12435719  0.24392916  1
  O  O181  1  0.53247482  0.14582598  0.74470437  1
  O  O182  1  0.49474978  0.64248156  0.26286199  1
  O  O183  1  0.51044658  0.61767279  0.73579471  1
  O  O184  1  0.99401169  0.14122808  0.25197758  1
  O  O185  1  0.97488662  0.13765307  0.75110388  1
  O  O186  1  0.97596205  0.62865944  0.23068723  1
  O  O187  1  0.98719460  0.63981404  0.74609525  1
  O  O188  1  0.37614994  0.26801883  0.01841483  1
  O  O189  1  0.38871569  0.26868723  0.50595390  1
  O  O190  1  0.35501385  0.70285570  0.01437393  1
  O  O191  1  0.39157650  0.76832612  0.51304580  1
  O  O192  1  0.91694208  0.32665328  -0.00250775  1
  O  O193  1  0.95016857  0.21516185  0.52525221  1
  O  O194  1  0.86327779  0.75187091  -0.00096450  1
  O  O195  1  0.85435451  0.76022571  0.51643619  1
  O  O196  1  0.13461375  0.26093675  0.48893041  1
  O  O197  1  0.14116610  0.24704637  0.99806177  1
  O  O198  1  0.10886573  0.81806815  0.49716882  1
  O  O199  1  0.12831085  0.73226392  0.99056219  1
  O  O200  1  0.60915427  0.24706512  0.47371154  1
  O  O201  1  0.61493163  0.25359746  0.99087949  1
  O  O202  1  0.63399456  0.73851155  0.49999977  1
  O  O203  1  0.62499025  0.73717291  1.00028522  1
  O  O204  1  0.49127062  0.23603182  0.13763452  1
  O  O205  1  0.49454417  0.24268762  0.62799642  1
  O  O206  1  0.49199309  0.76064928  0.14961586  1
  O  O207  1  0.49685157  0.73971389  0.62657608  1
  O  O208  1  1.00971021  0.26475447  0.13525114  1
  O  O209  1  1.08553127  0.18431377  0.65620964  1
  O  O210  1  0.98863157  0.73272398  0.12159807  1
  O  O211  1  0.98777780  0.74902328  0.64199010  1
  O  O212  1  0.01460970  0.26010591  0.36859635  1
  O  O213  1  -0.02837533  0.28272949  0.82701065  1
  O  O214  1  -0.00855640  0.73629579  0.35224822  1
  O  O215  1  -0.00224561  0.75834637  0.86212931  1
  O  O216  1  0.49725976  0.22728378  0.36350903  1
  O  O217  1  0.50948448  0.24773932  0.86617581  1
  O  O218  1  0.50200559  0.76653119  0.36406634  1
  O  O219  1  0.50703160  0.75770514  0.88155307  1
  O  O220  1  0.16848037  0.04360101  0.49531340  1
  O  O221  1  0.22759904  0.11048173  1.02606255  1
  O  O222  1  0.25598617  0.64292019  0.50187788  1
  O  O223  1  0.23047974  0.61113488  0.97758900  1
  O  O224  1  0.75568796  0.12916093  0.46883179  1
  O  O225  1  0.76309130  0.12111835  0.99487585  1
  O  O226  1  0.73716768  0.63281448  0.50541021  1
  O  O227  1  0.73939199  0.62979500  0.98685337  1
  O  O228  1  0.26561607  0.38707308  0.02003382  1
  O  O229  1  0.26703081  0.38824473  0.51551759  1
  O  O230  1  0.23994638  0.87196775  0.01195290  1
  O  O231  1  0.27454851  0.88551877  0.51750978  1
  O  O232  1  0.72665170  0.37497089  0.02756396  1
  O  O233  1  0.76330394  0.39220057  0.50065130  1
  O  O234  1  0.75471834  0.86918004  0.00675768  1
  O  O235  1  0.73742130  0.85133740  0.49855791  1
  O  O236  1  0.10147044  0.51138070  0.25791552  1
  O  O237  1  0.14230931  0.49882204  0.74323695  1
  O  O238  1  0.09731726  0.97589855  0.25345821  1
  O  O239  1  0.14827613  1.01735137  0.73652915  1
  O  O240  1  0.62564750  0.49339041  0.25320226  1
  O  O241  1  0.62822166  0.49101374  0.74157237  1
  O  O242  1  0.63262268  0.98299675  0.24659489  1
  O  O243  1  0.62945133  0.98653225  0.76923034  1
  O  O244  1  0.36085367  -0.00628387  0.26026414  1
  O  O245  1  0.37079525  0.00241828  0.76845169  1
  O  O246  1  0.37827827  0.52259289  0.27610759  1
  O  O247  1  0.37470528  0.48901144  0.76450110  1
  O  O248  1  0.86851631  -0.00484340  0.24720514  1
  O  O249  1  0.85928401  0.00310485  0.75427470  1
  O  O250  1  0.86070731  0.51204709  0.24097058  1
  O  O251  1  0.87474552  0.52043613  0.73414144  1
  O  O252  1  0.12274034  0.36542335  0.37115154  1
  O  O253  1  0.12634603  0.35853497  0.89351893  1
  O  O254  1  0.12269385  0.84550512  0.34025424  1
  O  O255  1  0.10895973  0.87224973  0.87703049  1
  O  O256  1  0.62357873  0.36036825  0.36253861  1
  O  O257  1  0.63420653  0.35959539  0.87519157  1
  O  O258  1  0.62148565  0.87610946  0.36452404  1
  O  O259  1  0.60755312  0.86159318  0.87656878  1
  O  O260  1  0.37777477  0.14084725  0.11883915  1
  O  O261  1  0.36646940  0.14868332  0.61582385  1
  O  O262  1  0.37008881  0.62329424  0.15544130  1
  O  O263  1  0.38615069  0.64362553  0.62355514  1
  O  O264  1  0.87874202  0.12255747  0.13831512  1
  O  O265  1  0.85440793  0.11239678  0.63435900  1
  O  O266  1  0.87748450  0.63257495  0.11534901  1
  O  O267  1  0.88197684  0.64100000  0.63150734  1
  O  O268  1  0.26703598  0.24794949  0.14587196  1
  O  O269  1  0.26997655  0.27148880  0.63728904  1
  O  O270  1  0.25199188  0.75625501  0.12603068  1
  O  O271  1  0.27144960  0.76630101  0.63517728  1
  O  O272  1  0.74207931  0.26567306  0.14689856  1
  O  O273  1  0.78065655  0.28292733  0.59206466  1
  O  O274  1  0.75373489  0.74198117  0.10843619  1
  O  O275  1  0.75332535  0.74658076  0.63118716  1
  O  O276  1  0.23804963  0.24989186  0.34899486  1
  O  O277  1  0.24907094  0.24297917  0.87130245  1
  O  O278  1  0.26011432  0.76375975  0.39503349  1
  O  O279  1  0.24931653  0.73103515  0.86781858  1
  O  O280  1  0.73032122  0.24113934  0.35483534  1
  O  O281  1  0.74234401  0.23882558  0.88290294  1
  O  O282  1  0.75600349  0.74264864  0.38301933  1
  O  O283  1  0.72989018  0.75959250  0.89249574  1
  O  O284  1  -0.02069374  0.09447383  -0.01276314  1
  O  O285  1  -0.02862726  0.05675424  0.45042281  1
  O  O286  1  0.00397000  0.62456748  0.00078558  1
  O  O287  1  0.00829648  0.65319101  0.51630748  1
  O  O288  1  0.49980137  0.13006332  0.01246266  1
  O  O289  1  0.50369896  0.10958725  0.50449765  1
  O  O290  1  0.50462363  0.62775072  0.00453057  1
  O  O291  1  0.51030631  0.62461993  0.50401539  1
  O  O292  1  0.48451096  0.40022420  0.50059379  1
  O  O293  1  0.48595085  0.37962788  1.01436330  1
  O  O294  1  0.51208833  0.87852259  0.49038206  1
  O  O295  1  0.50109816  0.87297142  0.99385231  1
  O  O296  1  0.99657984  0.38452320  0.49179764  1
  O  O297  1  0.99245740  0.36460174  0.98905067  1
  O  O298  1  0.95627932  0.89499696  0.51004375  1
  O  O299  1  0.99279884  0.87866746  0.99207861  1
  O  O300  1  0.48158584  0.51554158  0.39186452  1
  O  O301  1  0.48997979  0.50470210  0.87055990  1
  O  O302  1  0.50604727  0.98623709  0.37697607  1
  O  O303  1  0.48415610  0.99115958  0.87952028  1
  O  O304  1  0.98893454  0.47315849  0.37006160  1
  O  O305  1  0.99510377  0.46357729  0.79889182  1
  O  O306  1  0.99283536  1.01547384  0.39417120  1
  O  O307  1  0.99648337  0.98444108  0.87695397  1
  O  O308  1  0.00157529  -0.00693509  0.11056496  1
  O  O309  1  0.01406900  -0.01582032  0.62673950  1
  O  O310  1  -0.02064936  0.51658876  0.12450994  1
  O  O311  1  0.00033922  0.51669543  0.60786466  1
  O  O312  1  0.46708181  0.01521945  0.12159824  1
  O  O313  1  0.51343274  -0.00190246  0.62477195  1
  O  O314  1  0.51098883  0.50277868  0.14078099  1
  O  O315  1  0.48467485  0.51902286  0.60945685  1
  O  O316  1  0.25831118  0.39323000  0.23199143  1
  O  O317  1  0.25731708  0.38551414  0.74210449  1
  O  O318  1  0.23489439  0.87786976  0.23927102  1
  O  O319  1  0.25810972  0.88387297  0.74467977  1
  O  O320  1  0.73759584  0.38791690  0.24752573  1
  O  O321  1  0.74245067  0.37485828  0.70743377  1
  O  O322  1  0.74397551  0.88388912  0.25826474  1
  O  O323  1  0.73489360  0.88499264  0.77641082  1
  O  O324  1  0.21499383  0.08623968  0.25507927  1
  O  O325  1  0.26042234  0.12458516  0.73790380  1
  O  O326  1  0.25823984  0.64337567  0.27094180  1
  O  O327  1  0.24594583  0.61493505  0.75762863  1
  O  O328  1  0.76363578  0.11227456  0.24389821  1
  O  O329  1  0.75018496  0.10591345  0.76247603  1
  O  O330  1  0.75197855  0.61369299  0.24520127  1
  O  O331  1  0.75856746  0.62683183  0.74645183  1
  O  O332  1  0.32862296  0.11184376  0.45302147  1
  O  O333  1  0.38193057  0.12511810  0.87746947  1
  O  O334  1  0.36141492  0.62934530  0.37961529  1
  O  O335  1  0.36048336  0.60917903  0.87519263  1
  O  O336  1  0.86033435  0.13955399  0.35121403  1
  O  O337  1  0.85958454  0.13611353  0.86742450  1
  O  O338  1  0.87029837  0.62529073  0.35613071  1
  O  O339  1  0.86838117  0.62233858  0.86269253  1
  O  O340  1  0.14438653  0.39182307  0.12538713  1
  O  O341  1  0.14802231  0.37571890  0.61528878  1
  O  O342  1  0.13421656  0.86154066  0.13549301  1
  O  O343  1  0.15397690  0.88074489  0.63043961  1
  O  O344  1  0.61882247  0.38103722  0.14656908  1
  O  O345  1  0.65646404  0.37427964  0.59881262  1
  O  O346  1  0.63276909  0.87088552  0.13495884  1
  O  O347  1  0.61939219  0.86377548  0.65341854  1
  O  O348  1  0.11545722  0.24995457  0.24933334  1
  O  O349  1  0.12228874  0.27819901  0.76858200  1
  O  O350  1  0.10206386  0.73016857  0.23668435  1
  O  O351  1  0.10893200  0.74931993  0.75082983  1
  O  O352  1  0.59466082  0.26324286  0.25428968  1
  O  O353  1  0.62491735  0.26255588  0.76577504  1
  O  O354  1  0.61703641  0.76172775  0.24635152  1
  O  O355  1  0.62902129  0.75465934  0.77011226  1
  O  O356  1  0.38883841  0.26227927  0.24256068  1
  O  O357  1  0.39452723  0.25513748  0.74208054  1
  O  O358  1  0.38490769  0.74439894  0.25926356  1
  O  O359  1  0.38676210  0.75217314  0.74286105  1
  O  O360  1  0.88732366  0.24577498  0.23884997  1
  O  O361  1  0.84435994  0.22997098  0.73917216  1
  O  O362  1  0.87067586  0.73898185  0.23661207  1
  O  O363  1  0.87354736  0.74507460  0.74363966  1
  O  O364  1  0.37752769  0.50724515  0.49356077  1
  O  O365  1  0.37871205  0.49792292  0.98980314  1
  O  O366  1  0.40730714  0.97726122  0.51344377  1
  O  O367  1  0.35351652  1.00118608  0.97458694  1
  O  O368  1  0.90490582  0.52702521  0.48438250  1
  O  O369  1  0.85812867  0.51391590  0.98984985  1
  O  O370  1  0.81312201  0.98169852  0.50767025  1
  O  O371  1  0.87325502  0.97794575  1.00786957  1
  O  O372  1  0.11380591  -0.00364746  -0.00545787  1
  O  O373  1  0.12003694  -0.01844569  0.47741787  1
  O  O374  1  0.11343801  0.50586755  -0.01525915  1
  O  O375  1  0.09967131  0.51342177  0.47029809  1
  O  O376  1  0.64086891  -0.01676604  0.01711518  1
  O  O377  1  0.61919028  -0.00249642  0.50255613  1
  O  O378  1  0.61899232  0.51437534  0.01069935  1
  O  O379  1  0.60858166  0.51019084  0.49301143  1
  O  O380  1  0.36723641  0.38133782  0.12064532  1
  O  O381  1  0.37767630  0.37134516  0.61332749  1
  O  O382  1  0.35838052  0.86658860  0.13160311  1
  O  O383  1  0.38556563  0.86507542  0.62386083  1
  O  O384  1  0.84963994  0.38838284  0.12763272  1
  O  O385  1  0.86439945  0.39697745  0.62223319  1
  O  O386  1  0.88015932  0.85334357  0.10813050  1
  O  O387  1  0.86300510  0.86325378  0.63026762  1
  O  O388  1  0.11565796  0.14737980  0.38034017  1
  O  O389  1  0.09068845  0.16846279  0.86866314  1
  O  O390  1  0.14218212  0.65619544  0.39008070  1
  O  O391  1  0.12559160  0.62065069  0.87496853  1
  O  O392  1  0.63393253  0.13542077  0.35656755  1
  O  O393  1  0.64042528  0.13580885  0.87812081  1
  O  O394  1  0.62408703  0.62563112  0.38856861  1
  O  O395  1  0.61339446  0.63712806  0.88851416  1
