# generated using pymatgen
data_V35Zn35O128
_symmetry_space_group_name_H-M   'P 1'
_cell_length_a   16.90063463
_cell_length_b   16.83847174
_cell_length_c   16.84431894
_cell_angle_alpha   90.27433399
_cell_angle_beta   89.95838642
_cell_angle_gamma   90.17987064
_symmetry_Int_Tables_number   1
_chemical_formula_structural   V35Zn35O128
_chemical_formula_sum   'V70 Zn70 O256'
_cell_volume   4793.49096527
_cell_formula_units_Z   2
loop_
 _symmetry_equiv_pos_site_id
 _symmetry_equiv_pos_as_xyz
  1  'x, y, z'
loop_
 _atom_site_type_symbol
 _atom_site_label
 _atom_site_symmetry_multiplicity
 _atom_site_fract_x
 _atom_site_fract_y
 _atom_site_fract_z
 _atom_site_occupancy
  V  V0  1  0.75529668  -0.00432976  0.25383031  1
  V  V1  1  0.25713154  0.25123127  0.48655918  1
  V  V2  1  0.74161204  0.63201499  0.36249627  1
  V  V3  1  0.12190042  0.75161746  0.36874413  1
  V  V4  1  0.50540449  0.12071164  0.10864255  1
  V  V5  1  0.50285159  0.24581159  0.73239494  1
  V  V6  1  0.36393415  0.14123108  0.73628175  1
  V  V7  1  0.13922400  -0.01006342  0.62521931  1
  V  V8  1  0.87271079  0.49690736  0.39022780  1
  V  V9  1  0.25145316  0.36087767  0.62498491  1
  V  V10  1  0.60739588  0.12206347  0.50579410  1
  V  V11  1  0.88125988  0.13667857  0.74840680  1
  V  V12  1  0.24499615  0.12032718  0.88188158  1
  V  V13  1  0.62631557  -0.00076065  0.11494843  1
  V  V14  1  0.48956777  0.52412294  0.00255229  1
  V  V15  1  0.37087745  0.75500299  0.63106678  1
  V  V16  1  0.01303202  0.62929266  0.11373291  1
  V  V17  1  -0.01261745  0.74303780  0.73884829  1
  V  V18  1  0.13083585  0.88451529  0.25420831  1
  V  V19  1  0.60944148  0.39693662  0.73763436  1
  V  V20  1  0.39028547  -0.00853137  0.37402506  1
  V  V21  1  -0.01130478  0.87855783  0.36954701  1
  V  V22  1  0.88502404  0.63384819  0.24396643  1
  V  V23  1  0.11682313  0.61167559  0.50521601  1
  V  V24  1  0.13359075  0.48411064  0.13978888  1
  V  V25  1  0.38072949  0.88969987  0.00156791  1
  V  V26  1  0.12093281  0.13095232  0.50809601  1
  V  V27  1  0.61236690  0.87946016  0.24787001  1
  V  V28  1  0.38073243  0.25542056  0.09917405  1
  V  V29  1  0.37934619  0.74545351  0.12773776  1
  V  V30  1  0.74877831  0.36633767  0.61418297  1
  V  V31  1  0.50165134  0.36176733  0.89084698  1
  V  V32  1  0.86797711  0.75688048  0.10863915  1
  V  V33  1  0.75446246  0.13134448  0.38330546  1
  V  V34  1  0.24412351  0.49768102  0.73749604  1
  V  V35  1  0.03588166  0.34168904  0.36628459  1
  V  V36  1  0.13858041  0.87285702  0.74717461  1
  V  V37  1  0.11549859  0.25940054  0.87281442  1
  V  V38  1  0.24477777  0.61546690  0.88359831  1
  V  V39  1  0.11000725  0.37247330  0.74238537  1
  V  V40  1  -0.00761362  0.00206786  0.51003021  1
  V  V41  1  0.24103450  0.75308110  0.00190116  1
  V  V42  1  0.24492110  0.11300758  0.36971269  1
  V  V43  1  0.38837833  0.38722728  0.50046164  1
  V  V44  1  0.00521418  0.47864045  -0.00031989  1
  V  V45  1  0.62636979  0.75607977  0.37916623  1
  V  V46  1  0.49818480  0.73825344  0.24810842  1
  V  V47  1  0.38744333  0.87694684  0.50116579  1
  V  V48  1  0.77544251  0.49136164  0.75234517  1
  V  V49  1  0.62188694  0.49025233  0.12395522  1
  V  V50  1  0.64426829  0.63715301  0.00095877  1
  V  V51  1  0.37175028  0.62406858  0.74607953  1
  V  V52  1  0.61728260  -0.02784811  0.61624028  1
  V  V53  1  0.39083603  0.12992189  0.25568493  1
  V  V54  1  0.89354223  0.26234238  0.11896978  1
  V  V55  1  0.61576791  0.25969436  0.37186230  1
  V  V56  1  0.10847752  0.01155450  0.12950839  1
  V  V57  1  0.75247450  0.49157040  0.23497562  1
  V  V58  1  0.87242057  0.87087429  0.52468618  1
  V  V59  1  0.87962295  0.13088463  0.24198312  1
  V  V60  1  0.25638271  0.62227186  0.36446467  1
  V  V61  1  0.10429330  0.12519067  0.00040613  1
  V  V62  1  0.88694830  0.24916778  0.60405651  1
  V  V63  1  0.36826521  -0.00013095  0.85383539  1
  V  V64  1  0.73322247  0.13534130  0.87241573  1
  V  V65  1  0.75046877  -0.00876964  0.74009208  1
  V  V66  1  0.25126371  0.89219585  0.13099120  1
  V  V67  1  0.50499062  0.87603275  0.86338799  1
  V  V68  1  0.24221721  0.75903389  0.50595895  1
  V  V69  1  0.38628515  0.50564110  0.36455412  1
  Zn  Zn70  1  0.76060159  0.75013358  0.52877680  1
  Zn  Zn71  1  -0.00502202  0.87966555  0.88989290  1
  Zn  Zn72  1  0.88171806  0.47371892  0.88888991  1
  Zn  Zn73  1  0.52488064  0.74828003  0.75509278  1
  Zn  Zn74  1  0.11430466  0.74968866  0.87304052  1
  Zn  Zn75  1  0.35365439  0.39151127  0.99251895  1
  Zn  Zn76  1  0.20526762  0.17566720  0.17795415  1
  Zn  Zn77  1  0.18554858  0.18544327  0.69026010  1
  Zn  Zn78  1  0.18747703  0.69371767  0.18786492  1
  Zn  Zn79  1  0.17830221  0.68341696  0.68612733  1
  Zn  Zn80  1  0.68851602  0.18141202  0.19418366  1
  Zn  Zn81  1  0.68978686  0.18751140  0.68673148  1
  Zn  Zn82  1  0.68924695  0.68634537  0.17682745  1
  Zn  Zn83  1  0.70665764  0.67109730  0.70668513  1
  Zn  Zn84  1  0.43553606  0.32049662  0.31776807  1
  Zn  Zn85  1  0.30111316  0.32088916  0.84003537  1
  Zn  Zn86  1  0.31071824  0.81209278  0.31428145  1
  Zn  Zn87  1  0.30466697  0.81568206  0.81562190  1
  Zn  Zn88  1  0.81197606  0.31245683  0.31271472  1
  Zn  Zn89  1  0.75862278  0.34075806  0.85886268  1
  Zn  Zn90  1  0.81137937  0.81375983  0.29476362  1
  Zn  Zn91  1  0.82615646  0.82830183  0.81351804  1
  Zn  Zn92  1  0.19065129  0.43697626  0.42633876  1
  Zn  Zn93  1  0.17965921  0.43664372  0.94933757  1
  Zn  Zn94  1  0.18770110  0.94057602  0.44141369  1
  Zn  Zn95  1  0.16150692  0.92725106  0.95369533  1
  Zn  Zn96  1  0.68373605  0.44535329  0.43543763  1
  Zn  Zn97  1  0.65924772  0.48517414  0.90951275  1
  Zn  Zn98  1  0.69194853  0.93751370  0.44107704  1
  Zn  Zn99  1  0.65393422  0.99057941  0.90540798  1
  Zn  Zn100  1  0.31434787  0.07022343  0.06356558  1
  Zn  Zn101  1  0.31611896  0.05995384  0.55813000  1
  Zn  Zn102  1  0.30544793  0.56552429  0.07097366  1
  Zn  Zn103  1  0.30582700  0.56816391  0.55632488  1
  Zn  Zn104  1  0.80714330  0.07018008  0.05916679  1
  Zn  Zn105  1  0.80807779  0.06192480  0.57068151  1
  Zn  Zn106  1  0.82037088  0.56150026  0.05612046  1
  Zn  Zn107  1  0.75441727  0.56407444  0.55656965  1
  Zn  Zn108  1  0.42887575  0.44369188  0.17633254  1
  Zn  Zn109  1  0.43376347  0.44142857  0.68289833  1
  Zn  Zn110  1  0.43761023  0.94482593  0.18918940  1
  Zn  Zn111  1  0.43742417  0.93510429  0.67900565  1
  Zn  Zn112  1  0.94719270  0.43839008  0.19529631  1
  Zn  Zn113  1  0.90051789  0.35474780  0.75078492  1
  Zn  Zn114  1  0.93624468  0.93671975  0.18710611  1
  Zn  Zn115  1  0.94644998  0.94740506  0.71135804  1
  Zn  Zn116  1  0.05797603  0.06232612  0.31928654  1
  Zn  Zn117  1  0.05388950  0.05278697  0.81304982  1
  Zn  Zn118  1  0.05919391  0.55631802  0.31835792  1
  Zn  Zn119  1  0.06133129  0.56245370  0.81872152  1
  Zn  Zn120  1  0.56863963  0.06125490  0.32064345  1
  Zn  Zn121  1  0.55639065  0.05977753  0.78607711  1
  Zn  Zn122  1  0.56326071  0.55990834  0.30563366  1
  Zn  Zn123  1  0.54635639  0.56629883  0.82094345  1
  Zn  Zn124  1  0.43696832  0.18641718  0.44272170  1
  Zn  Zn125  1  0.45145064  0.17880556  0.92233571  1
  Zn  Zn126  1  0.44382046  0.68590814  0.44490344  1
  Zn  Zn127  1  0.42622752  0.69909881  0.93106864  1
  Zn  Zn128  1  0.94022691  0.19296786  0.42834106  1
  Zn  Zn129  1  0.90663223  0.24497190  0.90885169  1
  Zn  Zn130  1  0.93352711  0.68702586  0.43760482  1
  Zn  Zn131  1  0.93719843  0.68158633  0.92749444  1
  Zn  Zn132  1  0.06858997  0.30454579  0.06809322  1
  Zn  Zn133  1  0.05984479  0.32821822  0.55272953  1
  Zn  Zn134  1  0.04803131  0.81787637  0.06898056  1
  Zn  Zn135  1  0.05367403  0.80888556  0.56432156  1
  Zn  Zn136  1  0.55965702  0.30982848  0.18722574  1
  Zn  Zn137  1  0.56679935  0.30531854  0.55962065  1
  Zn  Zn138  1  0.56449828  0.81434997  0.05817334  1
  Zn  Zn139  1  0.57979787  0.75192635  0.58332862  1
  O  O140  1  0.12322329  0.12284292  0.11954350  1
  O  O141  1  0.12951641  0.11420925  0.61304512  1
  O  O142  1  0.11532855  0.62306568  0.13329379  1
  O  O143  1  0.12887240  0.62070582  0.60595964  1
  O  O144  1  0.61189995  0.11627035  0.12973079  1
  O  O145  1  0.62759128  0.13069768  0.60489648  1
  O  O146  1  0.62624052  0.61804082  0.10872243  1
  O  O147  1  0.61322163  0.72566835  0.69130885  1
  O  O148  1  0.37621280  0.39244538  0.38822612  1
  O  O149  1  0.39770518  0.37614231  0.87777122  1
  O  O150  1  0.37082867  0.88384941  0.38389930  1
  O  O151  1  0.37064818  0.88579134  0.88365649  1
  O  O152  1  0.85395856  0.39672959  0.37917092  1
  O  O153  1  0.87616864  0.34924301  0.86580299  1
  O  O154  1  0.88856289  0.87081774  0.36500167  1
  O  O155  1  0.86987318  0.87332765  0.91594067  1
  O  O156  1  0.26159424  0.01063403  0.38482951  1
  O  O157  1  0.26126739  0.00713816  0.87500932  1
  O  O158  1  0.25842368  0.51775589  0.37478577  1
  O  O159  1  0.24723494  0.51426818  0.87681154  1
  O  O160  1  0.74274028  0.00973915  0.36076709  1
  O  O161  1  0.75142902  0.00781197  0.84740362  1
  O  O162  1  0.74915856  0.51798156  0.35477874  1
  O  O163  1  0.75912569  0.45975652  0.86675441  1
  O  O164  1  0.23415806  0.50072516  0.12420821  1
  O  O165  1  0.24555265  0.49320040  0.63514023  1
  O  O166  1  0.24899838  0.99529295  0.12614354  1
  O  O167  1  0.23785785  0.99668925  0.61528104  1
  O  O168  1  0.74159045  0.50133885  0.12763139  1
  O  O169  1  0.76070140  0.48290542  0.64483226  1
  O  O170  1  0.73205557  1.01352130  0.13925469  1
  O  O171  1  0.73154387  0.99993846  0.62724131  1
  O  O172  1  -0.00834544  0.38120594  0.28211807  1
  O  O173  1  0.01356188  0.38194215  0.73698962  1
  O  O174  1  0.01290961  0.88726122  0.26443686  1
  O  O175  1  0.01574346  0.85772444  0.74228813  1
  O  O176  1  0.49313461  0.38020274  0.24356490  1
  O  O177  1  0.49980844  0.36654608  0.74286563  1
  O  O178  1  0.51024178  0.87537866  0.25173490  1
  O  O179  1  0.49177592  0.87062061  0.75959869  1
  O  O180  1  0.49160951  0.11982916  0.25598631  1
  O  O181  1  0.47933104  0.13778565  0.75221192  1
  O  O182  1  0.50158294  0.64010327  0.24129971  1
  O  O183  1  0.47327168  0.63170616  0.76180102  1
  O  O184  1  0.97701070  0.11273451  0.25878838  1
  O  O185  1  0.98058604  0.12031213  0.75112836  1
  O  O186  1  0.98758504  0.61758356  0.24118567  1
  O  O187  1  1.01144316  0.64357397  0.75991178  1
  O  O188  1  0.38633160  0.23951216  0.00000621  1
  O  O189  1  0.36314105  0.26449289  0.49253202  1
  O  O190  1  0.36667139  0.76500845  0.01236716  1
  O  O191  1  0.36203043  0.75630486  0.50781494  1
  O  O192  1  0.87853708  0.24338050  0.01918962  1
  O  O193  1  0.87187930  0.24532533  0.50329649  1
  O  O194  1  0.87775756  0.74174373  0.00930622  1
  O  O195  1  0.88028242  0.76723262  0.50204048  1
  O  O196  1  0.13274509  0.23376741  0.50597967  1
  O  O197  1  0.12244178  0.23466963  0.98715649  1
  O  O198  1  0.13257366  0.75226430  0.49098454  1
  O  O199  1  0.14328548  0.75126346  1.01721011  1
  O  O200  1  0.62071920  0.23478392  0.48538151  1
  O  O201  1  0.71179725  0.27641455  1.05259982  1
  O  O202  1  0.64322704  0.76359570  0.47812283  1
  O  O203  1  0.62275203  0.73729209  1.00085387  1
  O  O204  1  0.48877110  0.22948551  0.12889311  1
  O  O205  1  0.49032381  0.25140222  0.63288539  1
  O  O206  1  0.48630353  0.76066826  0.13158721  1
  O  O207  1  0.47001710  0.75604851  0.63727335  1
  O  O208  1  0.99332463  0.24639621  0.13069312  1
  O  O209  1  0.98732670  0.26007742  0.61130187  1
  O  O210  1  0.99687484  0.73486256  0.12475420  1
  O  O211  1  0.99745593  0.74311946  0.63604000  1
  O  O212  1  0.02036491  0.23861165  0.36430040  1
  O  O213  1  0.01897513  0.23674670  0.86985852  1
  O  O214  1  0.01269403  0.76882786  0.38236768  1
  O  O215  1  0.00038264  0.76088471  0.87155825  1
  O  O216  1  0.50827934  0.25156889  0.37798960  1
  O  O217  1  0.50304284  0.25835580  0.85982579  1
  O  O218  1  0.51438423  0.74667277  0.35853078  1
  O  O219  1  0.49317808  0.76770681  0.86898902  1
  O  O220  1  0.24524100  0.13360144  0.49509534  1
  O  O221  1  0.25284331  0.12447479  0.98378691  1
  O  O222  1  0.23894079  0.63817294  0.48828823  1
  O  O223  1  0.26100405  0.64044124  0.99116514  1
  O  O224  1  0.74981175  0.11559776  0.48368356  1
  O  O225  1  0.75428067  0.11348034  0.97059057  1
  O  O226  1  0.76353568  0.64853884  0.45871367  1
  O  O227  1  0.74413515  0.62552461  0.99939934  1
  O  O228  1  0.25731197  0.35894304  -0.05311730  1
  O  O229  1  0.24454125  0.36101156  0.50465035  1
  O  O230  1  0.25561869  0.87006932  0.01060934  1
  O  O231  1  0.25419600  0.86159264  0.49335143  1
  O  O232  1  0.74440596  0.33418431  0.01909483  1
  O  O233  1  0.74094458  0.38166387  0.51642439  1
  O  O234  1  0.82746085  0.92636402  -0.03634423  1
  O  O235  1  0.76923521  0.87315406  0.49954727  1
  O  O236  1  0.12060421  0.50090958  0.24037947  1
  O  O237  1  0.13720116  0.48481724  0.75966574  1
  O  O238  1  0.12414938  1.00090866  0.24000522  1
  O  O239  1  0.12199196  0.99100440  0.73189798  1
  O  O240  1  0.63686284  0.51186422  0.23287794  1
  O  O241  1  0.59976621  0.49727540  0.73872410  1
  O  O242  1  0.62825626  0.99002471  0.24769594  1
  O  O243  1  0.63454838  0.99468436  0.73007914  1
  O  O244  1  0.37616877  0.00566472  0.26732294  1
  O  O245  1  0.36981606  0.00415862  0.75165756  1
  O  O246  1  0.37488811  0.49930790  0.26482910  1
  O  O247  1  0.35748112  0.51436151  0.74896713  1
  O  O248  1  0.85922161  0.00468128  0.24199986  1
  O  O249  1  0.85640288  0.02278926  0.72184727  1
  O  O250  1  0.86204740  0.51207303  0.24609079  1
  O  O251  1  0.87579091  0.47730627  0.76087312  1
  O  O252  1  0.13655997  0.36298166  0.36222448  1
  O  O253  1  0.11962985  0.36339202  0.86263923  1
  O  O254  1  0.12548429  0.87257207  0.36890842  1
  O  O255  1  0.13251831  0.88005203  0.85259129  1
  O  O256  1  0.63190064  0.35848589  0.38211000  1
  O  O257  1  0.60704392  0.38727799  0.85178587  1
  O  O258  1  0.63090894  0.86583276  0.35858057  1
  O  O259  1  0.60260738  0.88973845  0.87865945  1
  O  O260  1  0.39109704  0.11380545  0.14028213  1
  O  O261  1  0.36402312  0.12709779  0.63682013  1
  O  O262  1  0.36845226  0.64737276  0.12552593  1
  O  O263  1  0.35903924  0.63822067  0.63582281  1
  O  O264  1  0.86964127  0.12609598  0.13726800  1
  O  O265  1  0.86680704  0.14303543  0.62639453  1
  O  O266  1  0.88511769  0.63144861  0.12970323  1
  O  O267  1  0.94278070  0.57192453  0.63110107  1
  O  O268  1  0.28506572  0.22616145  0.11791833  1
  O  O269  1  0.24744799  0.25599322  0.61579905  1
  O  O270  1  0.26150167  0.76473096  0.12264421  1
  O  O271  1  0.24764772  0.74800310  0.60957460  1
  O  O272  1  0.75443578  0.24841411  0.12351811  1
  O  O273  1  0.74460387  0.26252437  0.62085564  1
  O  O274  1  0.76791042  0.75382352  0.12764441  1
  O  O275  1  0.75866438  0.66954080  0.60822455  1
  O  O276  1  0.24949663  0.23286642  0.38754152  1
  O  O277  1  0.22886349  0.22605952  0.86544363  1
  O  O278  1  0.24311001  0.74472405  0.38279642  1
  O  O279  1  0.24250658  0.75575506  0.89452090  1
  O  O280  1  0.73765832  0.23630875  0.36889378  1
  O  O281  1  0.72078201  0.23597006  0.87057120  1
  O  O282  1  0.73263321  0.74598775  0.34561878  1
  O  O283  1  0.74110139  0.76427824  0.88231833  1
  O  O284  1  0.00964671  0.11649348  -0.00487177  1
  O  O285  1  0.01288954  0.11231760  0.49088584  1
  O  O286  1  0.00550120  0.61929139  0.01268058  1
  O  O287  1  0.01886961  0.63404788  0.48903566  1
  O  O288  1  0.49870079  0.11773094  0.00942292  1
  O  O289  1  0.50702655  0.11868526  0.50031390  1
  O  O290  1  0.48954952  0.62451133  -0.00521229  1
  O  O291  1  0.52516173  0.67038824  0.51786929  1
  O  O292  1  0.48590109  0.37700382  0.50976599  1
  O  O293  1  0.51276234  0.35978356  0.98821660  1
  O  O294  1  0.48225460  0.86304045  0.49801110  1
  O  O295  1  0.48312704  0.87351690  0.99073991  1
  O  O296  1  1.00939028  0.37193770  0.46297457  1
  O  O297  1  1.00853504  0.37826550  1.00072947  1
  O  O298  1  0.98916724  0.88342969  0.49389766  1
  O  O299  1  1.05284580  0.88960610  0.98708789  1
  O  O300  1  0.48601856  0.51918941  0.37680438  1
  O  O301  1  0.49973740  0.49092454  0.90159993  1
  O  O302  1  0.48913995  0.99812033  0.37901017  1
  O  O303  1  0.47821401  0.99076880  0.86472984  1
  O  O304  1  0.97306276  0.51285262  0.37942457  1
  O  O305  1  1.00757325  0.49724138  0.89460564  1
  O  O306  1  1.00773036  0.98478340  0.39217843  1
  O  O307  1  0.97521306  0.97192836  0.82663709  1
  O  O308  1  0.01060103  0.00279637  0.12582989  1
  O  O309  1  0.01019383  -0.00250915  0.61138352  1
  O  O310  1  0.01037485  0.50719933  0.12016788  1
  O  O311  1  -0.02833138  0.51069960  0.60609924  1
  O  O312  1  0.51226185  0.00977828  0.12879276  1
  O  O313  1  0.51810945  -0.00273065  0.63065851  1
  O  O314  1  0.50963344  0.50274690  0.11336964  1
  O  O315  1  0.47216616  0.52576473  0.62000636  1
  O  O316  1  0.24455905  0.33883525  0.23425905  1
  O  O317  1  0.25301153  0.38488296  0.74408856  1
  O  O318  1  0.24224729  0.87615803  0.24373951  1
  O  O319  1  0.23899628  0.87119391  0.73969541  1
  O  O320  1  0.75074555  0.39352162  0.24989918  1
  O  O321  1  0.72203868  0.38358744  0.74374055  1
  O  O322  1  0.74018583  0.89070121  0.24740001  1
  O  O323  1  0.76294596  0.89031712  0.74487368  1
  O  O324  1  0.25779073  0.12372273  0.26664029  1
  O  O325  1  0.25856955  0.12382697  0.75802216  1
  O  O326  1  0.25346701  0.63918829  0.26541765  1
  O  O327  1  0.24607089  0.61079030  0.75531742  1
  O  O328  1  0.75588267  0.11397415  0.25940372  1
  O  O329  1  0.75085622  0.12193115  0.75444276  1
  O  O330  1  0.76211591  0.62249103  0.24595437  1
  O  O331  1  0.75110870  0.58815046  0.76774588  1
  O  O332  1  0.37039605  0.11373631  0.37276235  1
  O  O333  1  0.36602569  0.11357441  0.86590398  1
  O  O334  1  0.36533059  0.62233946  0.38522532  1
  O  O335  1  0.35093964  0.64338531  0.85706130  1
  O  O336  1  0.86021291  0.13238360  0.36373629  1
  O  O337  1  0.85834351  0.14679174  0.85324342  1
  O  O338  1  0.86823717  0.62709184  0.35556922  1
  O  O339  1  0.87382955  0.59465298  0.89401687  1
  O  O340  1  0.12395964  0.38253358  0.12971483  1
  O  O341  1  0.13469533  0.37012378  0.63576828  1
  O  O342  1  0.13102189  0.89154579  0.13594429  1
  O  O343  1  0.12399959  0.88370014  0.62479198  1
  O  O344  1  0.62206755  0.39025832  0.12560428  1
  O  O345  1  0.62706588  0.37420258  0.63211436  1
  O  O346  1  0.61836328  0.88797949  0.13490205  1
  O  O347  1  0.61827271  0.87361003  0.60414128  1
  O  O348  1  0.18744173  0.29301810  0.23547264  1
  O  O349  1  0.12730170  0.26283336  0.75600623  1
  O  O350  1  0.12821474  0.76726824  0.25949912  1
  O  O351  1  0.12368513  0.76125702  0.74818115  1
  O  O352  1  0.62043081  0.24485021  0.26256824  1
  O  O353  1  0.60440728  0.25059295  0.74013500  1
  O  O354  1  0.61117645  0.76308031  0.23892423  1
  O  O355  1  0.68877772  0.73334220  0.83947819  1
  O  O356  1  0.37917242  0.23092386  0.25836906  1
  O  O357  1  0.37190765  0.24329481  0.75481465  1
  O  O358  1  0.38792154  0.76295818  0.24055633  1
  O  O359  1  0.35154915  0.74305249  0.73774360  1
  O  O360  1  0.86444154  0.23733188  0.23869083  1
  O  O361  1  0.87596758  0.24184962  0.72910602  1
  O  O362  1  0.87904473  0.73818371  0.24008936  1
  O  O363  1  0.88642497  0.75271752  0.75768525  1
  O  O364  1  0.36683736  0.49186950  0.49401157  1
  O  O365  1  0.38700986  0.50160080  1.01741098  1
  O  O366  1  0.37507680  0.98621078  0.49290617  1
  O  O367  1  0.37184575  0.99128431  0.99539890  1
  O  O368  1  0.84880535  0.51972600  0.48538087  1
  O  O369  1  0.89650424  0.49205777  1.00807013  1
  O  O370  1  0.88747139  0.99293941  0.50786542  1
  O  O371  1  0.87280464  0.97789868  1.00089035  1
  O  O372  1  0.13583309  0.01840587  0.02060572  1
  O  O373  1  0.11830458  0.00508422  0.50941613  1
  O  O374  1  0.11471870  0.49850755  0.01689728  1
  O  O375  1  0.12840754  0.51257767  0.48704639  1
  O  O376  1  0.63284270  -0.00892533  0.01701849  1
  O  O377  1  0.62722153  0.00835437  0.50680248  1
  O  O378  1  0.61229204  0.50973812  0.01265163  1
  O  O379  1  0.65826742  0.52987943  0.50279530  1
  O  O380  1  0.37836642  0.35985376  0.10674564  1
  O  O381  1  0.35934456  0.38121879  0.61043090  1
  O  O382  1  0.37038423  0.88009831  0.11573010  1
  O  O383  1  0.36684954  0.86774788  0.61292995  1
  O  O384  1  0.88468995  0.36277502  0.13275110  1
  O  O385  1  0.85828193  0.35725911  0.63226020  1
  O  O386  1  0.89401476  0.85635726  0.12265202  1
  O  O387  1  0.88153088  0.87848629  0.62224091  1
  O  O388  1  0.13963702  0.11180465  0.38866759  1
  O  O389  1  0.13046974  0.10927390  0.88514336  1
  O  O390  1  0.13407913  0.63574405  0.37557135  1
  O  O391  1  0.14285677  0.63362922  0.87351552  1
  O  O392  1  0.63325218  0.12934152  0.38508192  1
  O  O393  1  0.62870221  0.10143665  0.86877049  1
  O  O394  1  0.63357107  0.64021282  0.35931095  1
  O  O395  1  0.62409320  0.60283952  0.89667423  1
