# generated using pymatgen
data_V35Zn35O128
_symmetry_space_group_name_H-M   'P 1'
_cell_length_a   16.95415250
_cell_length_b   16.88866496
_cell_length_c   16.92084724
_cell_angle_alpha   89.40551255
_cell_angle_beta   90.10534203
_cell_angle_gamma   90.15570060
_symmetry_Int_Tables_number   1
_chemical_formula_structural   V35Zn35O128
_chemical_formula_sum   'V70 Zn70 O256'
_cell_volume   4844.71035003
_cell_formula_units_Z   2
loop_
 _symmetry_equiv_pos_site_id
 _symmetry_equiv_pos_as_xyz
  1  'x, y, z'
loop_
 _atom_site_type_symbol
 _atom_site_label
 _atom_site_symmetry_multiplicity
 _atom_site_fract_x
 _atom_site_fract_y
 _atom_site_fract_z
 _atom_site_occupancy
  V  V0  1  0.00140383  0.50368743  0.50633026  1
  V  V1  1  0.13252924  0.25023070  0.36677187  1
  V  V2  1  0.87684416  0.73739174  0.63370945  1
  V  V3  1  0.38374002  0.25083126  0.62037963  1
  V  V4  1  0.63309915  0.37301871  0.23544694  1
  V  V5  1  -0.00047082  -0.01625867  0.00192401  1
  V  V6  1  0.25015047  0.00243385  0.27114060  1
  V  V7  1  0.87727005  0.74140165  0.10403391  1
  V  V8  1  0.86262611  -0.00698902  0.88349656  1
  V  V9  1  0.25930006  0.87507819  0.63292801  1
  V  V10  1  0.75170570  0.26164002  0.50454643  1
  V  V11  1  0.12226453  -0.00499484  0.63129738  1
  V  V12  1  0.48124963  0.13332096  0.11147604  1
  V  V13  1  -0.01624448  0.72851155  0.26405374  1
  V  V14  1  0.74992331  0.85784042  0.14210017  1
  V  V15  1  0.12496108  0.12866024  0.50816798  1
  V  V16  1  0.49806950  0.25039821  0.24853288  1
  V  V17  1  0.27738057  0.32591920  0.10183655  1
  V  V18  1  0.73514641  0.37680866  0.64328461  1
  V  V19  1  0.88012457  0.25407074  0.63044404  1
  V  V20  1  0.86649151  0.50379214  0.37511188  1
  V  V21  1  0.51220546  0.27147943  0.74019822  1
  V  V22  1  0.00737679  0.61380492  0.11611678  1
  V  V23  1  0.75300568  0.50369731  0.24065272  1
  V  V24  1  0.24456441  0.74318865  -0.00961941  1
  V  V25  1  0.50640292  0.65786058  0.62078595  1
  V  V26  1  0.39654182  0.00296006  0.38774262  1
  V  V27  1  0.25327670  0.24888214  0.49841719  1
  V  V28  1  0.74054260  -0.00539016  0.72952416  1
  V  V29  1  0.24039298  0.47350628  0.20875562  1
  V  V30  1  0.74512936  0.71611216  0.48659474  1
  V  V31  1  0.00688741  0.62228066  0.63318394  1
  V  V32  1  0.13741384  0.00171933  0.12881851  1
  V  V33  1  0.00925410  0.35849378  0.86618317  1
  V  V34  1  0.62210303  0.74644844  0.88201028  1
  V  V35  1  -0.02048684  0.24532775  0.25135288  1
  V  V36  1  0.87614767  0.12170140  0.74767380  1
  V  V37  1  0.50831446  0.51588875  0.51371705  1
  V  V38  1  0.61884158  0.03024777  0.13211954  1
  V  V39  1  0.25616351  0.50134778  0.74981314  1
  V  V40  1  -0.01081861  0.36728568  0.38518608  1
  V  V41  1  0.73912328  0.53156465  0.74256294  1
  V  V42  1  0.14190374  0.85380426  0.25421454  1
  V  V43  1  0.75871699  0.11282785  0.37346465  1
  V  V44  1  0.38843970  0.49808257  0.87558958  1
  V  V45  1  0.87964455  0.86842167  0.50211585  1
  V  V46  1  0.50038011  0.75365514  0.25401860  1
  V  V47  1  0.24653191  0.00911598  0.75816476  1
  V  V48  1  0.25072614  0.75329498  0.50149915  1
  V  V49  1  0.51499646  0.38340767  0.89087506  1
  V  V50  1  0.50067993  0.90514245  0.89484498  1
  V  V51  1  0.62749826  0.25029448  0.37698788  1
  V  V52  1  -0.01724321  0.11461855  0.13801272  1
  V  V53  1  -0.00943620  0.90860717  0.34566153  1
  V  V54  1  0.00695541  0.86450405  0.85047776  1
  V  V55  1  0.49573332  0.38661229  0.37605567  1
  V  V56  1  0.36724847  0.01373364  0.89847748  1
  V  V57  1  -0.00601606  0.00552601  0.51058681  1
  V  V58  1  0.62994603  0.23453720  0.87987426  1
  V  V59  1  0.24951659  0.57596212  0.35378973  1
  V  V60  1  0.36542241  0.13762497  0.26232323  1
  V  V61  1  0.76033367  0.23426521  0.01058826  1
  V  V62  1  0.87749409  0.49971550  0.87364999  1
  V  V63  1  0.39247134  0.11301940  0.74442201  1
  V  V64  1  0.24169531  0.38050281  0.62808659  1
  V  V65  1  0.50804704  0.62833370  0.11807703  1
  V  V66  1  0.38546568  0.64233605  0.74519747  1
  V  V67  1  0.61584767  0.12094094  0.51835787  1
  V  V68  1  0.11352738  0.14707312  -0.00971896  1
  V  V69  1  0.75282494  0.63036204  0.90379590  1
  Zn  Zn70  1  0.86545601  0.37326917  0.00720047  1
  Zn  Zn71  1  0.12147046  0.71747702  0.40105299  1
  Zn  Zn72  1  0.37127316  0.38748372  0.49449263  1
  Zn  Zn73  1  0.74673871  0.87107345  0.61569127  1
  Zn  Zn74  1  0.37802104  0.88254288  0.50730208  1
  Zn  Zn75  1  0.03050418  0.22513721  0.74806728  1
  Zn  Zn76  1  0.18057531  0.18403801  0.18446460  1
  Zn  Zn77  1  0.19534488  0.18746480  0.68654273  1
  Zn  Zn78  1  0.19988408  0.66179806  0.18110768  1
  Zn  Zn79  1  0.20907801  0.66293876  0.65290437  1
  Zn  Zn80  1  0.69698656  0.17435629  0.18203483  1
  Zn  Zn81  1  0.69401509  0.18352740  0.69649262  1
  Zn  Zn82  1  0.69176176  0.67552936  0.17772486  1
  Zn  Zn83  1  0.67654703  0.72357484  0.68237513  1
  Zn  Zn84  1  0.30914994  0.33748361  0.30134792  1
  Zn  Zn85  1  0.33556304  0.32009706  0.79775363  1
  Zn  Zn86  1  0.32683221  0.81115492  0.33267053  1
  Zn  Zn87  1  0.38037299  0.86129217  0.75935678  1
  Zn  Zn88  1  0.80895855  0.30963052  0.31161560  1
  Zn  Zn89  1  0.80866887  0.31143250  0.82098428  1
  Zn  Zn90  1  0.80986934  0.82029547  0.31595985  1
  Zn  Zn91  1  0.81415181  0.81297279  0.81856345  1
  Zn  Zn92  1  0.17389206  0.42422714  0.44486955  1
  Zn  Zn93  1  0.21393944  0.38736070  0.91350022  1
  Zn  Zn94  1  0.17574317  0.92783225  0.44326212  1
  Zn  Zn95  1  0.18343234  0.93365520  0.93565715  1
  Zn  Zn96  1  0.68162703  0.44011908  0.43792771  1
  Zn  Zn97  1  0.69275464  0.43018172  0.93815362  1
  Zn  Zn98  1  0.67654413  0.93902158  0.43862682  1
  Zn  Zn99  1  0.68427475  0.91796903  0.97064415  1
  Zn  Zn100  1  0.29726857  0.11207571  0.06730842  1
  Zn  Zn101  1  0.31161437  0.06618834  0.56651402  1
  Zn  Zn102  1  0.36322296  0.54214850  0.07978845  1
  Zn  Zn103  1  0.32829492  0.56788602  0.55751477  1
  Zn  Zn104  1  0.79879854  0.04406879  0.06218357  1
  Zn  Zn105  1  0.80717899  0.07228951  0.55752809  1
  Zn  Zn106  1  0.82487008  0.55705048  0.06485533  1
  Zn  Zn107  1  0.82183319  0.54817707  0.56224921  1
  Zn  Zn108  1  0.42983768  0.42491321  0.18365796  1
  Zn  Zn109  1  0.43792310  0.44588020  0.68032918  1
  Zn  Zn110  1  0.46942995  0.96178159  0.21281527  1
  Zn  Zn111  1  0.59102952  0.87662397  0.73238275  1
  Zn  Zn112  1  0.93416835  0.42911323  0.19018168  1
  Zn  Zn113  1  0.91779564  0.44053372  0.69510794  1
  Zn  Zn114  1  0.94914834  0.91610072  0.17554212  1
  Zn  Zn115  1  0.92974609  0.93554831  0.68854007  1
  Zn  Zn116  1  0.06882948  0.06900105  0.31803733  1
  Zn  Zn117  1  0.05689951  0.05629043  0.81600702  1
  Zn  Zn118  1  0.07072962  0.54543938  0.30398606  1
  Zn  Zn119  1  0.04813161  0.50990048  0.78139206  1
  Zn  Zn120  1  0.57078268  0.06891502  0.31395377  1
  Zn  Zn121  1  0.56854331  0.04654428  0.81995183  1
  Zn  Zn122  1  0.54754701  0.54802143  0.27105939  1
  Zn  Zn123  1  0.56597991  0.57247904  0.80839782  1
  Zn  Zn124  1  0.44078381  0.18879216  0.43741184  1
  Zn  Zn125  1  0.42503216  0.20319064  0.91768829  1
  Zn  Zn126  1  0.41722904  0.68429897  0.43257610  1
  Zn  Zn127  1  0.43906375  0.68765815  0.93193567  1
  Zn  Zn128  1  0.93493321  0.18473291  0.44485313  1
  Zn  Zn129  1  0.93668454  0.17676327  0.93305313  1
  Zn  Zn130  1  0.93153335  0.67970904  0.43742183  1
  Zn  Zn131  1  0.94386384  0.68094590  0.93039408  1
  Zn  Zn132  1  0.00712116  0.30529649  0.05844177  1
  Zn  Zn133  1  0.06282351  0.31233409  0.56888007  1
  Zn  Zn134  1  0.06337830  0.80722710  0.08138134  1
  Zn  Zn135  1  0.06107879  0.81211815  0.57171240  1
  Zn  Zn136  1  0.56916933  0.30200690  0.05920602  1
  Zn  Zn137  1  0.56540396  0.31703530  0.55680099  1
  Zn  Zn138  1  0.56489034  0.81094218  0.06264724  1
  Zn  Zn139  1  0.58346669  0.80864888  0.53890564  1
  O  O140  1  0.11273483  0.10943756  0.12313453  1
  O  O141  1  0.13094727  0.11631284  0.61512160  1
  O  O142  1  0.10834216  0.61911684  0.13103708  1
  O  O143  1  0.10593052  0.62544747  0.62461767  1
  O  O144  1  0.59329066  0.13636369  0.12372354  1
  O  O145  1  0.62910030  0.13542122  0.61697969  1
  O  O146  1  0.60908662  0.61839190  0.12993990  1
  O  O147  1  0.60543694  0.64568174  0.63066921  1
  O  O148  1  0.39496025  0.36187711  0.37993589  1
  O  O149  1  0.40415099  0.38791999  0.86251519  1
  O  O150  1  0.37798886  0.89950591  0.38697385  1
  O  O151  1  0.37689593  0.91020137  0.88086895  1
  O  O152  1  0.88677458  0.36789884  0.37613216  1
  O  O153  1  0.87952227  0.39007521  0.86169035  1
  O  O154  1  0.90018945  0.87117022  0.38660016  1
  O  O155  1  0.89054155  0.88975419  0.86707492  1
  O  O156  1  0.24220318  0.00051572  0.37154522  1
  O  O157  1  0.25067670  0.00180263  0.86387596  1
  O  O158  1  0.24792500  0.47620681  0.37658708  1
  O  O159  1  0.27457058  0.47796568  0.85662175  1
  O  O160  1  0.73783076  0.01327214  0.37715621  1
  O  O161  1  0.76464264  -0.01960131  0.89343180  1
  O  O162  1  0.76328810  0.48651586  0.37195865  1
  O  O163  1  0.74612532  0.52344701  0.86153673  1
  O  O164  1  0.25792549  0.50681554  0.11508320  1
  O  O165  1  0.26479020  0.48627232  0.62886916  1
  O  O166  1  0.23781248  1.00904453  0.13523531  1
  O  O167  1  0.23906967  0.99693998  0.63076969  1
  O  O168  1  0.76441576  0.49459900  0.14189833  1
  O  O169  1  0.75933105  0.48688469  0.63756013  1
  O  O170  1  0.71745174  1.05517481  0.14730796  1
  O  O171  1  0.75425990  0.99329012  0.62739665  1
  O  O172  1  -0.00313875  0.35023981  0.26160971  1
  O  O173  1  0.00176201  0.40308574  0.76455576  1
  O  O174  1  0.01626027  0.83964800  0.25513666  1
  O  O175  1  0.00436192  0.87672210  0.75011603  1
  O  O176  1  0.50809993  0.36882482  0.25713317  1
  O  O177  1  0.50935439  0.37118023  0.74223134  1
  O  O178  1  0.47899406  0.85266541  0.23998943  1
  O  O179  1  0.49042516  0.88113566  0.78587039  1
  O  O180  1  0.48604593  0.13700775  0.25188005  1
  O  O181  1  0.49208838  0.11017676  0.74512892  1
  O  O182  1  0.49718373  0.64050054  0.24013904  1
  O  O183  1  0.49626198  0.63622222  0.73578622  1
  O  O184  1  0.99883713  0.12660085  0.24685411  1
  O  O185  1  0.98189924  0.11716483  0.74809715  1
  O  O186  1  1.00860411  0.62902979  0.24773506  1
  O  O187  1  0.99668255  0.60307619  0.73118163  1
  O  O188  1  0.32716995  0.26125638  -0.04899329  1
  O  O189  1  0.36879982  0.24963682  0.50532831  1
  O  O190  1  0.34702571  0.74256537  -0.01378035  1
  O  O191  1  0.35816426  0.76598171  0.49715519  1
  O  O192  1  0.86653871  0.24286597  -0.00741250  1
  O  O193  1  0.86598117  0.24165391  0.52241223  1
  O  O194  1  0.88044236  0.75097691  0.00655387  1
  O  O195  1  0.88240522  0.76113551  0.50296725  1
  O  O196  1  0.13244215  0.24599635  0.49993155  1
  O  O197  1  0.09611597  0.24398862  1.01316659  1
  O  O198  1  0.13851190  0.76415987  0.50476120  1
  O  O199  1  0.13930732  0.75579761  1.01280670  1
  O  O200  1  0.63271677  0.24776668  0.49306880  1
  O  O201  1  0.63704360  0.24691780  0.98582407  1
  O  O202  1  0.64655088  0.72039829  0.49508220  1
  O  O203  1  0.64733010  0.79874672  0.97028453  1
  O  O204  1  0.49913320  0.24957529  0.14264670  1
  O  O205  1  0.49799798  0.25782586  0.63259569  1
  O  O206  1  0.50701220  0.74228357  0.13880546  1
  O  O207  1  0.49644322  0.75608046  0.60283285  1
  O  O208  1  0.99980948  0.22538161  0.14419746  1
  O  O209  1  0.98364490  0.25765274  0.63562401  1
  O  O210  1  0.99105314  0.73725730  0.14047112  1
  O  O211  1  0.98971840  0.73529790  0.62309363  1
  O  O212  1  0.00219832  0.24842628  0.37073769  1
  O  O213  1  -0.01291976  0.25714567  0.85393198  1
  O  O214  1  0.01141926  0.73191889  0.36795506  1
  O  O215  1  -0.01092136  0.76642628  0.87146903  1
  O  O216  1  0.51018087  0.25687696  0.36727065  1
  O  O217  1  0.50520996  0.26591572  0.86014043  1
  O  O218  1  0.41978493  0.74057222  0.32860108  1
  O  O219  1  0.52009251  0.75356067  0.88313298  1
  O  O220  1  0.24336991  0.14240716  0.50507149  1
  O  O221  1  0.21202027  0.12758207  0.99491964  1
  O  O222  1  0.25204965  0.65349690  0.53896496  1
  O  O223  1  0.23175408  0.64170966  0.97595795  1
  O  O224  1  0.73885231  0.14075744  0.49363323  1
  O  O225  1  0.75473594  0.13285609  0.99728211  1
  O  O226  1  0.76744051  0.61801669  0.48943776  1
  O  O227  1  0.74647832  0.62291162  1.00225352  1
  O  O228  1  0.23116407  0.36986812  0.02354151  1
  O  O229  1  0.25357143  0.36642850  0.51094858  1
  O  O230  1  0.24217210  0.85046595  -0.00600286  1
  O  O231  1  0.24990138  0.87555983  0.51661270  1
  O  O232  1  0.75742400  0.34586826  -0.02453552  1
  O  O233  1  0.74471160  0.36642007  0.51037303  1
  O  O234  1  0.76449325  0.92514255  0.06100235  1
  O  O235  1  0.77809229  0.88658612  0.49407384  1
  O  O236  1  0.14377770  0.48304234  0.24241896  1
  O  O237  1  0.15738916  0.50930343  0.75676348  1
  O  O238  1  0.13473883  1.00327290  0.24517265  1
  O  O239  1  0.13536025  1.01238214  0.74132519  1
  O  O240  1  0.63793781  0.48141814  0.25447902  1
  O  O241  1  0.64155529  0.50820174  0.75014128  1
  O  O242  1  0.58700743  0.99419251  0.22884794  1
  O  O243  1  0.63697606  0.99258936  0.74353640  1
  O  O244  1  0.37035012  0.01041197  0.26943487  1
  O  O245  1  0.36512100  0.01075306  0.74944637  1
  O  O246  1  0.33510565  0.44519442  0.25242426  1
  O  O247  1  0.37712996  0.50805293  0.75337521  1
  O  O248  1  0.95227667  -0.02957442  0.27652687  1
  O  O249  1  0.86566076  0.00602089  0.75620143  1
  O  O250  1  0.86176270  0.48157283  0.26424879  1
  O  O251  1  0.85140846  0.50679905  0.76291816  1
  O  O252  1  0.10676503  0.35413949  0.37886471  1
  O  O253  1  0.10883725  0.37548558  0.87554466  1
  O  O254  1  0.10690175  0.88169004  0.35732895  1
  O  O255  1  0.10510854  0.88078182  0.87376063  1
  O  O256  1  0.61504332  0.36521922  0.36954744  1
  O  O257  1  0.61574925  0.36221869  0.87164448  1
  O  O258  1  0.58989297  0.87024489  0.44492720  1
  O  O259  1  0.60107844  0.92730594  0.88533356  1
  O  O260  1  0.37846105  0.12754062  0.15046678  1
  O  O261  1  0.37280663  0.13937167  0.63466151  1
  O  O262  1  0.38484742  0.64092465  0.12917490  1
  O  O263  1  0.39328885  0.62776429  0.63666617  1
  O  O264  1  0.88619114  0.10040341  0.12937081  1
  O  O265  1  0.86736120  0.13393531  0.63828373  1
  O  O266  1  0.88352406  0.63634233  0.12472602  1
  O  O267  1  0.88400949  0.63332181  0.61762121  1
  O  O268  1  0.26012976  0.22268995  0.11229885  1
  O  O269  1  0.26263079  0.26117709  0.61751086  1
  O  O270  1  0.24865270  0.72503260  0.09639146  1
  O  O271  1  0.24010530  0.77404822  0.63148499  1
  O  O272  1  0.74747967  0.24556817  0.11002677  1
  O  O273  1  0.75306008  0.25967816  0.62412698  1
  O  O274  1  0.76894900  0.74679904  0.13253779  1
  O  O275  1  0.76941333  0.74581257  0.59898054  1
  O  O276  1  0.23778442  0.26874294  0.38047318  1
  O  O277  1  0.27497807  0.27905395  0.89079648  1
  O  O278  1  0.24116252  0.75764987  0.39584992  1
  O  O279  1  0.22876871  0.74936177  0.88937883  1
  O  O280  1  0.74217562  0.25393163  0.38853490  1
  O  O281  1  0.72973527  0.23728742  0.85986162  1
  O  O282  1  0.76397783  0.75342118  0.39279287  1
  O  O283  1  0.75653547  0.73252651  0.87839470  1
  O  O284  1  0.00204130  0.11084833  0.01848329  1
  O  O285  1  0.00783767  0.11366291  0.50500601  1
  O  O286  1  0.00091941  0.62898898  0.01488962  1
  O  O287  1  -0.00199928  0.60861015  0.50270036  1
  O  O288  1  0.46441137  0.16015728  0.01636525  1
  O  O289  1  0.51576467  0.13509954  0.50227193  1
  O  O290  1  0.49495119  0.63907921  0.01781402  1
  O  O291  1  0.48994958  0.62531009  0.50873318  1
  O  O292  1  0.50530369  0.38754326  0.48544372  1
  O  O293  1  0.50628720  0.37070152  0.98926225  1
  O  O294  1  0.50390590  0.93272621  0.55151294  1
  O  O295  1  0.49298027  0.86510841  0.98816573  1
  O  O296  1  0.99747902  0.37165816  0.48967202  1
  O  O297  1  0.98433350  0.37229676  0.96625845  1
  O  O298  1  0.99452861  0.88956153  0.50653711  1
  O  O299  1  1.00111894  0.88409523  1.01671174  1
  O  O300  1  0.49854659  0.48650389  0.35903025  1
  O  O301  1  0.50416949  0.49186283  0.86902314  1
  O  O302  1  0.49506417  1.00799237  0.37909064  1
  O  O303  1  0.47872017  1.01368090  0.89630054  1
  O  O304  1  0.99414476  0.48003429  0.37422353  1
  O  O305  1  0.97721350  0.51652999  0.87530226  1
  O  O306  1  1.01700659  0.99926968  0.40155147  1
  O  O307  1  0.99898013  0.98536036  0.89158013  1
  O  O308  1  0.00745463  0.00113904  0.12143644  1
  O  O309  1  0.01320590  -0.00173503  0.62193621  1
  O  O310  1  -0.01604577  0.51654153  0.13534400  1
  O  O311  1  -0.01799721  0.50413114  0.61165646  1
  O  O312  1  0.48857615  0.02980444  0.11649512  1
  O  O313  1  0.51329691  -0.02628750  0.61124237  1
  O  O314  1  0.47143812  0.52209226  0.13761873  1
  O  O315  1  0.51368401  0.50503789  0.61432838  1
  O  O316  1  0.22987011  0.35986609  0.19126025  1
  O  O317  1  0.26250791  0.38218656  0.73427805  1
  O  O318  1  0.24383887  0.88114356  0.26527849  1
  O  O319  1  0.26125981  0.89758500  0.74148397  1
  O  O320  1  0.73616243  0.37183948  0.24909215  1
  O  O321  1  0.74083263  0.37089212  0.74339017  1
  O  O322  1  0.76493920  0.88902419  0.23828782  1
  O  O323  1  0.76199913  0.89350444  0.74850355  1
  O  O324  1  0.26101231  0.12018197  0.25333282  1
  O  O325  1  0.26214646  0.11245142  0.74217617  1
  O  O326  1  0.26107073  0.58872743  0.24880925  1
  O  O327  1  0.27230079  0.61090022  0.73552188  1
  O  O328  1  0.74841282  0.14273911  0.27731957  1
  O  O329  1  0.75790631  0.10187618  0.75120889  1
  O  O330  1  0.74102513  0.60240600  0.25352405  1
  O  O331  1  0.74006575  0.63065195  0.73070944  1
  O  O332  1  0.37650706  0.11884021  0.36886868  1
  O  O333  1  0.37432880  0.12021698  0.85395606  1
  O  O334  1  0.32680182  0.61506437  0.40346907  1
  O  O335  1  0.39509894  0.61113245  0.85527480  1
  O  O336  1  0.85843233  0.12136243  0.39210257  1
  O  O337  1  0.87793585  0.10338505  0.86293251  1
  O  O338  1  0.88043419  0.60193864  0.36933186  1
  O  O339  1  0.85910491  0.61687849  0.88410910  1
  O  O340  1  0.10376100  0.45141101  0.06353125  1
  O  O341  1  0.14267131  0.37613399  0.62264252  1
  O  O342  1  0.12247512  0.88647242  0.14960126  1
  O  O343  1  0.13118620  0.89196744  0.62951533  1
  O  O344  1  0.61897396  0.36957148  0.13774156  1
  O  O345  1  0.63722772  0.37444366  0.62437323  1
  O  O346  1  0.64998204  0.84216915  0.13582395  1
  O  O347  1  0.64017415  0.83435836  0.63732584  1
  O  O348  1  0.12178960  0.23766215  0.26631802  1
  O  O349  1  0.13407113  0.25718750  0.74175388  1
  O  O350  1  0.15021791  0.75358193  0.24670941  1
  O  O351  1  0.13060240  0.73201489  0.75549392  1
  O  O352  1  0.61787531  0.25789912  0.25764917  1
  O  O353  1  0.61038806  0.24197579  0.75494754  1
  O  O354  1  0.61556201  0.75797387  0.25830238  1
  O  O355  1  0.64307645  0.78152698  0.78603120  1
  O  O356  1  0.37725291  0.24306475  0.26456701  1
  O  O357  1  0.39799970  0.24046427  0.74216419  1
  O  O358  1  0.34797931  0.85663809  0.14724839  1
  O  O359  1  0.37175105  0.74044339  0.75651652  1
  O  O360  1  0.88162893  0.24021062  0.25604959  1
  O  O361  1  0.86209578  0.23138683  0.74494313  1
  O  O362  1  0.88566295  0.73889860  0.26806414  1
  O  O363  1  0.86407063  0.75143244  0.73042622  1
  O  O364  1  0.39922696  0.49846885  0.50209131  1
  O  O365  1  0.37617908  0.50637231  0.97377054  1
  O  O366  1  0.37324931  1.01042024  0.49048202  1
  O  O367  1  0.34797468  1.03072327  0.99341910  1
  O  O368  1  0.88772585  0.48958953  0.48276015  1
  O  O369  1  0.85288046  0.48910843  0.97837306  1
  O  O370  1  0.89102250  0.99669225  0.51422834  1
  O  O371  1  0.89010270  1.00295403  0.99076368  1
  O  O372  1  0.11661421  -0.00648197  0.01653373  1
  O  O373  1  0.12064605  0.00669166  0.51535938  1
  O  O374  1  0.10191804  0.49137615  0.00314901  1
  O  O375  1  0.10040244  0.48895878  0.49965260  1
  O  O376  1  0.61572225  -0.02293565  0.04821296  1
  O  O377  1  0.63376040  0.02283102  0.50716373  1
  O  O378  1  0.62632054  0.49921897  -0.00592486  1
  O  O379  1  0.60408934  0.50952002  0.48036301  1
  O  O380  1  0.37387202  0.35530736  0.10941416  1
  O  O381  1  0.37529163  0.36227980  0.62022141  1
  O  O382  1  0.38703544  0.89972005  0.10254799  1
  O  O383  1  0.36139434  0.88198205  0.62750912  1
  O  O384  1  0.91726908  0.35739027  0.10793976  1
  O  O385  1  0.86039236  0.35794640  0.63769255  1
  O  O386  1  0.87537315  0.84469652  0.13697619  1
  O  O387  1  0.87788429  0.86193119  0.61382823  1
  O  O388  1  0.12218085  0.14095858  0.39323068  1
  O  O389  1  0.09187278  0.13314040  0.89146243  1
  O  O390  1  0.15056953  0.61004264  0.37032366  1
  O  O391  1  0.10494458  0.68370308  0.80401202  1
  O  O392  1  0.63083546  0.13889545  0.38242372  1
  O  O393  1  0.60602087  0.13719086  0.87618052  1
  O  O394  1  0.58263172  0.74223797  0.33107854  1
  O  O395  1  0.63553692  0.63962577  0.87946536  1
