# generated using pymatgen
data_V35Zn35O128
_symmetry_space_group_name_H-M   'P 1'
_cell_length_a   16.94567000
_cell_length_b   16.94212557
_cell_length_c   16.88845486
_cell_angle_alpha   89.92903696
_cell_angle_beta   89.73206043
_cell_angle_gamma   89.88132696
_symmetry_Int_Tables_number   1
_chemical_formula_structural   V35Zn35O128
_chemical_formula_sum   'V70 Zn70 O256'
_cell_volume   4848.53516932
_cell_formula_units_Z   2
loop_
 _symmetry_equiv_pos_site_id
 _symmetry_equiv_pos_as_xyz
  1  'x, y, z'
loop_
 _atom_site_type_symbol
 _atom_site_label
 _atom_site_symmetry_multiplicity
 _atom_site_fract_x
 _atom_site_fract_y
 _atom_site_fract_z
 _atom_site_occupancy
  V  V0  1  0.26371826  0.00429403  0.76625970  1
  V  V1  1  0.36456954  0.62561308  0.76183652  1
  V  V2  1  0.13037971  0.26877279  0.36614798  1
  V  V3  1  0.48700275  0.62226095  0.62267468  1
  V  V4  1  0.63365335  -0.00433692  0.10598942  1
  V  V5  1  0.74899366  0.12418541  0.35442533  1
  V  V6  1  0.00925378  0.76056987  0.74152870  1
  V  V7  1  0.00148544  0.24233682  0.75984023  1
  V  V8  1  0.87945833  0.25940973  0.11791579  1
  V  V9  1  0.76101822  0.37884869  0.63059323  1
  V  V10  1  -0.01263550  0.48353603  0.49304533  1
  V  V11  1  0.39152085  0.61999223  0.24728874  1
  V  V12  1  0.12644253  0.77588674  0.37273863  1
  V  V13  1  0.86350889  -0.00159164  0.87993873  1
  V  V14  1  0.86618870  0.62515223  0.75100238  1
  V  V15  1  0.24264493  0.61692035  0.36694604  1
  V  V16  1  -0.00146825  0.75877440  0.26102335  1
  V  V17  1  0.86761736  0.76973516  0.62046399  1
  V  V18  1  0.60826649  0.38292629  0.77852948  1
  V  V19  1  0.34532693  0.50065097  0.88080271  1
  V  V20  1  0.76177311  0.61094745  0.37861825  1
  V  V21  1  0.75318244  0.24878050  -0.01733298  1
  V  V22  1  0.12272776  0.12108464  -0.00451370  1
  V  V23  1  0.48493451  0.24008339  0.74979477  1
  V  V24  1  -0.00476662  0.62346644  0.61108545  1
  V  V25  1  0.36961956  0.87527778  0.00806442  1
  V  V26  1  0.86006538  0.11605786  0.74562072  1
  V  V27  1  0.23163417  0.38949309  0.13952635  1
  V  V28  1  0.13265339  -0.00565508  0.12678413  1
  V  V29  1  0.00082106  0.26332769  0.25400425  1
  V  V30  1  -0.00238234  0.11546719  0.13610856  1
  V  V31  1  0.13158931  0.37962884  0.74203985  1
  V  V32  1  0.26504172  0.75519219  0.49701282  1
  V  V33  1  -0.00087996  -0.01833919  0.49809380  1
  V  V34  1  0.50644286  0.11759029  0.11739170  1
  V  V35  1  0.61583950  0.49086734  0.62149230  1
  V  V36  1  0.13145539  0.25798166  0.87199525  1
  V  V37  1  0.24702424  0.73288239  -0.00217658  1
  V  V38  1  0.74619139  0.76434122  0.50386903  1
  V  V39  1  0.71709825  0.74792478  0.01073093  1
  V  V40  1  0.63767300  0.88334761  0.72971919  1
  V  V41  1  0.63189171  0.89165422  0.25370566  1
  V  V42  1  0.36898022  0.00419613  0.37611470  1
  V  V43  1  0.50770660  0.87366909  0.88931180  1
  V  V44  1  0.25513523  -0.01790104  0.23853533  1
  V  V45  1  0.24795388  0.25315513  0.50685338  1
  V  V46  1  0.50174820  0.36662662  0.38611984  1
  V  V47  1  0.36476431  0.37898869  0.51288805  1
  V  V48  1  0.62231030  0.62367707  0.50458976  1
  V  V49  1  0.63509143  0.73505584  0.85918366  1
  V  V50  1  0.61240747  0.22269585  0.88221094  1
  V  V51  1  0.50736088  0.01176581  0.49933679  1
  V  V52  1  0.38376008  0.38119315  0.00779125  1
  V  V53  1  0.49187356  0.75643514  0.74161112  1
  V  V54  1  0.49172967  0.86855735  0.37591996  1
  V  V55  1  0.90038837  0.75301107  0.12304602  1
  V  V56  1  0.36698314  0.13302335  0.24280904  1
  V  V57  1  0.39088655  0.74347598  0.12788372  1
  V  V58  1  0.62828605  0.38047012  0.24015135  1
  V  V59  1  0.87380629  -0.01516711  0.36589953  1
  V  V60  1  0.62111848  0.74642414  0.36570649  1
  V  V61  1  0.00245297  0.48154491  -0.00355462  1
  V  V62  1  0.37606928  0.49443788  0.37199302  1
  V  V63  1  0.01170356  0.12668853  0.62763601  1
  V  V64  1  0.13732538  -0.00946292  0.62487703  1
  V  V65  1  0.51266598  0.24416761  0.25105345  1
  V  V66  1  0.00275322  0.88398872  0.88802232  1
  V  V67  1  0.26951403  0.86553380  0.62526160  1
  V  V68  1  0.13278413  0.12067604  0.48531045  1
  V  V69  1  0.24695114  0.25779300  0.01194513  1
  Zn  Zn70  1  0.45386121  0.04051900  -0.05295522  1
  Zn  Zn71  1  0.12711448  0.62302313  0.49854041  1
  Zn  Zn72  1  0.13395121  0.49100775  0.61862097  1
  Zn  Zn73  1  0.72496335  0.51591332  0.77844662  1
  Zn  Zn74  1  0.86521915  0.47374951  0.89537105  1
  Zn  Zn75  1  0.13618898  0.86710197  0.75885380  1
  Zn  Zn76  1  0.18439519  0.18606688  0.18497932  1
  Zn  Zn77  1  0.23186634  0.16238842  0.67042164  1
  Zn  Zn78  1  0.20564284  0.71350087  0.19499878  1
  Zn  Zn79  1  0.19417747  0.66423428  0.67204393  1
  Zn  Zn80  1  0.71407213  0.15676208  0.15233160  1
  Zn  Zn81  1  0.68001706  0.20642558  0.67768184  1
  Zn  Zn82  1  0.72106792  0.66963092  0.18277779  1
  Zn  Zn83  1  0.68330888  0.68879468  0.68356707  1
  Zn  Zn84  1  0.31190369  0.31070704  0.31359810  1
  Zn  Zn85  1  0.30764201  0.32101982  0.81652142  1
  Zn  Zn86  1  0.31758264  0.80785581  0.30725539  1
  Zn  Zn87  1  0.31457899  0.81776540  0.82224498  1
  Zn  Zn88  1  0.78821592  0.27549419  0.27533124  1
  Zn  Zn89  1  0.79316280  0.30559826  0.79132533  1
  Zn  Zn90  1  0.80918186  0.80891777  0.31704550  1
  Zn  Zn91  1  0.81611626  0.82133664  0.80674135  1
  Zn  Zn92  1  0.18057199  0.44308672  0.43906596  1
  Zn  Zn93  1  0.17440956  0.43932383  0.94399960  1
  Zn  Zn94  1  0.20182948  0.94113699  0.44017089  1
  Zn  Zn95  1  0.18575131  0.92692461  0.94359159  1
  Zn  Zn96  1  0.69073178  0.42665485  0.44617912  1
  Zn  Zn97  1  0.70017616  0.43280675  0.95380635  1
  Zn  Zn98  1  0.68480430  0.94622020  0.43277859  1
  Zn  Zn99  1  0.69172742  0.92058011  0.93170654  1
  Zn  Zn100  1  0.31996924  0.07531914  0.04712276  1
  Zn  Zn101  1  0.35439762  0.04651174  0.58691511  1
  Zn  Zn102  1  0.30918918  0.56063341  0.06925135  1
  Zn  Zn103  1  0.30711783  0.56199449  0.55947702  1
  Zn  Zn104  1  0.81449245  0.06336946  0.05664663  1
  Zn  Zn105  1  0.84489936  0.08984128  0.53012713  1
  Zn  Zn106  1  0.85273866  0.60614501  0.04602244  1
  Zn  Zn107  1  0.80900410  0.56094630  0.56813292  1
  Zn  Zn108  1  0.43808967  0.43367444  0.18751475  1
  Zn  Zn109  1  0.43357241  0.43839961  0.69724901  1
  Zn  Zn110  1  0.44583619  0.93475989  0.18855739  1
  Zn  Zn111  1  0.44302373  0.93977877  0.68875326  1
  Zn  Zn112  1  0.96606517  0.43619679  0.16662657  1
  Zn  Zn113  1  0.91806953  0.41349506  0.73591810  1
  Zn  Zn114  1  0.94068909  0.92646870  0.18785519  1
  Zn  Zn115  1  0.93807593  0.94518989  0.68283869  1
  Zn  Zn116  1  0.06166273  0.04946831  0.30897711  1
  Zn  Zn117  1  0.07538740  0.05370991  0.81247421  1
  Zn  Zn118  1  0.02984575  0.58160434  0.33311232  1
  Zn  Zn119  1  0.02974820  0.55065369  0.79982464  1
  Zn  Zn120  1  0.56342849  0.06786563  0.32321514  1
  Zn  Zn121  1  0.56537142  0.05705121  0.80084094  1
  Zn  Zn122  1  0.56535293  0.55453417  0.31933218  1
  Zn  Zn123  1  0.54621384  0.56660467  0.81190253  1
  Zn  Zn124  1  0.42584268  0.18815325  0.43529961  1
  Zn  Zn125  1  0.40105569  0.20061638  0.90391339  1
  Zn  Zn126  1  0.43779707  0.68122719  0.43291791  1
  Zn  Zn127  1  0.43728027  0.69329590  0.93351211  1
  Zn  Zn128  1  0.95015735  0.17233866  0.41839502  1
  Zn  Zn129  1  0.93765749  0.17460926  0.93755542  1
  Zn  Zn130  1  0.93294693  0.70091773  0.43608707  1
  Zn  Zn131  1  0.94064784  0.69978869  0.91931424  1
  Zn  Zn132  1  0.06440028  0.31071434  0.06653130  1
  Zn  Zn133  1  0.06498182  0.31073690  0.56201073  1
  Zn  Zn134  1  0.06435028  0.81021900  0.06456037  1
  Zn  Zn135  1  0.07476231  0.80218402  0.56349128  1
  Zn  Zn136  1  0.56516865  0.30546211  0.06286816  1
  Zn  Zn137  1  0.54857132  0.29451495  0.56992035  1
  Zn  Zn138  1  0.57449807  0.79873831  0.08069511  1
  Zn  Zn139  1  0.55325330  0.81531584  0.55508850  1
  O  O140  1  0.11622398  0.11768789  0.11937297  1
  O  O141  1  0.12876754  0.10878389  0.61572954  1
  O  O142  1  0.12665086  0.62810455  0.12355216  1
  O  O143  1  0.09685244  0.65412068  0.61249000  1
  O  O144  1  0.61552523  0.10603689  0.13235060  1
  O  O145  1  0.68579362  0.07102756  0.61043386  1
  O  O146  1  0.64371515  0.58733425  0.12493460  1
  O  O147  1  0.61109118  0.61860616  0.62195500  1
  O  O148  1  0.37721542  0.38042697  0.38137159  1
  O  O149  1  0.36738424  0.39590050  0.88489403  1
  O  O150  1  0.38661418  0.88361828  0.36230516  1
  O  O151  1  0.39478762  0.86601901  0.89698824  1
  O  O152  1  0.85934786  0.44938522  0.30264936  1
  O  O153  1  0.86865071  0.37680467  0.83279859  1
  O  O154  1  0.86855630  0.88545796  0.38111124  1
  O  O155  1  0.88822019  0.88996609  0.86338446  1
  O  O156  1  0.26205749  -0.00803209  0.35441552  1
  O  O157  1  0.25091952  -0.02501111  0.86213255  1
  O  O158  1  0.25594707  0.51206896  0.37698308  1
  O  O159  1  0.24739375  0.50311572  0.87650281  1
  O  O160  1  0.76670449  0.00567388  0.38124338  1
  O  O161  1  0.76374564  -0.01055828  0.87450607  1
  O  O162  1  0.74590707  0.51233224  0.39826498  1
  O  O163  1  0.75625503  0.50087755  0.88523622  1
  O  O164  1  0.24373563  0.48947598  0.12704051  1
  O  O165  1  0.22296539  0.55639665  0.63171541  1
  O  O166  1  0.24493403  1.00701272  0.13096291  1
  O  O167  1  0.25436519  0.98110248  0.62775775  1
  O  O168  1  0.67736034  0.52805974  0.08800135  1
  O  O169  1  0.72491813  0.49607261  0.63365588  1
  O  O170  1  0.73396670  1.00593853  0.11808886  1
  O  O171  1  0.74258343  1.03728290  0.57618207  1
  O  O172  1  0.00649400  0.36261410  0.24395879  1
  O  O173  1  0.01207809  0.34523350  0.74224600  1
  O  O174  1  0.01213111  0.86138246  0.25045080  1
  O  O175  1  0.00664504  0.86628911  0.73378889  1
  O  O176  1  0.50070680  0.36045600  0.25901063  1
  O  O177  1  0.50399918  0.36935345  0.75859253  1
  O  O178  1  0.51354797  0.87966347  0.26733062  1
  O  O179  1  0.49644171  0.86259565  0.75387397  1
  O  O180  1  0.49571976  0.13423475  0.25457835  1
  O  O181  1  0.50775114  0.14119677  0.74968009  1
  O  O182  1  0.48946920  0.62210563  0.26113628  1
  O  O183  1  0.48932829  0.63740772  0.74102406  1
  O  O184  1  1.00890211  0.12956744  0.23943223  1
  O  O185  1  1.01803502  0.12555257  0.73825357  1
  O  O186  1  1.00859391  0.65162485  0.25534990  1
  O  O187  1  0.99025878  0.64369823  0.73484419  1
  O  O188  1  0.35240706  0.27181526  -0.01068552  1
  O  O189  1  0.35471643  0.25943547  0.49484256  1
  O  O190  1  0.37416370  0.75173544  0.00984050  1
  O  O191  1  0.36382267  0.74909759  0.49034400  1
  O  O192  1  0.86805138  0.24144561  0.00770363  1
  O  O193  1  0.88136901  0.25654806  0.50224876  1
  O  O194  1  0.91840395  0.72044210  0.02471714  1
  O  O195  1  0.85753242  0.75459302  0.50795970  1
  O  O196  1  0.12523899  0.24249488  0.48298146  1
  O  O197  1  0.12794121  0.24526466  0.99116780  1
  O  O198  1  0.13764592  0.74660939  0.48199155  1
  O  O199  1  0.14964547  0.75471295  1.01894865  1
  O  O200  1  0.62321833  0.21494672  0.58345654  1
  O  O201  1  0.63250845  0.25082833  0.98434763  1
  O  O202  1  0.63026724  0.74179454  0.49922549  1
  O  O203  1  0.61878107  0.74227047  0.96873869  1
  O  O204  1  0.50986866  0.23258023  0.14111170  1
  O  O205  1  0.47265045  0.26123664  0.65317536  1
  O  O206  1  0.49015715  0.72983099  0.11332006  1
  O  O207  1  0.49715803  0.74049849  0.63494108  1
  O  O208  1  0.99806030  0.23896994  0.13432328  1
  O  O209  1  1.01839350  0.23010229  0.63326968  1
  O  O210  1  1.00569155  0.75032322  0.14449742  1
  O  O211  1  0.98236588  0.75309592  0.62352263  1
  O  O212  1  0.01254983  0.24718306  0.36282197  1
  O  O213  1  0.01312542  0.23423548  0.86550440  1
  O  O214  1  0.01729645  0.75531234  0.37531723  1
  O  O215  1  -0.00927823  0.77304978  0.84849884  1
  O  O216  1  0.48766164  0.25984506  0.36604962  1
  O  O217  1  0.51139163  0.23914014  0.88233096  1
  O  O218  1  0.50484185  0.76227747  0.38422645  1
  O  O219  1  0.50953017  0.75466072  0.86046539  1
  O  O220  1  0.23442997  0.14035426  0.49517697  1
  O  O221  1  0.23166237  0.14764839  1.01657688  1
  O  O222  1  0.25384802  0.63887607  0.48178839  1
  O  O223  1  0.25439250  0.63207588  0.99993238  1
  O  O224  1  0.82525746  0.21913490  0.53416391  1
  O  O225  1  0.74359290  0.15501981  1.03264674  1
  O  O226  1  0.73583263  0.63162579  0.50042107  1
  O  O227  1  0.76810393  0.66343958  0.99234433  1
  O  O228  1  0.23870502  0.36907107  0.01089711  1
  O  O229  1  0.25553607  0.36784147  0.49541133  1
  O  O230  1  0.26893398  0.87157115  0.00628346  1
  O  O231  1  0.25456061  0.86410066  0.50829972  1
  O  O232  1  0.74862888  0.34551331  0.01145087  1
  O  O233  1  0.73972423  0.36983457  0.53153657  1
  O  O234  1  0.75275829  0.84097072  -0.00977623  1
  O  O235  1  0.73520596  0.86143996  0.49640895  1
  O  O236  1  0.10811421  0.56354078  0.15165906  1
  O  O237  1  0.10662817  0.47951753  0.75345790  1
  O  O238  1  0.14446870  1.00397236  0.23963117  1
  O  O239  1  0.14135784  0.98914035  0.73870281  1
  O  O240  1  0.61339560  0.47984850  0.25244223  1
  O  O241  1  0.60664069  0.49391453  0.74682900  1
  O  O242  1  0.63085082  0.99135889  0.26104492  1
  O  O243  1  0.61909141  0.98252789  0.73955443  1
  O  O244  1  0.36669756  0.00462746  0.24878258  1
  O  O245  1  0.36392670  -0.00373305  0.74871242  1
  O  O246  1  0.37651632  0.50871810  0.26001325  1
  O  O247  1  0.37888733  0.51257661  0.76934971  1
  O  O248  1  0.88755071  -0.00515158  0.26683938  1
  O  O249  1  0.87362680  0.01132483  0.75011346  1
  O  O250  1  0.88098363  0.49452411  0.24876638  1
  O  O251  1  0.89129037  0.52624971  0.74823432  1
  O  O252  1  0.12580469  0.36698539  0.37170526  1
  O  O253  1  0.12043893  0.36087397  0.86863935  1
  O  O254  1  0.13299191  0.87397824  0.37637172  1
  O  O255  1  0.10891046  0.87743059  0.87299240  1
  O  O256  1  0.60256287  0.37624398  0.38705300  1
  O  O257  1  0.61543680  0.38978247  0.87774156  1
  O  O258  1  0.61601575  0.86722037  0.36943214  1
  O  O259  1  0.61522475  0.86427581  0.85702939  1
  O  O260  1  0.39255920  0.11755927  0.13748364  1
  O  O261  1  0.33499923  0.14468744  0.62839480  1
  O  O262  1  0.37739706  0.62331886  0.14131902  1
  O  O263  1  0.38336519  0.61715053  0.63786254  1
  O  O264  1  0.89576908  0.12562794  0.11941457  1
  O  O265  1  0.90257979  0.11532985  0.63464228  1
  O  O266  1  0.83248680  0.67216315  0.14254885  1
  O  O267  1  0.88225272  0.63728461  0.62675844  1
  O  O268  1  0.24232464  0.26314245  0.11599312  1
  O  O269  1  0.22582816  0.25716921  0.60405590  1
  O  O270  1  0.27603279  0.74393374  0.11417246  1
  O  O271  1  0.24722644  0.75500654  0.60745567  1
  O  O272  1  0.78127253  0.25076832  0.15273463  1
  O  O273  1  0.76674238  0.28213557  0.67289206  1
  O  O274  1  0.68222875  0.74849382  0.10975777  1
  O  O275  1  0.75561899  0.74901737  0.61333621  1
  O  O276  1  0.23424068  0.25201262  0.38005938  1
  O  O277  1  0.23529093  0.25333697  0.88796220  1
  O  O278  1  0.24478244  0.75037040  0.37976305  1
  O  O279  1  0.25686627  0.75714624  0.89782053  1
  O  O280  1  0.76622755  0.22363321  0.37419558  1
  O  O281  1  0.73955947  0.24424047  0.87844684  1
  O  O282  1  0.74015742  0.73896670  0.39072372  1
  O  O283  1  0.73367147  0.75420126  0.85600260  1
  O  O284  1  0.01662321  0.12984678  0.01364090  1
  O  O285  1  0.01547849  0.11931845  0.51182439  1
  O  O286  1  0.06982703  0.65575495  -0.06736987  1
  O  O287  1  -0.00606505  0.62874607  0.50412204  1
  O  O288  1  0.50472989  0.12342687  0.01879283  1
  O  O289  1  0.49225106  0.11106640  0.48383970  1
  O  O290  1  0.50770759  0.59821336  -0.02851475  1
  O  O291  1  0.50191568  0.63272860  0.51694495  1
  O  O292  1  0.47949647  0.35556249  0.49325517  1
  O  O293  1  0.48140281  0.36611033  1.00858423  1
  O  O294  1  0.49821037  0.88643324  0.48220030  1
  O  O295  1  0.51246855  0.86134638  0.98959169  1
  O  O296  1  0.99841897  0.38445188  0.50922565  1
  O  O297  1  1.00213638  0.38075333  1.00172993  1
  O  O298  1  1.01631835  0.88477888  0.50239524  1
  O  O299  1  1.00001342  0.86942055  0.98656167  1
  O  O300  1  0.48585619  0.48123092  0.37671432  1
  O  O301  1  0.51110503  0.53839953  0.92346316  1
  O  O302  1  0.48731968  0.99263981  0.38079058  1
  O  O303  1  0.50954498  0.97887366  0.87249184  1
  O  O304  1  1.00025501  0.49511120  0.39039463  1
  O  O305  1  0.97970026  0.50643758  0.89079238  1
  O  O306  1  0.99001535  1.00528574  0.39031558  1
  O  O307  1  0.99656341  0.98808929  0.86689912  1
  O  O308  1  0.01517353  0.00840521  0.13618553  1
  O  O309  1  0.01882247  0.00355944  0.61578910  1
  O  O310  1  -0.00795738  0.52002488  0.10064974  1
  O  O311  1  0.00755035  0.52208898  0.61685696  1
  O  O312  1  0.51158407  0.01094072  0.13273459  1
  O  O313  1  0.46640511  0.00197366  0.59725107  1
  O  O314  1  0.49586687  0.49725584  0.11633728  1
  O  O315  1  0.50307873  0.51533870  0.63370551  1
  O  O316  1  0.25630564  0.37095829  0.23644830  1
  O  O317  1  0.23178548  0.37350600  0.75291987  1
  O  O318  1  0.26034671  0.88336024  0.23742258  1
  O  O319  1  0.25305971  0.86696761  0.73620443  1
  O  O320  1  0.72412288  0.36746969  0.27066586  1
  O  O321  1  0.71332285  0.39211891  0.74740252  1
  O  O322  1  0.72854087  0.86322597  0.25659025  1
  O  O323  1  0.73639356  0.87252489  0.74042986  1
  O  O324  1  0.26561745  0.12290603  0.23913141  1
  O  O325  1  0.24179336  0.10352468  0.76611223  1
  O  O326  1  0.26215966  0.63397593  0.26555129  1
  O  O327  1  0.26833672  0.64472915  0.75739234  1
  O  O328  1  0.75592882  0.12112071  0.25391646  1
  O  O329  1  0.76355000  0.13319657  0.73299304  1
  O  O330  1  0.73639505  0.61963739  0.28114841  1
  O  O331  1  0.76158232  0.61990531  0.73382322  1
  O  O332  1  0.37687002  0.10977231  0.35660232  1
  O  O333  1  0.36330885  0.10406967  0.93959289  1
  O  O334  1  0.37053739  0.61488690  0.36768329  1
  O  O335  1  0.37760571  0.61492703  0.86962687  1
  O  O336  1  0.86067733  0.10520639  0.41154399  1
  O  O337  1  0.87875691  0.11145017  0.85681200  1
  O  O338  1  0.86075327  0.62884668  0.38333485  1
  O  O339  1  0.87353546  0.64440443  0.85034420  1
  O  O340  1  0.13058226  0.37588748  0.13280168  1
  O  O341  1  0.12423013  0.37546292  0.63697204  1
  O  O342  1  0.12382707  0.89720688  0.11520887  1
  O  O343  1  0.13946118  0.88165415  0.62102196  1
  O  O344  1  0.62407037  0.36430039  0.14066682  1
  O  O345  1  0.60526306  0.39013605  0.62552131  1
  O  O346  1  0.61178928  0.89183526  0.14312834  1
  O  O347  1  0.61698432  0.86754976  0.63164726  1
  O  O348  1  0.11959981  0.24457496  0.26102126  1
  O  O349  1  0.12464614  0.25095277  0.76483981  1
  O  O350  1  0.13024538  0.75430158  0.26873031  1
  O  O351  1  0.11013402  0.74875039  0.73763252  1
  O  O352  1  0.61049287  0.25538736  0.26184198  1
  O  O353  1  0.61225886  0.26405885  0.77142344  1
  O  O354  1  0.62345587  0.74467659  0.26722040  1
  O  O355  1  0.61145086  0.75798052  0.74732288  1
  O  O356  1  0.38045464  0.23512662  0.25339446  1
  O  O357  1  0.38707250  0.24395777  0.79251976  1
  O  O358  1  0.37909899  0.73654989  0.23906906  1
  O  O359  1  0.38750553  0.74098464  0.76194283  1
  O  O360  1  0.89832590  0.24812561  0.24437440  1
  O  O361  1  0.89888949  0.22541026  0.75406601  1
  O  O362  1  0.89338106  0.75947521  0.25463377  1
  O  O363  1  0.87511053  0.74808476  0.73114929  1
  O  O364  1  0.36417712  0.48647954  0.49048970  1
  O  O365  1  0.36664764  0.49357362  0.98937911  1
  O  O366  1  0.36136905  1.00377521  0.47618535  1
  O  O367  1  0.38619147  0.97476158  1.02281549  1
  O  O368  1  0.88909239  0.50282154  0.50976650  1
  O  O369  1  0.88720303  0.51009876  1.00605505  1
  O  O370  1  0.89883540  0.98733892  0.51337238  1
  O  O371  1  0.87832278  1.01150659  0.97949561  1
  O  O372  1  0.14008955  0.01452456  0.01134456  1
  O  O373  1  0.12791037  0.00810021  0.50164849  1
  O  O374  1  0.10097091  0.50955449  -0.00974343  1
  O  O375  1  0.11005008  0.50584284  0.50312000  1
  O  O376  1  0.62620200  -0.01650240  0.00739185  1
  O  O377  1  0.60585926  -0.00156349  0.49769404  1
  O  O378  1  0.63377220  0.49926938  0.02836753  1
  O  O379  1  0.61928613  0.50879661  0.51545414  1
  O  O380  1  0.35970913  0.38272339  0.10941204  1
  O  O381  1  0.37264793  0.38831861  0.61156858  1
  O  O382  1  0.39538123  0.85462077  0.11832311  1
  O  O383  1  0.36743941  0.86638116  0.62578323  1
  O  O384  1  0.89054619  0.35727224  0.12222820  1
  O  O385  1  0.85706634  0.40382231  0.63812998  1
  O  O386  1  0.87680242  0.85091582  0.12376162  1
  O  O387  1  0.87000957  0.86770942  0.62755144  1
  O  O388  1  0.12046147  0.11886502  0.38511426  1
  O  O389  1  0.12349251  0.12694174  0.89164746  1
  O  O390  1  0.13939487  0.62306682  0.37230361  1
  O  O391  1  0.10846592  0.63075044  0.87417615  1
  O  O392  1  0.65054672  0.11331702  0.37948811  1
  O  O393  1  0.62413002  0.12484533  0.87489791  1
  O  O394  1  0.61560666  0.62947676  0.39248672  1
  O  O395  1  0.63045544  0.63580168  0.84700861  1
