# generated using pymatgen
data_V35Zn35O128
_symmetry_space_group_name_H-M   'P 1'
_cell_length_a   16.87866219
_cell_length_b   16.91628757
_cell_length_c   16.88874282
_cell_angle_alpha   90.07320023
_cell_angle_beta   90.15304773
_cell_angle_gamma   90.25384229
_symmetry_Int_Tables_number   1
_chemical_formula_structural   V35Zn35O128
_chemical_formula_sum   'V70 Zn70 O256'
_cell_volume   4822.07799194
_cell_formula_units_Z   2
loop_
 _symmetry_equiv_pos_site_id
 _symmetry_equiv_pos_as_xyz
  1  'x, y, z'
loop_
 _atom_site_type_symbol
 _atom_site_label
 _atom_site_symmetry_multiplicity
 _atom_site_fract_x
 _atom_site_fract_y
 _atom_site_fract_z
 _atom_site_occupancy
  V  V0  1  0.36537421  0.61421013  0.24468314  1
  V  V1  1  0.62145351  0.38357610  0.24477996  1
  V  V2  1  0.62206193  0.89392142  0.75044260  1
  V  V3  1  0.88628080  0.62061659  0.26306276  1
  V  V4  1  0.75310448  0.50753320  0.26557232  1
  V  V5  1  0.00882915  0.50749518  0.49998677  1
  V  V6  1  0.11822557  0.11177524  0.50032781  1
  V  V7  1  0.09922130  0.53066288  0.07639589  1
  V  V8  1  0.86368478  0.24383235  0.13932233  1
  V  V9  1  0.00676721  0.75373550  0.24493592  1
  V  V10  1  0.51194901  0.25233069  0.76406459  1
  V  V11  1  0.25013218  0.26278958  0.00352027  1
  V  V12  1  0.00365554  0.88034440  0.38434390  1
  V  V13  1  0.38713577  0.38970577  0.00481180  1
  V  V14  1  -0.00040675  0.37285336  0.37361022  1
  V  V15  1  0.25369259  0.36811524  0.60313020  1
  V  V16  1  0.12097824  0.13380769  0.01459721  1
  V  V17  1  0.50735828  0.39842932  0.87105083  1
  V  V18  1  0.37045806  0.00455130  0.88342905  1
  V  V19  1  0.48726143  0.87760330  0.88668066  1
  V  V20  1  0.63277214  0.74815685  0.39072417  1
  V  V21  1  0.87861240  0.12713670  0.77413788  1
  V  V22  1  0.25871610  0.75107695  0.51338261  1
  V  V23  1  0.12265636  -0.02530450  0.12437846  1
  V  V24  1  0.13907533  0.38132353  0.24636174  1
  V  V25  1  -0.01071548  0.86799004  0.86720056  1
  V  V26  1  0.49003236  0.75596063  0.74668973  1
  V  V27  1  0.50226230  0.74476342  0.25072156  1
  V  V28  1  0.26067141  0.11722236  0.36599625  1
  V  V29  1  0.49936935  0.01126445  0.01655292  1
  V  V30  1  0.25843418  0.49415913  0.76682629  1
  V  V31  1  0.37380420  0.13311477  0.75099652  1
  V  V32  1  0.13221892  0.36694261  0.75933665  1
  V  V33  1  0.74209655  0.37558333  0.62847791  1
  V  V34  1  0.24117411  0.00689372  0.73642202  1
  V  V35  1  0.38746712  0.49044306  0.38833205  1
  V  V36  1  0.88545528  0.23861244  0.62235739  1
  V  V37  1  0.61786175  0.24878574  0.37713219  1
  V  V38  1  0.75404439  0.01269679  0.77292262  1
  V  V39  1  0.37410442  0.23789214  0.12763879  1
  V  V40  1  0.13133957  0.75539167  0.37736525  1
  V  V41  1  0.63665950  0.88615095  0.23997474  1
  V  V42  1  -0.00851321  -0.00134997  -0.00757752  1
  V  V43  1  0.36216210  0.62871182  0.75381145  1
  V  V44  1  0.75283085  0.23224422  0.50034328  1
  V  V45  1  0.50065905  0.24074549  0.23925698  1
  V  V46  1  0.86191131  0.75410078  0.12071455  1
  V  V47  1  0.13405333  0.24387378  0.37992886  1
  V  V48  1  0.36270409  0.75774163  0.11585496  1
  V  V49  1  0.49939319  0.61216208  0.11355364  1
  V  V50  1  0.74937417  0.25348323  -0.01308747  1
  V  V51  1  0.37294311  0.88963163  0.51082765  1
  V  V52  1  0.63716135  0.62088341  -0.00325969  1
  V  V53  1  0.62272548  0.13510543  0.00379972  1
  V  V54  1  0.87902772  0.37369196  0.49855097  1
  V  V55  1  0.87045694  0.86020955  0.50792808  1
  V  V56  1  0.87123432  0.00275875  0.37224463  1
  V  V57  1  0.12495387  0.86904625  0.74392089  1
  V  V58  1  0.50757994  0.11476360  0.61784286  1
  V  V59  1  -0.00453072  0.23071513  0.25014381  1
  V  V60  1  0.01048412  0.24883773  0.75555618  1
  V  V61  1  0.48711792  0.88820669  0.37041192  1
  V  V62  1  0.24700886  0.61759407  0.37814060  1
  V  V63  1  0.88341817  0.61509716  0.76014872  1
  V  V64  1  0.24110999  0.13312420  0.87929383  1
  V  V65  1  0.74845312  0.11931273  0.35321751  1
  V  V66  1  0.37693026  0.25399344  0.60885553  1
  V  V67  1  0.13314031  0.50471776  0.61995118  1
  V  V68  1  0.63338820  0.76128045  0.88770839  1
  V  V69  1  0.25710796  -0.01188638  0.24312820  1
  Zn  Zn70  1  0.68009027  0.04528476  0.57228085  1
  Zn  Zn71  1  0.63693366  0.53488400  0.61891686  1
  Zn  Zn72  1  0.75265703  0.87919900  0.62425177  1
  Zn  Zn73  1  0.44203185  0.69818270  0.58579660  1
  Zn  Zn74  1  0.08320178  0.00034721  0.61268464  1
  Zn  Zn75  1  0.75982330  0.38449825  0.12664481  1
  Zn  Zn76  1  0.18845782  0.19360627  0.19150669  1
  Zn  Zn77  1  0.19048511  0.18643062  0.67812159  1
  Zn  Zn78  1  0.18174885  0.68203603  0.18063427  1
  Zn  Zn79  1  0.08315206  0.68022619  0.71164233  1
  Zn  Zn80  1  0.67787578  0.18230771  0.18214398  1
  Zn  Zn81  1  0.69393926  0.18912110  0.69349018  1
  Zn  Zn82  1  0.68332233  0.68712049  0.18790633  1
  Zn  Zn83  1  0.68048362  0.69833068  0.69905547  1
  Zn  Zn84  1  0.31925345  0.31145953  0.31541360  1
  Zn  Zn85  1  0.31996634  0.31850366  0.82118036  1
  Zn  Zn86  1  0.31289934  0.80831299  0.30357066  1
  Zn  Zn87  1  0.30610247  0.82063404  0.80523205  1
  Zn  Zn88  1  0.80946202  0.31412261  0.31286599  1
  Zn  Zn89  1  0.81126333  0.31135929  0.80414816  1
  Zn  Zn90  1  0.81451638  0.80901552  0.31113739  1
  Zn  Zn91  1  0.80637862  0.80823773  0.78853864  1
  Zn  Zn92  1  0.18912572  0.43556205  0.43076380  1
  Zn  Zn93  1  0.02609341  0.40909945  0.92461170  1
  Zn  Zn94  1  0.19564875  0.93746045  0.43641973  1
  Zn  Zn95  1  0.17105952  0.95192304  0.92488351  1
  Zn  Zn96  1  0.68751138  0.42677030  0.44058999  1
  Zn  Zn97  1  0.67843888  0.42690924  0.94843016  1
  Zn  Zn98  1  0.69055326  0.92626339  0.42463638  1
  Zn  Zn99  1  0.67565371  0.95271465  0.93723883  1
  Zn  Zn100  1  0.30676987  0.06197637  0.06766826  1
  Zn  Zn101  1  0.31088807  0.07341260  0.55220864  1
  Zn  Zn102  1  0.25619919  0.52990613  0.00969207  1
  Zn  Zn103  1  0.31851298  0.56367071  0.56588014  1
  Zn  Zn104  1  0.81677225  0.08108312  0.05381017  1
  Zn  Zn105  1  0.86924739  0.02908216  0.58547436  1
  Zn  Zn106  1  0.79605195  0.58157785  0.09193865  1
  Zn  Zn107  1  0.82441709  0.55235265  0.56655137  1
  Zn  Zn108  1  0.43755739  0.43213370  0.19206699  1
  Zn  Zn109  1  0.43822554  0.43375004  0.68550129  1
  Zn  Zn110  1  0.43388037  0.93281534  0.19062430  1
  Zn  Zn111  1  0.43149864  0.94294249  0.69292727  1
  Zn  Zn112  1  0.94000776  0.43577494  0.18677234  1
  Zn  Zn113  1  0.94779023  0.43037936  0.68309442  1
  Zn  Zn114  1  0.94029452  0.93409166  0.18682184  1
  Zn  Zn115  1  0.93709242  0.93305510  0.69938831  1
  Zn  Zn116  1  0.07164881  0.05407536  0.30815195  1
  Zn  Zn117  1  0.06082024  0.06750579  0.81286099  1
  Zn  Zn118  1  0.06713367  0.56022486  0.31412365  1
  Zn  Zn119  1  0.08634111  0.55390386  0.86457498  1
  Zn  Zn120  1  0.56432093  0.06129729  0.30644253  1
  Zn  Zn121  1  0.55854357  0.07085213  0.82061345  1
  Zn  Zn122  1  0.56536873  0.56649391  0.32357569  1
  Zn  Zn123  1  0.57112006  0.58274660  0.80335547  1
  Zn  Zn124  1  0.44083889  0.17722323  0.43397617  1
  Zn  Zn125  1  0.43475242  0.18784927  0.94151634  1
  Zn  Zn126  1  0.44094814  0.68374788  0.42730836  1
  Zn  Zn127  1  0.38493491  0.64640644  0.95839776  1
  Zn  Zn128  1  0.93993332  0.18270988  0.43364292  1
  Zn  Zn129  1  0.95108652  0.22475411  0.95699283  1
  Zn  Zn130  1  0.94036147  0.68738871  0.43629801  1
  Zn  Zn131  1  0.95844715  0.68218923  0.95281033  1
  Zn  Zn132  1  0.05437892  0.31959328  0.07635849  1
  Zn  Zn133  1  0.06714320  0.30808309  0.56138084  1
  Zn  Zn134  1  0.05512406  0.80398613  0.04672335  1
  Zn  Zn135  1  0.07077440  0.80991048  0.56578164  1
  Zn  Zn136  1  0.56207343  0.31940390  0.06105950  1
  Zn  Zn137  1  0.58006397  0.27320961  0.57996203  1
  Zn  Zn138  1  0.55100524  0.81257634  0.06674689  1
  Zn  Zn139  1  0.57960732  0.87414160  0.54108698  1
  O  O140  1  0.12617912  0.12747302  0.11524824  1
  O  O141  1  0.13146504  0.12511431  0.60298264  1
  O  O142  1  0.11050973  0.62724378  0.11055497  1
  O  O143  1  0.13780341  0.60096398  0.63421550  1
  O  O144  1  0.62230926  0.12010852  0.10861447  1
  O  O145  1  0.61469827  0.13355698  0.62424739  1
  O  O146  1  0.60945872  0.63608971  0.10630802  1
  O  O147  1  0.69118405  0.64692795  0.55831373  1
  O  O148  1  0.37176304  0.39099285  0.37418269  1
  O  O149  1  0.39232855  0.37270523  0.89192885  1
  O  O150  1  0.38446176  0.87221739  0.36995958  1
  O  O151  1  0.37972112  0.89059615  0.86893914  1
  O  O152  1  0.88573329  0.36430941  0.38815424  1
  O  O153  1  0.84979274  0.40265211  0.88116098  1
  O  O154  1  0.88839315  0.87416121  0.38326116  1
  O  O155  1  0.88945023  0.87274926  0.84201166  1
  O  O156  1  0.24016619  0.00874952  0.35617035  1
  O  O157  1  0.25433638  0.01429465  0.87058218  1
  O  O158  1  0.25588898  0.51477491  0.38013019  1
  O  O159  1  0.24804481  0.48938909  0.86306840  1
  O  O160  1  0.75918945  0.00984941  0.37357172  1
  O  O161  1  0.75119604  0.01037043  0.87314769  1
  O  O162  1  0.74738769  0.49247652  0.36741870  1
  O  O163  1  0.79278999  0.45147410  0.89207068  1
  O  O164  1  0.19172832  0.48990032  0.09125857  1
  O  O165  1  0.24767833  0.48128782  0.61938729  1
  O  O166  1  0.23397863  1.00100323  0.13085306  1
  O  O167  1  0.25735197  1.01450192  0.63905794  1
  O  O168  1  0.75128346  0.49635008  0.15117501  1
  O  O169  1  0.74281240  0.48060398  0.60453270  1
  O  O170  1  0.75644003  0.96663718  0.08702748  1
  O  O171  1  0.76317624  0.99922277  0.63922797  1
  O  O172  1  0.00629625  0.36989774  0.26588100  1
  O  O173  1  0.02107404  0.35840872  0.73343152  1
  O  O174  1  -0.00154278  0.85809479  0.26775347  1
  O  O175  1  0.01374520  0.87205619  0.75465570  1
  O  O176  1  0.51484598  0.36413587  0.25187149  1
  O  O177  1  0.49069019  0.36136001  0.76267055  1
  O  O178  1  0.49980725  0.86260892  0.25519985  1
  O  O179  1  0.50569891  0.88578406  0.76484749  1
  O  O180  1  0.50352125  0.14196274  0.25146913  1
  O  O181  1  0.49188227  0.13480696  0.74519240  1
  O  O182  1  0.49517072  0.63423073  0.24802145  1
  O  O183  1  0.49487561  0.65458501  0.74655882  1
  O  O184  1  1.00142782  0.13246378  0.26009558  1
  O  O185  1  0.98975522  0.13741323  0.75203749  1
  O  O186  1  0.99323028  0.63227441  0.26300398  1
  O  O187  1  0.98586484  0.61552242  0.72879640  1
  O  O188  1  0.37045418  0.25143466  0.01344931  1
  O  O189  1  0.38616294  0.24897880  0.51086366  1
  O  O190  1  0.38213131  0.74613135  0.01669358  1
  O  O191  1  0.36838281  0.75689816  0.50233331  1
  O  O192  1  0.85268909  0.24343571  0.01850229  1
  O  O193  1  0.87339712  0.24901316  0.50857536  1
  O  O194  1  0.88301145  0.73015984  0.02347258  1
  O  O195  1  0.88319948  0.76029854  0.49945973  1
  O  O196  1  0.12409166  0.24091891  0.48382679  1
  O  O197  1  0.14291036  0.24448161  1.01027308  1
  O  O198  1  0.14216584  0.75405131  0.48453995  1
  O  O199  1  0.06254731  0.70583112  0.99221152  1
  O  O200  1  0.63493925  0.24980324  0.48332973  1
  O  O201  1  0.63101214  0.24379750  1.00601761  1
  O  O202  1  0.61622966  0.77573691  0.48783656  1
  O  O203  1  0.61864182  0.75775457  0.99066811  1
  O  O204  1  0.49469666  0.24956674  0.13320230  1
  O  O205  1  0.48821555  0.24517788  0.63896670  1
  O  O206  1  0.49016339  0.74023359  0.13744135  1
  O  O207  1  0.49592107  0.77827902  0.64822332  1
  O  O208  1  0.99124149  0.24643337  0.14686058  1
  O  O209  1  0.98955551  0.24876706  0.62734253  1
  O  O210  1  1.00178054  0.75575404  0.14491523  1
  O  O211  1  1.02800167  0.73037393  0.62973501  1
  O  O212  1  0.00803508  0.25393328  0.36854167  1
  O  O213  1  -0.00200032  0.25832148  0.85270167  1
  O  O214  1  0.01751208  0.75274464  0.37468320  1
  O  O215  1  -0.00101606  0.76959775  0.88092703  1
  O  O216  1  0.51398917  0.24202908  0.37006759  1
  O  O217  1  0.49800643  0.24524302  0.86437544  1
  O  O218  1  0.50115966  0.75721744  0.36050551  1
  O  O219  1  0.49444760  0.77588646  0.87031657  1
  O  O220  1  0.23770740  0.11923628  0.47593506  1
  O  O221  1  0.24172351  0.13245507  0.99641508  1
  O  O222  1  0.26164891  0.63878068  0.48453886  1
  O  O223  1  0.27354486  0.62584979  0.96194816  1
  O  O224  1  0.74622251  0.13187789  0.50457159  1
  O  O225  1  0.73592068  0.14028798  1.00202705  1
  O  O226  1  0.75534386  0.63857417  0.51829444  1
  O  O227  1  0.73590459  0.63112913  1.00636960  1
  O  O228  1  0.26740250  0.36112114  -0.00344645  1
  O  O229  1  0.25140416  0.36864388  0.50476704  1
  O  O230  1  0.22920147  0.83283498  -0.03896094  1
  O  O231  1  0.26457947  0.86225221  0.48944415  1
  O  O232  1  0.73648686  0.35652254  0.01497721  1
  O  O233  1  0.76278136  0.35741586  0.50177812  1
  O  O234  1  0.74929355  0.91486995  0.03302286  1
  O  O235  1  0.76653289  0.86996376  0.50154710  1
  O  O236  1  0.12484397  0.48152641  0.25793913  1
  O  O237  1  0.14392717  0.47819057  0.73373770  1
  O  O238  1  0.12402871  0.99148211  0.22873321  1
  O  O239  1  0.13571944  1.01532436  0.74069896  1
  O  O240  1  0.62979689  0.48803823  0.26251546  1
  O  O241  1  0.64180065  0.59537126  0.71324703  1
  O  O242  1  0.62417048  0.98643586  0.24805051  1
  O  O243  1  0.63309429  1.00223464  0.76017477  1
  O  O244  1  0.35592902  0.00368557  0.23588260  1
  O  O245  1  0.36351685  0.01528655  0.75919610  1
  O  O246  1  0.37727436  0.51135322  0.25594925  1
  O  O247  1  0.36342829  0.50024564  0.74256783  1
  O  O248  1  0.88423902  -0.01220745  0.27256437  1
  O  O249  1  0.86637298  0.01836171  0.76340736  1
  O  O250  1  0.87023627  0.51110108  0.25538850  1
  O  O251  1  0.88906416  0.51065597  0.74605285  1
  O  O252  1  0.12165357  0.35892129  0.37194504  1
  O  O253  1  0.12902623  0.36762339  0.85673710  1
  O  O254  1  0.11878442  0.86408032  0.37602269  1
  O  O255  1  0.11142706  0.88868575  0.85406431  1
  O  O256  1  0.63226333  0.35314203  0.36518034  1
  O  O257  1  0.60556161  0.37422059  0.87822122  1
  O  O258  1  0.60932220  0.86659628  0.35923713  1
  O  O259  1  0.61062575  0.87822302  0.87442090  1
  O  O260  1  0.37409037  0.13895119  0.12606147  1
  O  O261  1  0.38073595  0.13686779  0.63051606  1
  O  O262  1  0.38462053  0.62888837  0.13955382  1
  O  O263  1  0.37546322  0.62435427  0.64404407  1
  O  O264  1  0.87073796  0.14168185  0.13346149  1
  O  O265  1  0.87076626  0.14003064  0.63063996  1
  O  O266  1  0.87417032  0.63877753  0.15261333  1
  O  O267  1  0.84841703  0.62037581  0.65908862  1
  O  O268  1  0.26462496  0.24974640  0.11830213  1
  O  O269  1  0.26692762  0.25572731  0.62283056  1
  O  O270  1  0.26336167  0.74082352  0.12997702  1
  O  O271  1  0.24638969  0.74691494  0.60777132  1
  O  O272  1  0.75865857  0.25405657  0.14173285  1
  O  O273  1  0.76206852  0.25469283  0.61808109  1
  O  O274  1  0.76056904  0.74698623  0.13062519  1
  O  O275  1  0.75687403  0.77613013  0.68265783  1
  O  O276  1  0.23884162  0.23765912  0.36495545  1
  O  O277  1  0.26159288  0.24282869  0.89287139  1
  O  O278  1  0.24095667  0.74253263  0.36917591  1
  O  O279  1  0.24037666  0.78222022  0.90674168  1
  O  O280  1  0.75065330  0.23215370  0.37959877  1
  O  O281  1  0.75579483  0.26082246  0.88782134  1
  O  O282  1  0.73235345  0.75918597  0.37493219  1
  O  O283  1  0.73169287  0.76898055  0.87348840  1
  O  O284  1  0.01832895  0.12920319  -0.00686099  1
  O  O285  1  0.01766685  0.12138126  0.48875468  1
  O  O286  1  -0.06073417  0.55260672  -0.00287402  1
  O  O287  1  -0.00080308  0.60588519  0.49519496  1
  O  O288  1  0.50195850  0.11864532  0.00408781  1
  O  O289  1  0.49583448  0.12513905  0.51833606  1
  O  O290  1  0.48831895  0.61846070  0.01274797  1
  O  O291  1  0.49567547  0.63577330  0.51143710  1
  O  O292  1  0.53511761  0.45102031  0.53627719  1
  O  O293  1  0.49683063  0.38404461  0.98961830  1
  O  O294  1  0.48037579  0.87463252  0.48179159  1
  O  O295  1  0.49771392  0.89105911  0.99080227  1
  O  O296  1  0.99670035  0.37107321  0.49218403  1
  O  O297  1  0.98839357  0.33221454  0.99073779  1
  O  O298  1  1.00049172  0.86750306  0.48830718  1
  O  O299  1  0.99933968  0.89037040  0.98208554  1
  O  O300  1  0.48664055  0.50400197  0.37474533  1
  O  O301  1  0.51152057  0.49581624  0.84900351  1
  O  O302  1  0.49627986  0.98747185  0.36247197  1
  O  O303  1  0.48665704  0.99784245  0.88183775  1
  O  O304  1  1.01453796  0.48526433  0.39188939  1
  O  O305  1  1.00980924  0.47519228  0.83741796  1
  O  O306  1  1.00131821  0.98390231  0.37210832  1
  O  O307  1  1.00315001  1.00253127  0.88721117  1
  O  O308  1  0.01352520  -0.00990150  0.11040362  1
  O  O309  1  -0.02544289  0.01547975  0.63339164  1
  O  O310  1  0.01888338  0.48456427  0.12108603  1
  O  O311  1  0.02284497  0.48584701  0.61239172  1
  O  O312  1  0.48594557  -0.00097920  0.11353940  1
  O  O313  1  0.49899215  0.01709813  0.63573019  1
  O  O314  1  0.49986239  0.51519178  0.13598459  1
  O  O315  1  0.52259829  0.48119081  0.61361982  1
  O  O316  1  0.23781944  0.36805437  0.25965873  1
  O  O317  1  0.24816097  0.37430250  0.74629431  1
  O  O318  1  0.24868271  0.88866153  0.25419881  1
  O  O319  1  0.24027851  0.90065120  0.75510459  1
  O  O320  1  0.73904661  0.38258698  0.25374750  1
  O  O321  1  0.75787087  0.37392525  0.72837301  1
  O  O322  1  0.73620128  0.87227236  0.25442785  1
  O  O323  1  0.73422921  0.90105689  0.76454232  1
  O  O324  1  0.24077203  0.11690834  0.25936641  1
  O  O325  1  0.25453936  0.12486368  0.75774174  1
  O  O326  1  0.26002267  0.62574389  0.25763606  1
  O  O327  1  0.25996607  0.60585525  0.75526906  1
  O  O328  1  0.75126088  0.12320236  0.25561744  1
  O  O329  1  0.76396483  0.12393842  0.75583711  1
  O  O330  1  0.74753192  0.61141426  0.25494392  1
  O  O331  1  0.78742585  0.60700407  0.79757522  1
  O  O332  1  0.36035803  0.12834685  0.37219795  1
  O  O333  1  0.36584180  0.12237129  0.86872521  1
  O  O334  1  0.36619484  0.62002642  0.36199488  1
  O  O335  1  0.39307669  0.61400115  0.84902152  1
  O  O336  1  0.86447292  0.11165861  0.37944422  1
  O  O337  1  0.88196724  0.14403854  0.86989240  1
  O  O338  1  0.86912224  0.63484604  0.36241617  1
  O  O339  1  0.91778303  0.61492803  0.86026244  1
  O  O340  1  0.12732774  0.35692791  0.14886885  1
  O  O341  1  0.14626447  0.36589681  0.62575260  1
  O  O342  1  0.12671398  0.87681110  0.10504567  1
  O  O343  1  0.11662639  0.89105581  0.63755207  1
  O  O344  1  0.62695592  0.37225271  0.14253585  1
  O  O345  1  0.64228824  0.35842634  0.61928690  1
  O  O346  1  0.61660073  0.86686001  0.14143380  1
  O  O347  1  0.62408909  0.87991471  0.65031447  1
  O  O348  1  0.11238836  0.25204107  0.26257163  1
  O  O349  1  0.11996846  0.25132629  0.74321954  1
  O  O350  1  0.11519237  0.74102638  0.26103928  1
  O  O351  1  0.14892386  0.77388167  0.74203411  1
  O  O352  1  0.61662022  0.25441353  0.25602856  1
  O  O353  1  0.61088449  0.24686134  0.74943427  1
  O  O354  1  0.61070457  0.75059200  0.25457163  1
  O  O355  1  0.60686817  0.77073258  0.76862619  1
  O  O356  1  0.38967892  0.25893588  0.23899004  1
  O  O357  1  0.37877832  0.24104154  0.74855176  1
  O  O358  1  0.38430467  0.73697750  0.24638744  1
  O  O359  1  0.37522686  0.74501242  0.75820270  1
  O  O360  1  0.88630901  0.24741201  0.25424108  1
  O  O361  1  0.88517441  0.24582380  0.74047381  1
  O  O362  1  0.88917722  0.74212089  0.25143140  1
  O  O363  1  0.88323300  0.71930945  0.75920279  1
  O  O364  1  0.37444058  0.50425957  0.48804040  1
  O  O365  1  0.36732962  0.48617129  1.00969696  1
  O  O366  1  0.36290374  0.98842766  0.49515748  1
  O  O367  1  0.37950753  1.01204731  0.99049411  1
  O  O368  1  0.89695259  0.48547505  0.51092919  1
  O  O369  1  0.87438573  0.51972232  1.01480802  1
  O  O370  1  0.88006888  0.98086341  0.47987793  1
  O  O371  1  0.89471511  1.01641391  1.00420180  1
  O  O372  1  0.12170213  0.01412865  0.01013804  1
  O  O373  1  0.12804154  0.00655267  0.49973884  1
  O  O374  1  0.08870628  0.51382677  -0.02944474  1
  O  O375  1  0.12252463  0.49408020  0.50850369  1
  O  O376  1  0.60450287  0.00877353  0.00493784  1
  O  O377  1  0.62656808  -0.02652493  0.50553944  1
  O  O378  1  0.62897817  0.52162395  -0.01690135  1
  O  O379  1  0.60446083  0.48781118  0.50868119  1
  O  O380  1  0.38866276  0.36392663  0.11058002  1
  O  O381  1  0.36780527  0.36226770  0.62422119  1
  O  O382  1  0.37456539  0.85723558  0.12914842  1
  O  O383  1  0.37833248  0.88380316  0.61127876  1
  O  O384  1  0.87555905  0.35559680  0.13711722  1
  O  O385  1  0.87250653  0.36341055  0.61524890  1
  O  O386  1  0.88111357  0.85473203  0.13127786  1
  O  O387  1  0.87993952  0.87634561  0.61193014  1
  O  O388  1  0.12839147  0.13202613  0.37777954  1
  O  O389  1  0.13667431  0.12533826  0.88505113  1
  O  O390  1  0.14096683  0.63196800  0.37237314  1
  O  O391  1  0.10941225  0.64503448  0.81445889  1
  O  O392  1  0.63987454  0.13295993  0.36650785  1
  O  O393  1  0.61894153  0.12230811  0.89954451  1
  O  O394  1  0.61728435  0.64681930  0.38312794  1
  O  O395  1  0.61497722  0.65117413  0.88881174  1
