# generated using pymatgen
data_V35Zn35O128
_symmetry_space_group_name_H-M   'P 1'
_cell_length_a   16.89793838
_cell_length_b   16.90918006
_cell_length_c   16.86375954
_cell_angle_alpha   90.04546708
_cell_angle_beta   90.18613292
_cell_angle_gamma   89.76085247
_symmetry_Int_Tables_number   1
_chemical_formula_structural   V35Zn35O128
_chemical_formula_sum   'V70 Zn70 O256'
_cell_volume   4818.41791512
_cell_formula_units_Z   2
loop_
 _symmetry_equiv_pos_site_id
 _symmetry_equiv_pos_as_xyz
  1  'x, y, z'
loop_
 _atom_site_type_symbol
 _atom_site_label
 _atom_site_symmetry_multiplicity
 _atom_site_fract_x
 _atom_site_fract_y
 _atom_site_fract_z
 _atom_site_occupancy
  V  V0  1  0.12674126  0.75025113  0.86814790  1
  V  V1  1  0.00123463  0.61861973  0.13325416  1
  V  V2  1  0.09029892  0.63844732  0.50795602  1
  V  V3  1  0.51568686  0.00563963  0.50190583  1
  V  V4  1  0.50473894  0.75226398  0.24672153  1
  V  V5  1  0.63738701  0.37152175  0.75096848  1
  V  V6  1  -0.00361261  0.25382541  0.75400461  1
  V  V7  1  0.60104898  -0.00054526  0.13275168  1
  V  V8  1  0.11500203  0.60659268  -0.00447697  1
  V  V9  1  0.61230263  0.12902836  0.00248071  1
  V  V10  1  0.13237037  0.26500402  0.37780779  1
  V  V11  1  0.87948870  0.11664415  0.77032895  1
  V  V12  1  0.63494227  0.49052768  0.13068104  1
  V  V13  1  0.75903158  -0.01173508  0.74873243  1
  V  V14  1  0.11652172  0.87113052  0.24581546  1
  V  V15  1  0.73205733  0.64956139  0.36863059  1
  V  V16  1  0.10291326  0.75961253  0.37138872  1
  V  V17  1  0.13318442  -0.00693533  0.64564856  1
  V  V18  1  0.51255035  0.87204432  0.36753308  1
  V  V19  1  0.61754722  0.88539601  0.74218505  1
  V  V20  1  0.48839539  -0.01733626  -0.00498622  1
  V  V21  1  0.37048743  -0.01165592  0.87148820  1
  V  V22  1  0.24925305  0.74832111  0.48329522  1
  V  V23  1  0.38413477  0.13087494  0.24472387  1
  V  V24  1  0.61755288  0.75860503  0.87911529  1
  V  V25  1  0.12125378  0.11935110  0.50229334  1
  V  V26  1  0.37585509  0.75205116  0.11673269  1
  V  V27  1  0.48881398  0.49457951  -0.01398475  1
  V  V28  1  0.01418488  0.00467406  -0.00192171  1
  V  V29  1  0.84725629  0.36826168  0.54345865  1
  V  V30  1  0.49125669  0.75665694  0.75046826  1
  V  V31  1  0.63227488  0.62430738  -0.00759279  1
  V  V32  1  0.24835188  0.12182405  0.87875260  1
  V  V33  1  -0.00726142  0.11598753  0.63182176  1
  V  V34  1  0.12226573  0.38720864  0.72864661  1
  V  V35  1  0.64735823  0.50222229  0.63150458  1
  V  V36  1  0.51044601  0.48601165  0.48815043  1
  V  V37  1  0.25615509  0.25901727  0.00153448  1
  V  V38  1  0.24987578  0.87436374  0.63882197  1
  V  V39  1  0.49901268  0.62094189  0.11892829  1
  V  V40  1  0.12132660  0.25975010  0.88029671  1
  V  V41  1  0.24923656  0.87355497  0.11625881  1
  V  V42  1  0.74112042  0.12012624  0.88826175  1
  V  V43  1  0.37723844  -0.00062320  0.37246110  1
  V  V44  1  0.88835481  -0.00421776  0.38609561  1
  V  V45  1  0.26078512  0.23698593  0.51994474  1
  V  V46  1  0.86459242  0.75857311  0.11576990  1
  V  V47  1  0.75649642  0.12944173  0.39536700  1
  V  V48  1  0.78462504  0.00817753  0.24100531  1
  V  V49  1  0.50295490  0.61954972  0.62107354  1
  V  V50  1  0.58205271  0.30074649  0.30415685  1
  V  V51  1  0.24525056  -0.00243137  0.23964980  1
  V  V52  1  0.02042125  0.12700519  0.13643923  1
  V  V53  1  -0.04142714  0.75940583  0.73849855  1
  V  V54  1  0.00472382  0.26033519  0.25776496  1
  V  V55  1  0.33684082  0.40816514  0.50947906  1
  V  V56  1  0.75951910  0.62254128  0.85241244  1
  V  V57  1  -0.01097405  0.39266499  0.38271874  1
  V  V58  1  0.36840628  0.61360145  0.25697255  1
  V  V59  1  0.38712252  0.25643401  0.12711017  1
  V  V60  1  0.37935809  0.14814643  0.74851348  1
  V  V61  1  -0.00461816  0.86930587  0.88908760  1
  V  V62  1  0.24215958  0.38186020  0.14402495  1
  V  V63  1  0.86537675  0.62782820  0.25620618  1
  V  V64  1  0.24796487  0.73426755  -0.00122703  1
  V  V65  1  0.24690976  0.12036987  0.37428979  1
  V  V66  1  0.50107742  0.35563229  0.86767765  1
  V  V67  1  0.37180299  0.87716364  0.49620185  1
  V  V68  1  0.00838675  -0.02596905  0.50062608  1
  V  V69  1  0.36472822  0.60068370  0.74934770  1
  Zn  Zn70  1  0.84715139  0.90300007  0.01274074  1
  Zn  Zn71  1  -0.07164941  0.43112710  0.92676347  1
  Zn  Zn72  1  0.63377087  0.63156584  0.49748931  1
  Zn  Zn73  1  0.65059406  0.86565086  0.24028434  1
  Zn  Zn74  1  0.37278547  0.74826937  0.62239350  1
  Zn  Zn75  1  0.86294556  0.27698930  0.11236456  1
  Zn  Zn76  1  0.18986204  0.19434781  0.18871691  1
  Zn  Zn77  1  0.18341438  0.17921411  0.70075438  1
  Zn  Zn78  1  0.18315856  0.68295451  0.18571313  1
  Zn  Zn79  1  0.19191230  0.68489389  0.67873132  1
  Zn  Zn80  1  0.70477851  0.18349236  0.18149824  1
  Zn  Zn81  1  0.69315804  0.18368275  0.70450853  1
  Zn  Zn82  1  0.69042350  0.68705346  0.17807524  1
  Zn  Zn83  1  0.68496022  0.69608574  0.68890186  1
  Zn  Zn84  1  0.31940816  0.31824295  0.32553371  1
  Zn  Zn85  1  0.30652911  0.33653892  0.80637980  1
  Zn  Zn86  1  0.31539909  0.80953218  0.30356474  1
  Zn  Zn87  1  0.31182198  0.80399057  0.81979758  1
  Zn  Zn88  1  0.81479525  0.31469205  0.29212330  1
  Zn  Zn89  1  0.80378233  0.30349698  0.84281020  1
  Zn  Zn90  1  0.82573872  0.81904721  0.30031361  1
  Zn  Zn91  1  0.79511055  0.82278524  0.85444293  1
  Zn  Zn92  1  0.14604559  0.42975017  0.52967121  1
  Zn  Zn93  1  0.19883892  0.43513000  0.92716240  1
  Zn  Zn94  1  0.18720141  0.93559526  0.43482114  1
  Zn  Zn95  1  0.18693637  0.93342691  0.93901217  1
  Zn  Zn96  1  0.69465464  0.44988688  0.31510294  1
  Zn  Zn97  1  0.68717673  0.44673790  0.92845876  1
  Zn  Zn98  1  0.69693617  0.94007024  0.42721750  1
  Zn  Zn99  1  0.67967560  0.94561908  0.93816483  1
  Zn  Zn100  1  0.30900689  0.06895008  0.05974193  1
  Zn  Zn101  1  0.31861579  0.06261870  0.56845278  1
  Zn  Zn102  1  0.31208721  0.55662311  0.06758848  1
  Zn  Zn103  1  0.31661416  0.57012778  0.55712243  1
  Zn  Zn104  1  0.83451209  0.09167436  0.06981508  1
  Zn  Zn105  1  0.81349947  0.03973373  0.56739202  1
  Zn  Zn106  1  0.81509890  0.56652886  0.06598331  1
  Zn  Zn107  1  0.79439288  0.52543667  0.47322337  1
  Zn  Zn108  1  0.44965975  0.43184534  0.19318305  1
  Zn  Zn109  1  0.44598397  0.41975068  0.67894167  1
  Zn  Zn110  1  0.42939337  0.93684964  0.18604491  1
  Zn  Zn111  1  0.43375566  0.94842852  0.68536140  1
  Zn  Zn112  1  0.93013722  0.44090782  0.19321298  1
  Zn  Zn113  1  0.84820917  0.42736478  0.74328856  1
  Zn  Zn114  1  0.94266245  0.94502957  0.17304921  1
  Zn  Zn115  1  0.95714319  0.93613038  0.70650095  1
  Zn  Zn116  1  0.06208013  0.05685387  0.31355025  1
  Zn  Zn117  1  0.06379092  0.06479530  0.83220969  1
  Zn  Zn118  1  0.04688445  0.58221816  0.32858262  1
  Zn  Zn119  1  0.06199173  0.58031592  0.79558459  1
  Zn  Zn120  1  0.59117459  0.11412610  0.29484075  1
  Zn  Zn121  1  0.55224103  0.06608005  0.81812882  1
  Zn  Zn122  1  0.56229693  0.57149393  0.30890290  1
  Zn  Zn123  1  0.55941133  0.56214660  0.80542412  1
  Zn  Zn124  1  0.44972121  0.19545849  0.43639124  1
  Zn  Zn125  1  0.43593063  0.18689854  0.93558887  1
  Zn  Zn126  1  0.43889608  0.68849257  0.43434814  1
  Zn  Zn127  1  0.43179766  0.67522097  0.92863460  1
  Zn  Zn128  1  0.90501574  0.21655269  0.42029405  1
  Zn  Zn129  1  0.94766976  0.19042237  0.95670450  1
  Zn  Zn130  1  0.91663967  0.71810747  0.43967997  1
  Zn  Zn131  1  0.93906979  0.68531995  0.94198535  1
  Zn  Zn132  1  0.06623277  0.31925713  0.06834409  1
  Zn  Zn133  1  0.01780215  0.30962205  0.56334078  1
  Zn  Zn134  1  0.06084912  0.80133010  0.06534423  1
  Zn  Zn135  1  0.06562063  0.79555562  0.58606289  1
  Zn  Zn136  1  0.56576338  0.31590972  0.05855520  1
  Zn  Zn137  1  0.63870405  0.35746303  0.50333308  1
  Zn  Zn138  1  0.56864538  0.81561649  0.06435523  1
  Zn  Zn139  1  0.55696920  0.82088040  0.56683853  1
  O  O140  1  0.11643437  0.14521394  0.11168521  1
  O  O141  1  0.12180774  0.10455563  0.62498270  1
  O  O142  1  0.11160364  0.62416168  0.11401711  1
  O  O143  1  0.10617870  0.68209209  0.60436815  1
  O  O144  1  0.63616753  0.09923326  0.10857370  1
  O  O145  1  0.59449869  0.12202402  0.64981520  1
  O  O146  1  0.61334327  0.62713294  0.11052813  1
  O  O147  1  0.61257692  0.62116711  0.63193783  1
  O  O148  1  0.36200671  0.37054689  0.41556782  1
  O  O149  1  0.40167193  0.36469657  0.87003025  1
  O  O150  1  0.37625292  0.88227559  0.37778564  1
  O  O151  1  0.35902275  0.88971258  0.87972903  1
  O  O152  1  0.89098662  0.37019004  0.37772251  1
  O  O153  1  0.87997621  0.37867367  0.84210368  1
  O  O154  1  0.88020472  0.89478732  0.36993686  1
  O  O155  1  0.89551859  0.87123855  0.88842744  1
  O  O156  1  0.25870535  0.00245582  0.36550453  1
  O  O157  1  0.25714213  0.01302041  0.89009731  1
  O  O158  1  0.20934794  0.50365015  0.32285498  1
  O  O159  1  0.27586892  0.44065568  0.84914885  1
  O  O160  1  0.77531877  0.00853725  0.37976551  1
  O  O161  1  0.73952827  0.01099256  0.85706043  1
  O  O162  1  0.74422588  0.53031579  0.37033465  1
  O  O163  1  0.74483761  0.52322978  0.86648655  1
  O  O164  1  0.25959264  0.48011477  0.12813977  1
  O  O165  1  0.25685698  0.47675866  0.53460797  1
  O  O166  1  0.25832343  0.98937794  0.13001124  1
  O  O167  1  0.24026137  0.98808701  0.62366081  1
  O  O168  1  0.73161309  0.51442398  0.12490743  1
  O  O169  1  0.74302785  0.51596908  0.61769573  1
  O  O170  1  0.78104037  1.01118565  0.14026661  1
  O  O171  1  0.74219605  1.00558105  0.65034531  1
  O  O172  1  0.00911817  0.36728719  0.27097350  1
  O  O173  1  0.00342424  0.35239683  0.74607398  1
  O  O174  1  0.01917057  0.88407550  0.23985383  1
  O  O175  1  0.00329114  0.85721579  0.77247214  1
  O  O176  1  0.52212612  0.36083109  0.24894480  1
  O  O177  1  0.51547744  0.37618854  0.75884694  1
  O  O178  1  0.49327267  0.87044061  0.25865509  1
  O  O179  1  0.50113339  0.86469409  0.74586817  1
  O  O180  1  0.48076883  0.11550123  0.25725683  1
  O  O181  1  0.47948942  0.13595520  0.77007081  1
  O  O182  1  0.49556162  0.63588643  0.23684179  1
  O  O183  1  0.49106892  0.63401090  0.73695546  1
  O  O184  1  1.01369593  0.13025377  0.24105732  1
  O  O185  1  0.99350738  0.11207217  0.75160281  1
  O  O186  1  0.99571552  0.62914734  0.23884402  1
  O  O187  1  1.00004334  0.66579677  0.74812222  1
  O  O188  1  0.36522748  0.24534312  0.01373578  1
  O  O189  1  0.36002554  0.22400074  0.50137630  1
  O  O190  1  0.36069610  0.73463786  0.00475450  1
  O  O191  1  0.36616661  0.76075989  0.49727558  1
  O  O192  1  0.91082329  0.29525645  0.00307394  1
  O  O193  1  0.90974928  0.28332514  0.51682070  1
  O  O194  1  0.87418028  0.74682914  0.01346300  1
  O  O195  1  0.82468685  0.78299701  0.48011890  1
  O  O196  1  0.13666059  0.22958713  0.49067630  1
  O  O197  1  0.13104983  0.25878736  0.98695173  1
  O  O198  1  0.13584128  0.76436084  0.48163480  1
  O  O199  1  0.13555151  0.73557020  0.99601437  1
  O  O200  1  0.63574519  0.23373944  0.54878480  1
  O  O201  1  0.62492897  0.22661985  1.01665608  1
  O  O202  1  0.65028566  0.75217979  0.53457315  1
  O  O203  1  0.60815611  0.73857705  0.98700562  1
  O  O204  1  0.48533938  0.25331360  0.11648775  1
  O  O205  1  0.54911458  0.17032787  0.61713250  1
  O  O206  1  0.49213700  0.74466708  0.12352916  1
  O  O207  1  0.49783622  0.74531448  0.63605043  1
  O  O208  1  1.01292387  0.25819393  0.15304532  1
  O  O209  1  1.00940673  0.22580459  0.64601948  1
  O  O210  1  0.98942059  0.72903830  0.11536984  1
  O  O211  1  0.96302695  0.78845157  0.63928616  1
  O  O212  1  0.02130513  0.26066300  0.37897528  1
  O  O213  1  0.01410851  0.23891459  0.86730170  1
  O  O214  1  0.00513056  0.76962328  0.37653830  1
  O  O215  1  0.01396426  0.75543409  0.88239662  1
  O  O216  1  0.51993551  0.24972618  0.36771536  1
  O  O217  1  0.51219335  0.25722594  0.88550113  1
  O  O218  1  0.49636097  0.76430723  0.36308211  1
  O  O219  1  0.50457852  0.73909344  0.85890224  1
  O  O220  1  0.24211343  0.11649430  0.49332953  1
  O  O221  1  0.25198326  0.14135334  0.98984156  1
  O  O222  1  0.24640726  0.65000154  0.50717070  1
  O  O223  1  0.23790166  0.62952445  1.01098247  1
  O  O224  1  0.76741340  0.11450063  0.49638017  1
  O  O225  1  0.74219862  0.09944982  0.98826611  1
  O  O226  1  0.75420708  0.63690956  0.47423221  1
  O  O227  1  0.73213764  0.62644814  0.99803529  1
  O  O228  1  0.25055785  0.36150661  0.00878268  1
  O  O229  1  0.24202927  0.33943974  0.51120280  1
  O  O230  1  0.24286270  0.85744742  0.01112728  1
  O  O231  1  0.25846369  0.86965421  0.50001962  1
  O  O232  1  0.78144590  0.41475556  -0.00166958  1
  O  O233  1  0.75103197  0.35882539  0.51354718  1
  O  O234  1  0.75687418  0.86909749  -0.04151681  1
  O  O235  1  0.76810253  0.89809819  0.52053586  1
  O  O236  1  0.15335908  0.51156505  0.27609483  1
  O  O237  1  0.10815397  0.48578027  0.74965321  1
  O  O238  1  0.13804208  0.98533808  0.25517698  1
  O  O239  1  0.12534421  0.99970914  0.74349330  1
  O  O240  1  0.61915117  0.50350510  0.23518562  1
  O  O241  1  0.62606888  0.49977997  0.73725420  1
  O  O242  1  0.61186749  1.01011648  0.23366070  1
  O  O243  1  0.61463281  0.98704089  0.76000928  1
  O  O244  1  0.36483728  0.00714154  0.25417574  1
  O  O245  1  0.37782574  0.00255979  0.76962395  1
  O  O246  1  0.38866943  0.51508068  0.24295260  1
  O  O247  1  0.38642193  0.50399415  0.73622720  1
  O  O248  1  0.88815866  0.00480141  0.26156578  1
  O  O249  1  0.86615939  -0.00583237  0.75179336  1
  O  O250  1  0.87673128  0.52815792  0.25085695  1
  O  O251  1  0.91081864  0.52500786  0.78216632  1
  O  O252  1  0.14874468  0.35989995  0.37632517  1
  O  O253  1  0.12285941  0.36146084  0.86163060  1
  O  O254  1  0.13292514  0.86742269  0.35868904  1
  O  O255  1  0.12536962  0.85473208  0.88096278  1
  O  O256  1  0.63183710  0.36142401  0.38191683  1
  O  O257  1  0.61958650  0.38408674  0.86118452  1
  O  O258  1  0.61419457  0.87895289  0.36412054  1
  O  O259  1  0.61487354  0.86059629  0.87082263  1
  O  O260  1  0.36773864  0.13440679  0.13904969  1
  O  O261  1  0.37242954  0.11515944  0.65102099  1
  O  O262  1  0.38577039  0.63237077  0.12724922  1
  O  O263  1  0.38795356  0.62932229  0.62741370  1
  O  O264  1  0.93643396  0.15662484  0.07627920  1
  O  O265  1  0.89011940  0.10523510  0.63889046  1
  O  O266  1  0.87908337  0.63425385  0.13132529  1
  O  O267  1  0.90254275  0.58692902  0.63204338  1
  O  O268  1  0.25582817  0.25669876  0.11646788  1
  O  O269  1  0.24643531  0.22165589  0.61705127  1
  O  O270  1  0.25686931  0.75239443  0.11631108  1
  O  O271  1  0.25226980  0.76752759  0.61240252  1
  O  O272  1  0.78878903  0.19343318  0.11263722  1
  O  O273  1  0.69968534  0.21450394  0.58435980  1
  O  O274  1  0.76175678  0.75501794  0.12369775  1
  O  O275  1  0.70848727  0.75579442  0.59018111  1
  O  O276  1  0.24592693  0.23144121  0.38083600  1
  O  O277  1  0.24374005  0.24981616  0.88738635  1
  O  O278  1  0.25229858  0.75223844  0.38148329  1
  O  O279  1  0.24389846  0.74729145  0.89243663  1
  O  O280  1  0.78830656  0.22744622  0.37981181  1
  O  O281  1  0.74560508  0.22190473  0.88129676  1
  O  O282  1  0.74568328  0.74993700  0.35258810  1
  O  O283  1  0.71980169  0.73441065  0.86798024  1
  O  O284  1  0.01862864  0.09883337  -0.04105792  1
  O  O285  1  0.01460670  0.11392099  0.51764403  1
  O  O286  1  0.00971749  0.61277341  0.00306601  1
  O  O287  1  -0.00943351  0.65471029  0.50021409  1
  O  O288  1  0.50925700  0.11675341  -0.00192132  1
  O  O289  1  0.50028306  0.10365499  0.48369508  1
  O  O290  1  0.50228994  0.61640050  0.00329836  1
  O  O291  1  0.50706213  0.63912244  0.51416649  1
  O  O292  1  0.52515862  0.38726405  0.49947076  1
  O  O293  1  0.51324121  0.38914058  0.98360904  1
  O  O294  1  0.49212141  0.87294497  0.48405767  1
  O  O295  1  0.49328718  0.88354230  1.00374788  1
  O  O296  1  1.03889236  0.38476628  0.47822141  1
  O  O297  1  0.97349108  0.35679115  1.00553077  1
  O  O298  1  1.01450846  0.87677920  0.50654328  1
  O  O299  1  1.00708802  0.87791334  0.99671693  1
  O  O300  1  0.51842108  0.50716953  0.39025278  1
  O  O301  1  0.49951673  0.50562660  0.88510085  1
  O  O302  1  0.48865321  0.98309975  0.38022520  1
  O  O303  1  0.48399377  0.99669649  0.88708051  1
  O  O304  1  0.99867917  0.49124643  0.36743597  1
  O  O305  1  0.96261648  0.51724391  0.84179227  1
  O  O306  1  1.00380279  0.99562074  0.39273632  1
  O  O307  1  1.01523211  0.97405698  0.88158920  1
  O  O308  1  0.01233537  0.02197007  0.11879857  1
  O  O309  1  0.01458255  -0.00685015  0.62180951  1
  O  O310  1  -0.01471140  0.51625053  0.12562175  1
  O  O311  1  -0.03939211  0.54429295  0.62681653  1
  O  O312  1  0.49647636  -0.00016610  0.11557890  1
  O  O313  1  0.49536713  -0.01002559  0.60070054  1
  O  O314  1  0.50952957  0.50660035  0.11402575  1
  O  O315  1  0.50216430  0.51497997  0.61707702  1
  O  O316  1  0.25592399  0.36507164  0.24384385  1
  O  O317  1  0.22091546  0.36714091  0.72954328  1
  O  O318  1  0.24869892  0.88055071  0.23756914  1
  O  O319  1  0.26003927  0.86823399  0.73663772  1
  O  O320  1  0.70246481  0.34434366  0.27561892  1
  O  O321  1  0.73971383  0.38090040  0.76308872  1
  O  O322  1  0.75231280  0.90708262  0.26205461  1
  O  O323  1  0.73283546  0.88475776  0.76047834  1
  O  O324  1  0.25129402  0.11459296  0.25576999  1
  O  O325  1  0.26088632  0.12809250  0.77096371  1
  O  O326  1  0.26933337  0.62902763  0.23840920  1
  O  O327  1  0.26615607  0.61330070  0.72134299  1
  O  O328  1  0.75053178  0.10369456  0.26744827  1
  O  O329  1  0.76208217  0.11477218  0.75948720  1
  O  O330  1  0.75602756  0.63034171  0.25406901  1
  O  O331  1  0.75451101  0.63387017  0.75116995  1
  O  O332  1  0.36484693  0.11628991  0.36410464  1
  O  O333  1  0.36361424  0.12178953  0.87241887  1
  O  O334  1  0.38180777  0.63009762  0.35663796  1
  O  O335  1  0.37038958  0.62320947  0.84890916  1
  O  O336  1  0.88464888  0.10511704  0.38588153  1
  O  O337  1  0.86702827  0.12033794  0.87434711  1
  O  O338  1  0.87031291  0.64652639  0.36020694  1
  O  O339  1  0.85447182  0.63810622  0.88284593  1
  O  O340  1  0.14172024  0.37461923  0.13007833  1
  O  O341  1  0.10006580  0.37590736  0.62568309  1
  O  O342  1  0.13716468  0.85862162  0.13823001  1
  O  O343  1  0.13850172  0.88189013  0.62746633  1
  O  O344  1  0.63090072  0.39172524  0.11298629  1
  O  O345  1  0.63127665  0.39623644  0.63389114  1
  O  O346  1  0.62706393  0.89540505  0.12561939  1
  O  O347  1  0.62127049  0.87905901  0.64319045  1
  O  O348  1  0.12341186  0.23959178  0.27311631  1
  O  O349  1  0.11394610  0.24966209  0.75975057  1
  O  O350  1  0.12786485  0.75746967  0.26214639  1
  O  O351  1  0.14412854  0.73999416  0.77034932  1
  O  O352  1  0.61679340  0.21863264  0.24263614  1
  O  O353  1  0.63344205  0.27087673  0.73783202  1
  O  O354  1  0.60879359  0.75695213  0.23036194  1
  O  O355  1  0.61017316  0.76074942  0.75669031  1
  O  O356  1  0.37227200  0.23766707  0.24588150  1
  O  O357  1  0.36262414  0.24787512  0.75238486  1
  O  O358  1  0.38591611  0.74319179  0.23600587  1
  O  O359  1  0.38459756  0.74958154  0.74798334  1
  O  O360  1  0.90914685  0.23696719  0.27586855  1
  O  O361  1  0.89163638  0.22870353  0.76048717  1
  O  O362  1  0.87823446  0.74197493  0.23207617  1
  O  O363  1  0.86320452  0.76667901  0.76817812  1
  O  O364  1  0.40158990  0.50113337  0.49921824  1
  O  O365  1  0.39045487  0.50174383  1.00289688  1
  O  O366  1  0.37526768  0.99237830  0.48852550  1
  O  O367  1  0.38376152  1.00731353  0.99478728  1
  O  O368  1  0.87691992  0.46142584  0.51047281  1
  O  O369  1  0.84146261  0.47028894  1.00068599  1
  O  O370  1  0.90031284  0.99223954  0.50051334  1
  O  O371  1  0.90268565  1.00230688  1.01673430  1
  O  O372  1  0.11509838  -0.01283537  0.00910832  1
  O  O373  1  0.11981530  -0.00013546  0.50680257  1
  O  O374  1  0.13318981  0.50822453  -0.01522226  1
  O  O375  1  0.10533434  0.54142703  0.51805699  1
  O  O376  1  0.60263445  -0.00021376  0.00436612  1
  O  O377  1  0.61429548  -0.01425819  0.49218724  1
  O  O378  1  0.61682552  0.51457275  0.00496273  1
  O  O379  1  0.61685680  0.51389959  0.51895743  1
  O  O380  1  0.37100558  0.35876044  0.13675236  1
  O  O381  1  0.38416358  0.37384454  0.59341579  1
  O  O382  1  0.36549367  0.86077783  0.12585790  1
  O  O383  1  0.36403204  0.88040304  0.61291841  1
  O  O384  1  0.85386999  0.35976026  0.18824519  1
  O  O385  1  0.85882730  0.37502708  0.64427243  1
  O  O386  1  0.88292286  0.86405907  0.12079364  1
  O  O387  1  0.83079852  0.84828118  0.52448980  1
  O  O388  1  0.13482228  0.11350912  0.38592601  1
  O  O389  1  0.14347094  0.13873959  0.86825930  1
  O  O390  1  0.11224960  0.65019433  0.39221375  1
  O  O391  1  0.11742444  0.63369811  0.88791688  1
  O  O392  1  0.65427215  0.12621975  0.38797028  1
  O  O393  1  0.63002976  0.11713030  0.88996495  1
  O  O394  1  0.62718844  0.64476946  0.37290171  1
  O  O395  1  0.62262581  0.62854153  0.88322622  1
