# generated using pymatgen
data_V35Zn35O128
_symmetry_space_group_name_H-M   'P 1'
_cell_length_a   16.93753975
_cell_length_b   16.94305237
_cell_length_c   16.95545246
_cell_angle_alpha   89.95881000
_cell_angle_beta   90.13348410
_cell_angle_gamma   89.89158319
_symmetry_Int_Tables_number   1
_chemical_formula_structural   V35Zn35O128
_chemical_formula_sum   'V70 Zn70 O256'
_cell_volume   4865.74443494
_cell_formula_units_Z   2
loop_
 _symmetry_equiv_pos_site_id
 _symmetry_equiv_pos_as_xyz
  1  'x, y, z'
loop_
 _atom_site_type_symbol
 _atom_site_label
 _atom_site_symmetry_multiplicity
 _atom_site_fract_x
 _atom_site_fract_y
 _atom_site_fract_z
 _atom_site_occupancy
  V  V0  1  0.50058277  0.25219852  0.73711067  1
  V  V1  1  0.47926154  0.48688307  0.47044507  1
  V  V2  1  0.25132850  0.10990224  0.36444369  1
  V  V3  1  0.74737879  0.49513067  0.74495314  1
  V  V4  1  0.61694508  0.11542817  0.50588883  1
  V  V5  1  0.62356223  0.52779494  0.07275133  1
  V  V6  1  0.88486864  0.49344296  0.87367685  1
  V  V7  1  0.74764658  0.25100019  0.50117394  1
  V  V8  1  0.13018873  0.00145467  0.61318919  1
  V  V9  1  -0.00654775  0.26009179  0.25103583  1
  V  V10  1  0.64031939  0.60251824  0.50338234  1
  V  V11  1  0.49985116  -0.00502448  0.51350805  1
  V  V12  1  0.73084101  0.01113090  0.74816188  1
  V  V13  1  0.86639133  0.02964226  0.85944995  1
  V  V14  1  0.27701746  0.86501491  0.09632118  1
  V  V15  1  0.61943378  0.86577043  0.25170599  1
  V  V16  1  0.75114250  0.10677200  0.37257131  1
  V  V17  1  0.38048272  0.11600501  0.71054987  1
  V  V18  1  0.37438430  0.87125263  0.50828506  1
  V  V19  1  0.75917616  0.88471171  0.12714030  1
  V  V20  1  0.63427320  0.25148814  0.87595595  1
  V  V21  1  0.48990417  0.36461792  0.88254240  1
  V  V22  1  0.47299710  0.87536294  0.88432821  1
  V  V23  1  0.13779833  0.48750094  0.63030692  1
  V  V24  1  0.85973423  0.61735075  0.25248128  1
  V  V25  1  0.37878289  0.03953074  0.91683170  1
  V  V26  1  -0.00314788  0.13250409  0.60076933  1
  V  V27  1  -0.02137645  0.01218996  0.00289460  1
  V  V28  1  0.88803119  0.76380595  0.62221522  1
  V  V29  1  0.63474089  0.12678063  -0.00469901  1
  V  V30  1  0.12718821  0.76718375  0.86331370  1
  V  V31  1  0.86385771  0.25234204  0.12656844  1
  V  V32  1  0.37198281  0.49451871  0.86230238  1
  V  V33  1  0.25570030  0.61962718  0.37489773  1
  V  V34  1  0.49293944  0.13155304  0.13661015  1
  V  V35  1  0.11738898  0.39049367  0.26197839  1
  V  V36  1  0.24401526  0.76186962  0.51524836  1
  V  V37  1  0.61233623  0.24513116  0.35944796  1
  V  V38  1  0.12917435  0.87377901  0.23786675  1
  V  V39  1  0.86893898  0.25831680  0.62546112  1
  V  V40  1  0.00072339  0.62542328  0.12932673  1
  V  V41  1  0.75420645  0.76290905  -0.00675948  1
  V  V42  1  0.38082411  0.25464545  0.14869235  1
  V  V43  1  0.12352699  0.24231208  0.37404630  1
  V  V44  1  0.25020630  0.37937268  0.13697414  1
  V  V45  1  0.12565047  0.62091409  0.50104387  1
  V  V46  1  0.73032592  0.88080498  0.63050426  1
  V  V47  1  0.88749873  0.75433930  0.11285457  1
  V  V48  1  0.61423266  -0.00076182  0.12146506  1
  V  V49  1  -0.05846890  0.79786026  0.30951007  1
  V  V50  1  0.74259045  0.76097229  0.49623731  1
  V  V51  1  -0.00961097  0.88932703  0.86237947  1
  V  V52  1  0.61681545  0.39811960  0.25071741  1
  V  V53  1  0.11463807  0.75851584  0.37451505  1
  V  V54  1  0.91913578  0.46290597  0.43390738  1
  V  V55  1  0.00012558  0.49931190  0.00218629  1
  V  V56  1  0.23413069  0.61148682  0.87787424  1
  V  V57  1  0.88512883  0.63783196  0.75806213  1
  V  V58  1  0.39175469  -0.00890689  0.35529389  1
  V  V59  1  0.87345347  0.11001042  0.25189534  1
  V  V60  1  0.12783134  0.36364404  0.77314891  1
  V  V61  1  0.35183913  0.36171182  0.49494227  1
  V  V62  1  -0.00075337  0.61441823  0.62679340  1
  V  V63  1  0.62872824  0.76873114  0.86042822  1
  V  V64  1  0.13288409  0.50836347  0.12351720  1
  V  V65  1  -0.01269367  -0.00790982  0.47681773  1
  V  V66  1  0.86581270  0.37544835  0.00137012  1
  V  V67  1  -0.00235040  0.24605826  0.76649495  1
  V  V68  1  0.23423641  0.23773180  0.01813849  1
  V  V69  1  0.74847780  0.62984095  0.87640784  1
  Zn  Zn70  1  0.37868404  0.63512005  0.74324809  1
  Zn  Zn71  1  0.18891343  0.20545993  0.53641313  1
  Zn  Zn72  1  0.36540953  0.62449170  0.25729684  1
  Zn  Zn73  1  0.37562575  0.37071089  0.00874923  1
  Zn  Zn74  1  0.25173612  0.00329794  0.75631090  1
  Zn  Zn75  1  0.74928329  0.39705009  0.14325214  1
  Zn  Zn76  1  0.18943615  0.17575746  0.17728641  1
  Zn  Zn77  1  0.17426512  0.16351196  0.70854376  1
  Zn  Zn78  1  0.19035223  0.69781503  0.18752776  1
  Zn  Zn79  1  0.18786093  0.68201538  0.69806010  1
  Zn  Zn80  1  0.69277280  0.18072936  0.18613819  1
  Zn  Zn81  1  0.67990104  0.18872501  0.68664469  1
  Zn  Zn82  1  0.67765473  0.68339519  0.16694103  1
  Zn  Zn83  1  0.69144142  0.68711718  0.68062078  1
  Zn  Zn84  1  0.30543343  0.32073467  0.31697726  1
  Zn  Zn85  1  0.32198972  0.22211604  0.83545710  1
  Zn  Zn86  1  0.30526145  0.81232036  0.32860507  1
  Zn  Zn87  1  0.31126152  0.78007837  0.81719288  1
  Zn  Zn88  1  0.79320496  0.30430451  0.30960463  1
  Zn  Zn89  1  0.81686017  0.31010097  0.81020954  1
  Zn  Zn90  1  0.75861274  0.76069415  0.28684106  1
  Zn  Zn91  1  0.81618020  0.82482752  0.80628325  1
  Zn  Zn92  1  0.19027849  0.43727225  0.44500631  1
  Zn  Zn93  1  0.19581172  0.43351466  0.94735243  1
  Zn  Zn94  1  0.17444991  0.94193845  0.44020929  1
  Zn  Zn95  1  0.25059171  0.90176753  0.89546040  1
  Zn  Zn96  1  0.69283926  0.42161629  0.42346971  1
  Zn  Zn97  1  0.69003896  0.43600849  0.92037500  1
  Zn  Zn98  1  0.68889368  0.92783247  0.43938608  1
  Zn  Zn99  1  0.69411133  0.94586528  0.93773792  1
  Zn  Zn100  1  0.30163190  0.05473489  0.09873357  1
  Zn  Zn101  1  0.31162560  0.06716336  0.54177619  1
  Zn  Zn102  1  0.34493468  0.57388934  0.03522218  1
  Zn  Zn103  1  0.35686391  0.48097354  0.64287181  1
  Zn  Zn104  1  0.81349594  0.07025257  0.06194803  1
  Zn  Zn105  1  0.81356486  0.06230052  0.56441700  1
  Zn  Zn106  1  0.81180476  0.56760784  0.06022405  1
  Zn  Zn107  1  0.80861804  0.56838560  0.56615070  1
  Zn  Zn108  1  0.45782779  0.44383960  0.17678949  1
  Zn  Zn109  1  0.30579383  0.30386799  0.67175521  1
  Zn  Zn110  1  0.43674325  0.91901716  0.17053009  1
  Zn  Zn111  1  0.38335851  0.89113723  0.72069421  1
  Zn  Zn112  1  0.93352576  0.44127538  0.18840567  1
  Zn  Zn113  1  0.93711867  0.43033982  0.69070805  1
  Zn  Zn114  1  0.94897428  0.93308063  0.18770036  1
  Zn  Zn115  1  0.93532855  0.95326229  0.68276758  1
  Zn  Zn116  1  0.06417017  0.06806438  0.29236930  1
  Zn  Zn117  1  0.04363751  0.04518012  0.78174546  1
  Zn  Zn118  1  0.05451231  0.57087649  0.31310333  1
  Zn  Zn119  1  0.06421811  0.55299273  0.80750523  1
  Zn  Zn120  1  0.57325493  0.04936477  0.30827909  1
  Zn  Zn121  1  0.54554276  0.06125169  0.81318914  1
  Zn  Zn122  1  0.56424479  0.57898078  0.32804397  1
  Zn  Zn123  1  0.55488112  0.55498245  0.81347977  1
  Zn  Zn124  1  0.42817344  0.17769413  0.42841369  1
  Zn  Zn125  1  0.45262647  0.20580490  0.96821354  1
  Zn  Zn126  1  0.50442342  0.62400550  0.62618039  1
  Zn  Zn127  1  0.50352223  0.75546411  0.74132389  1
  Zn  Zn128  1  0.93128441  0.19327812  0.43004849  1
  Zn  Zn129  1  0.93588992  0.18483415  0.94839377  1
  Zn  Zn130  1  0.92184148  0.66284644  0.45141432  1
  Zn  Zn131  1  0.97968092  0.71331501  0.95706360  1
  Zn  Zn132  1  0.05538878  0.31957175  0.07226460  1
  Zn  Zn133  1  0.03996602  0.32853603  0.54557507  1
  Zn  Zn134  1  0.11014605  0.84662118  0.02369246  1
  Zn  Zn135  1  0.05867546  0.82192171  0.56508293  1
  Zn  Zn136  1  0.57318650  0.31438873  0.06634684  1
  Zn  Zn137  1  0.51957308  0.29114860  0.52874393  1
  Zn  Zn138  1  0.57198551  0.81779636  0.04684709  1
  Zn  Zn139  1  0.55608682  0.81016602  0.56186519  1
  O  O140  1  0.09769317  0.11689095  0.19003689  1
  O  O141  1  0.10448562  0.13579810  0.60727941  1
  O  O142  1  0.11827707  0.61466870  0.13628268  1
  O  O143  1  0.11555068  0.61383438  0.62727338  1
  O  O144  1  0.62884189  0.11015300  0.12186144  1
  O  O145  1  0.62563154  0.12396651  0.60325494  1
  O  O146  1  0.62397433  0.62850111  0.08871361  1
  O  O147  1  0.62387761  0.62979156  0.60925584  1
  O  O148  1  0.36519465  0.37502985  0.39300264  1
  O  O149  1  0.38768344  0.35512405  0.88008008  1
  O  O150  1  0.36259389  0.89178071  0.38902132  1
  O  O151  1  0.37815110  0.85009574  0.90399735  1
  O  O152  1  0.85978815  0.38371323  0.37382715  1
  O  O153  1  0.87603834  0.38729053  0.88201295  1
  O  O154  1  0.88378925  0.85833870  0.35521906  1
  O  O155  1  0.88680941  0.89483036  0.86699018  1
  O  O156  1  0.24045622  0.00901374  0.37298060  1
  O  O157  1  0.28690761  0.01171644  0.87931748  1
  O  O158  1  0.23407455  0.52145066  0.38315197  1
  O  O159  1  0.25182205  0.50400472  0.87420755  1
  O  O160  1  0.74965761  0.00885342  0.37924643  1
  O  O161  1  0.75975521  -0.00112065  0.85929869  1
  O  O162  1  0.81072070  0.45107118  0.39156077  1
  O  O163  1  0.76765834  0.51843292  0.87196441  1
  O  O164  1  0.23383455  0.49727697  0.12219213  1
  O  O165  1  0.23516199  0.49587364  0.63294498  1
  O  O166  1  0.25934864  0.95857458  0.13809420  1
  O  O167  1  0.23126095  1.01301976  0.60368065  1
  O  O168  1  0.72587917  0.50441209  0.10312033  1
  O  O169  1  0.75838243  0.50887448  0.64573170  1
  O  O170  1  0.75729815  0.98582140  0.11864634  1
  O  O171  1  0.75079186  0.99077355  0.63368135  1
  O  O172  1  0.00600995  0.37304249  0.24872327  1
  O  O173  1  0.01042115  0.35469638  0.74116352  1
  O  O174  1  0.00401997  0.85639399  0.25112306  1
  O  O175  1  0.01404388  0.92125156  0.76638557  1
  O  O176  1  0.51707739  0.37581239  0.24699934  1
  O  O177  1  0.50281806  0.35006230  0.76715541  1
  O  O178  1  0.52149296  0.86677494  0.22770462  1
  O  O179  1  0.48552804  0.87271943  0.77749012  1
  O  O180  1  0.51627810  0.11682314  0.23253512  1
  O  O181  1  0.48214517  0.13197906  0.74807844  1
  O  O182  1  0.48656578  0.65702068  0.26826735  1
  O  O183  1  0.50279760  0.63102714  0.75004624  1
  O  O184  1  0.97357748  0.14570830  0.25986046  1
  O  O185  1  1.00234443  0.14593771  0.73216107  1
  O  O186  1  0.98496904  0.62407065  0.23437137  1
  O  O187  1  0.99214554  0.62195589  0.74205480  1
  O  O188  1  0.36303741  0.25281614  0.03061136  1
  O  O189  1  0.40623033  0.26668330  0.49852764  1
  O  O190  1  0.49907161  0.74872205  0.10736363  1
  O  O191  1  0.35294947  0.76748820  0.49648983  1
  O  O192  1  0.88386335  0.25971213  0.02034700  1
  O  O193  1  0.85382866  0.24679012  0.50163433  1
  O  O194  1  0.87726696  0.75258655  0.00767379  1
  O  O195  1  0.86778785  0.74294440  0.52096922  1
  O  O196  1  0.10720677  0.26252202  0.47606515  1
  O  O197  1  0.13430411  0.25465264  1.02626496  1
  O  O198  1  0.12557905  0.74924500  0.49750734  1
  O  O199  1  0.09108732  0.74681385  0.96681682  1
  O  O200  1  0.62225770  0.22912173  0.48583118  1
  O  O201  1  0.62610235  0.23925845  0.98997032  1
  O  O202  1  0.64159559  0.76664655  0.49957148  1
  O  O203  1  0.65096695  0.75557927  0.98289639  1
  O  O204  1  0.48997219  0.24430056  0.13312948  1
  O  O205  1  0.51986115  0.25931476  0.63972009  1
  O  O206  1  0.47996875  0.68196163  0.06568461  1
  O  O207  1  0.50125106  0.74149577  0.62650997  1
  O  O208  1  0.98556681  0.25752392  0.14312733  1
  O  O209  1  0.98169159  0.24682620  0.60673209  1
  O  O210  1  0.98837207  0.74229515  0.11592960  1
  O  O211  1  0.99150237  0.74524255  0.62583103  1
  O  O212  1  0.00248116  0.25416378  0.36117346  1
  O  O213  1  -0.01722980  0.24570000  0.86422326  1
  O  O214  1  0.00205416  0.74434847  0.38246107  1
  O  O215  1  -0.00413335  0.78603702  0.86153087  1
  O  O216  1  0.51432930  0.23132763  0.36949978  1
  O  O217  1  0.50970666  0.25135102  0.87421404  1
  O  O218  1  0.46812463  0.73296897  0.29053179  1
  O  O219  1  0.52703234  0.76714446  0.87796008  1
  O  O220  1  0.25567598  0.13968076  0.47090145  1
  O  O221  1  0.23637939  0.14055237  1.06002385  1
  O  O222  1  0.23048443  0.64149801  0.49609211  1
  O  O223  1  0.26315745  0.62527863  0.97501438  1
  O  O224  1  0.73680694  0.12252187  0.48892051  1
  O  O225  1  0.73513154  0.13009670  1.00499199  1
  O  O226  1  0.74206014  0.64987443  0.51502487  1
  O  O227  1  0.76894855  0.64301447  0.97997369  1
  O  O228  1  0.24727317  0.36321435  0.02554257  1
  O  O229  1  0.25024379  0.35566091  0.49812330  1
  O  O230  1  0.22635269  0.87386553  0.00300448  1
  O  O231  1  0.24631686  0.86752811  0.49843257  1
  O  O232  1  0.76517202  0.37894778  -0.00812150  1
  O  O233  1  0.72807758  0.34709039  0.50540620  1
  O  O234  1  0.75981813  0.86775680  0.00352379  1
  O  O235  1  0.75306883  0.87355106  0.51950026  1
  O  O236  1  0.11287051  0.49525039  0.24198639  1
  O  O237  1  0.11210071  0.47534898  0.73695276  1
  O  O238  1  0.10986924  0.97007840  0.25479789  1
  O  O239  1  0.14432932  1.04338716  0.72720538  1
  O  O240  1  0.61836954  0.49915522  0.26347264  1
  O  O241  1  0.64947829  0.50976157  0.76751402  1
  O  O242  1  0.63113602  0.98546032  0.22698189  1
  O  O243  1  0.63192476  1.00452233  0.76192651  1
  O  O244  1  0.38556197  -0.02093960  0.25665963  1
  O  O245  1  0.37148087  0.01441604  0.72045174  1
  O  O246  1  0.37535480  0.52244356  0.19841073  1
  O  O247  1  0.36086913  0.46768687  0.76636562  1
  O  O248  1  0.88497253  0.01306243  0.24273923  1
  O  O249  1  0.86847450  0.01440245  0.75687030  1
  O  O250  1  0.86245047  0.51788470  0.23438324  1
  O  O251  1  0.87579137  0.50813426  0.75935084  1
  O  O252  1  0.12414666  0.38125210  0.36314918  1
  O  O253  1  0.12558806  0.38144137  0.87120872  1
  O  O254  1  0.11853761  0.85950598  0.37574856  1
  O  O255  1  0.13534066  0.86838653  0.86141339  1
  O  O256  1  0.62396637  0.35530130  0.36090692  1
  O  O257  1  0.61764133  0.35577508  0.87897023  1
  O  O258  1  0.63055679  0.88396306  0.34975787  1
  O  O259  1  0.64889568  0.86666971  0.86746263  1
  O  O260  1  0.38705687  0.13621946  0.13824932  1
  O  O261  1  0.37668164  0.13230436  0.61233918  1
  O  O262  1  0.38779351  0.58755142  0.14157490  1
  O  O263  1  0.39753075  0.58416105  0.64277528  1
  O  O264  1  0.86494848  0.14140120  0.14131255  1
  O  O265  1  0.88694294  0.13772234  0.61758997  1
  O  O266  1  0.87694358  0.63977457  0.12932201  1
  O  O267  1  0.88798449  0.63381695  0.63769846  1
  O  O268  1  0.25938266  0.26349452  0.13944278  1
  O  O269  1  0.23010549  0.23093966  0.63508293  1
  O  O270  1  0.25613415  0.76953125  0.13256773  1
  O  O271  1  0.23488923  0.74754119  0.61328180  1
  O  O272  1  0.76264469  0.25644552  0.13190635  1
  O  O273  1  0.75817996  0.23672910  0.61425666  1
  O  O274  1  0.76066286  0.75696578  0.10412762  1
  O  O275  1  0.76091556  0.76869421  0.62597552  1
  O  O276  1  0.22481332  0.25269960  0.36499600  1
  O  O277  1  0.24899069  0.23402287  0.91845537  1
  O  O278  1  0.22933621  0.74167642  0.38913325  1
  O  O279  1  0.22874333  0.73991152  0.88122844  1
  O  O280  1  0.73832071  0.23655481  0.38744429  1
  O  O281  1  0.73354786  0.25015793  0.86269704  1
  O  O282  1  0.76211247  0.76371219  0.39878328  1
  O  O283  1  0.75992092  0.74818280  0.87703223  1
  O  O284  1  0.00438579  0.11051778  0.00059015  1
  O  O285  1  -0.00657899  0.12220469  0.49815296  1
  O  O286  1  -0.00890705  0.61148477  0.01628595  1
  O  O287  1  0.01500204  0.63525802  0.52039207  1
  O  O288  1  0.51973817  0.13194692  0.02842234  1
  O  O289  1  0.50916174  0.10922802  0.48985629  1
  O  O290  1  0.41469821  0.68525012  0.02552009  1
  O  O291  1  0.52670599  0.56585457  0.52072499  1
  O  O292  1  0.52787316  0.39969056  0.49377497  1
  O  O293  1  0.49905840  0.35783345  0.98946071  1
  O  O294  1  0.48581594  0.88140677  0.49954795  1
  O  O295  1  0.52291375  0.88663351  0.97315519  1
  O  O296  1  0.96831290  0.40071255  0.49558407  1
  O  O297  1  0.98596002  0.39129816  1.01200910  1
  O  O298  1  1.00032589  0.89238933  0.49567617  1
  O  O299  1  1.02811653  0.91651187  0.96651506  1
  O  O300  1  0.48517735  0.50802333  0.37190964  1
  O  O301  1  0.48917150  0.47303010  0.86527206  1
  O  O302  1  0.49247088  0.99621442  0.37233466  1
  O  O303  1  0.46575808  0.99233220  0.87314419  1
  O  O304  1  0.98602139  0.50092081  0.37007981  1
  O  O305  1  0.99183953  0.50810228  0.88744426  1
  O  O306  1  1.00373987  1.01082767  0.37917453  1
  O  O307  1  0.97784568  1.01744835  0.87488902  1
  O  O308  1  -0.01390100  -0.00961498  0.10017538  1
  O  O309  1  0.00501462  0.02258824  0.62107918  1
  O  O310  1  0.00612812  0.50760978  0.12098493  1
  O  O311  1  -0.00220884  0.51331749  0.62747866  1
  O  O312  1  0.51161872  0.00573455  0.12168055  1
  O  O313  1  0.50221302  -0.00157296  0.60817442  1
  O  O314  1  0.53420964  0.49520912  0.10890533  1
  O  O315  1  0.57444583  0.43717182  0.64762985  1
  O  O316  1  0.23107544  0.37980783  0.24589021  1
  O  O317  1  0.22400018  0.35508092  0.74812382  1
  O  O318  1  0.22826164  0.86183249  0.26003131  1
  O  O319  1  0.27846170  0.88966185  0.77759425  1
  O  O320  1  0.72948676  0.37960219  0.25641923  1
  O  O321  1  0.75911100  0.39591892  0.76105559  1
  O  O322  1  0.74569208  0.86936941  0.22722888  1
  O  O323  1  0.75411891  0.88905995  0.73603756  1
  O  O324  1  0.25157958  0.13080087  0.26559848  1
  O  O325  1  0.28377560  0.13340508  0.75952067  1
  O  O326  1  0.24665273  0.63713574  0.26926488  1
  O  O327  1  0.26165430  0.63416186  0.77235563  1
  O  O328  1  0.76028683  0.12288443  0.26169773  1
  O  O329  1  0.74469524  0.10946515  0.73772298  1
  O  O330  1  0.75886837  0.64532380  0.24237681  1
  O  O331  1  0.76857701  0.62370099  0.75902428  1
  O  O332  1  0.36544503  0.10014486  0.37016158  1
  O  O333  1  0.38783121  0.13944226  0.89655301  1
  O  O334  1  0.35413557  0.62584259  0.38075088  1
  O  O335  1  0.38032245  0.59447283  0.86209565  1
  O  O336  1  0.85949760  0.12840176  0.36442090  1
  O  O337  1  0.86216381  0.12779369  0.87589371  1
  O  O338  1  0.87690161  0.63514096  0.35004809  1
  O  O339  1  0.88058543  0.62454119  0.86149528  1
  O  O340  1  0.12836810  0.38958306  0.13958189  1
  O  O341  1  0.11620153  0.39202848  0.60516655  1
  O  O342  1  0.11724622  0.85869413  0.13788259  1
  O  O343  1  0.11517397  0.90332662  0.62880965  1
  O  O344  1  0.63214790  0.37263775  0.14200711  1
  O  O345  1  0.63084869  0.39392775  0.63596832  1
  O  O346  1  0.63995505  0.88502608  0.11689724  1
  O  O347  1  0.63235302  0.87601874  0.62827210  1
  O  O348  1  0.10709940  0.26784907  0.25840794  1
  O  O349  1  0.10885693  0.25211098  0.76489280  1
  O  O350  1  0.11719691  0.74839735  0.27119700  1
  O  O351  1  0.11336845  0.73510694  0.76749900  1
  O  O352  1  0.62949057  0.23924806  0.26007124  1
  O  O353  1  0.60982115  0.22852757  0.76743147  1
  O  O354  1  0.64275734  0.76235280  0.24321777  1
  O  O355  1  0.63157336  0.74938499  0.75890909  1
  O  O356  1  0.37234933  0.25679964  0.24769725  1
  O  O357  1  0.38679123  0.24309484  0.74072987  1
  O  O358  1  0.39075970  0.74791482  0.26481428  1
  O  O359  1  0.38498146  0.75297141  0.74153655  1
  O  O360  1  0.87916224  0.26291409  0.24301876  1
  O  O361  1  0.88353822  0.25304889  0.73433451  1
  O  O362  1  0.87598213  0.74654174  0.23752330  1
  O  O363  1  0.87384605  0.74129671  0.74152021  1
  O  O364  1  0.38088799  0.47391383  0.50260583  1
  O  O365  1  0.36642211  0.47952575  0.97583168  1
  O  O366  1  0.38807778  0.99382593  0.49042047  1
  O  O367  1  0.37639002  1.02362938  1.01453027  1
  O  O368  1  0.88749118  0.54667173  0.48990233  1
  O  O369  1  0.87998707  0.49538342  0.99358993  1
  O  O370  1  0.88810379  1.00586818  0.49874085  1
  O  O371  1  0.87395730  1.01043124  0.98335360  1
  O  O372  1  0.15024941  0.06989039  -0.05723591  1
  O  O373  1  0.10612422  0.00700159  0.50708789  1
  O  O374  1  0.11570369  0.49309506  0.01768716  1
  O  O375  1  0.12819158  0.51688930  0.51197609  1
  O  O376  1  0.63417410  0.01030967  0.01169045  1
  O  O377  1  0.61179469  0.00421282  0.48928093  1
  O  O378  1  0.62209773  0.51106446  -0.02767433  1
  O  O379  1  0.67755688  0.50988248  0.49009836  1
  O  O380  1  0.37026052  0.36837877  0.13597809  1
  O  O381  1  0.36780071  0.37342703  0.60859368  1
  O  O382  1  0.37880057  0.86630833  0.08977268  1
  O  O383  1  0.36652760  0.88402658  0.60564310  1
  O  O384  1  0.86490300  0.37241056  0.12046907  1
  O  O385  1  0.87223132  0.35879933  0.62310845  1
  O  O386  1  0.86926966  0.86167193  0.12898805  1
  O  O387  1  0.88504750  0.86440778  0.63267314  1
  O  O388  1  0.12887469  0.13835069  0.36814711  1
  O  O389  1  0.12861146  0.11752947  0.89234096  1
  O  O390  1  0.11460663  0.63290646  0.39283961  1
  O  O391  1  0.13210149  0.61288956  0.87569514  1
  O  O392  1  0.63737372  0.12433346  0.37258145  1
  O  O393  1  0.61315739  0.12453481  0.89309857  1
  O  O394  1  0.61486070  0.63684861  0.41104366  1
  O  O395  1  0.64892561  0.64091059  0.87127642  1
