# generated using pymatgen
data_V35Zn35O128
_symmetry_space_group_name_H-M   'P 1'
_cell_length_a   16.84607664
_cell_length_b   16.89555292
_cell_length_c   16.86868619
_cell_angle_alpha   90.04357680
_cell_angle_beta   90.07258926
_cell_angle_gamma   89.97799587
_symmetry_Int_Tables_number   1
_chemical_formula_structural   V35Zn35O128
_chemical_formula_sum   'V70 Zn70 O256'
_cell_volume   4801.22362322
_cell_formula_units_Z   2
loop_
 _symmetry_equiv_pos_site_id
 _symmetry_equiv_pos_as_xyz
  1  'x, y, z'
loop_
 _atom_site_type_symbol
 _atom_site_label
 _atom_site_symmetry_multiplicity
 _atom_site_fract_x
 _atom_site_fract_y
 _atom_site_fract_z
 _atom_site_occupancy
  V  V0  1  0.87499206  0.75291593  0.60950706  1
  V  V1  1  0.50773063  0.75100251  0.77082757  1
  V  V2  1  0.13717150  -0.00234033  0.12565442  1
  V  V3  1  0.23815744  0.50005134  0.22530247  1
  V  V4  1  0.61236339  0.85035038  0.24384488  1
  V  V5  1  0.00502975  0.35209533  0.37321052  1
  V  V6  1  0.75695419  0.37337129  0.12247968  1
  V  V7  1  0.00074745  0.50990488  0.48629490  1
  V  V8  1  0.62057984  0.10881177  -0.00056016  1
  V  V9  1  0.62819101  0.88597253  0.75041386  1
  V  V10  1  0.51988498  0.00882132  0.48958114  1
  V  V11  1  0.13716662  0.13685307  0.48791349  1
  V  V12  1  0.62424699  0.51049193  0.61593318  1
  V  V13  1  0.73807992  -0.01507953  0.23974335  1
  V  V14  1  0.72910420  0.74825577  0.49534535  1
  V  V15  1  0.48320159  0.49596117  0.49511026  1
  V  V16  1  0.00574539  0.75683426  0.24677843  1
  V  V17  1  -0.00741879  0.13105274  0.61882451  1
  V  V18  1  0.73497200  0.74960577  -0.00386734  1
  V  V19  1  0.74187875  0.24439794  -0.00597507  1
  V  V20  1  0.86407939  0.01251023  0.86045544  1
  V  V21  1  0.12682219  0.48886477  0.62872817  1
  V  V22  1  0.39010382  0.73809612  0.14333977  1
  V  V23  1  0.39831864  0.13866128  0.75645611  1
  V  V24  1  0.38889717  0.00425266  0.88334133  1
  V  V25  1  0.38698651  0.50250821  0.86876821  1
  V  V26  1  0.62643761  0.50223364  0.10976181  1
  V  V27  1  0.72315235  0.62286002  0.37591315  1
  V  V28  1  0.86130195  0.12078941  0.26376501  1
  V  V29  1  0.50165927  0.11249570  0.13490056  1
  V  V30  1  -0.00639405  0.00081215  0.00134082  1
  V  V31  1  0.87733899  0.63694693  0.74786709  1
  V  V32  1  0.86702726  0.87450466  0.00118004  1
  V  V33  1  0.47852043  0.63607572  0.62536514  1
  V  V34  1  0.26807860  0.87637017  0.63238967  1
  V  V35  1  0.87167306  0.75106920  0.11969090  1
  V  V36  1  0.87513468  0.24818612  0.12979320  1
  V  V37  1  0.12000924  0.86945114  0.75174953  1
  V  V38  1  0.75982710  0.49835506  0.25353503  1
  V  V39  1  0.50448391  0.36293743  0.89061379  1
  V  V40  1  0.89232573  0.49850443  0.88222027  1
  V  V41  1  0.12729023  0.60833561  0.00025085  1
  V  V42  1  0.00662838  0.62613507  0.62504076  1
  V  V43  1  0.35834887  0.49318766  0.37484743  1
  V  V44  1  0.40160969  0.24848283  0.62181519  1
  V  V45  1  0.86984507  -0.02850870  0.38041062  1
  V  V46  1  0.13736135  0.75697865  0.89221906  1
  V  V47  1  0.25239562  0.35057693  0.62041184  1
  V  V48  1  0.61377403  0.37323537  0.74997619  1
  V  V49  1  0.75214467  0.49518216  0.74286341  1
  V  V50  1  0.12766154  0.12901474  -0.01444020  1
  V  V51  1  0.61939794  0.24422409  0.37157208  1
  V  V52  1  -0.00073366  0.12115872  0.14076743  1
  V  V53  1  0.74932217  0.23493745  0.49004681  1
  V  V54  1  0.36967918  0.86117769  0.00735612  1
  V  V55  1  0.23766884  0.63150751  0.37103994  1
  V  V56  1  0.87095473  0.37875855  0.50042391  1
  V  V57  1  0.49243466  0.85830413  0.38113947  1
  V  V58  1  0.73755439  0.62889734  0.87445642  1
  V  V59  1  0.12257278  0.36481007  0.24091492  1
  V  V60  1  0.11632677  -0.00197902  0.61406838  1
  V  V61  1  0.25606297  0.74275013  0.51850018  1
  V  V62  1  0.25764562  0.00235511  0.27022969  1
  V  V63  1  -0.00443587  0.87144335  0.87283700  1
  V  V64  1  0.24383932  0.01796102  0.75928751  1
  V  V65  1  -0.00113069  0.61092300  0.11582489  1
  V  V66  1  0.38262335  0.26888072  0.11455295  1
  V  V67  1  0.87970943  0.62631093  0.26325043  1
  V  V68  1  0.13688588  0.87000038  0.25012366  1
  V  V69  1  0.61437935  0.37683600  0.25615168  1
  Zn  Zn70  1  0.12312798  0.36771029  0.76533864  1
  Zn  Zn71  1  0.74244670  0.87009704  0.61710466  1
  Zn  Zn72  1  0.00861401  0.88019065  0.39657504  1
  Zn  Zn73  1  0.37294283  0.12689893  0.24629346  1
  Zn  Zn74  1  -0.00468133  0.25336946  0.74871594  1
  Zn  Zn75  1  0.85906619  0.25371541  0.63501585  1
  Zn  Zn76  1  0.19745734  0.18678218  0.19224533  1
  Zn  Zn77  1  0.17097427  0.19150204  0.69098820  1
  Zn  Zn78  1  0.19356403  0.68135674  0.17746203  1
  Zn  Zn79  1  0.19444262  0.68493243  0.70122609  1
  Zn  Zn80  1  0.68287442  0.18577610  0.19091535  1
  Zn  Zn81  1  0.67478359  0.20437542  0.67243109  1
  Zn  Zn82  1  0.68607784  0.68281900  0.18188309  1
  Zn  Zn83  1  0.68382303  0.68946939  0.68639992  1
  Zn  Zn84  1  0.32758138  0.33383605  0.28713094  1
  Zn  Zn85  1  0.33397673  0.34530484  0.78565603  1
  Zn  Zn86  1  0.32452961  0.80551470  0.30854611  1
  Zn  Zn87  1  0.31468482  0.82589103  0.81054167  1
  Zn  Zn88  1  0.81748565  0.31256376  0.31673385  1
  Zn  Zn89  1  0.82216223  0.31339192  0.81536060  1
  Zn  Zn90  1  0.80024946  0.80395300  0.30879534  1
  Zn  Zn91  1  0.80032039  0.82132415  0.81074205  1
  Zn  Zn92  1  0.18236580  0.43113886  0.44262213  1
  Zn  Zn93  1  0.21960627  0.44131644  0.98030173  1
  Zn  Zn94  1  0.19749811  0.90986801  0.44265215  1
  Zn  Zn95  1  0.19347552  0.94188592  0.94112899  1
  Zn  Zn96  1  0.68650880  0.44131527  0.43628104  1
  Zn  Zn97  1  0.69888823  0.43240197  0.92987066  1
  Zn  Zn98  1  0.68196760  0.93081348  0.42465722  1
  Zn  Zn99  1  0.68250211  0.93915742  0.93238412  1
  Zn  Zn100  1  0.31523821  0.08200466  0.05837138  1
  Zn  Zn101  1  0.31481490  0.06903503  0.57508819  1
  Zn  Zn102  1  0.31826509  0.57303401  0.03513835  1
  Zn  Zn103  1  0.30572875  0.56475400  0.55925425  1
  Zn  Zn104  1  0.80671241  0.06215452  0.06516936  1
  Zn  Zn105  1  0.82406160  0.06853792  0.53527831  1
  Zn  Zn106  1  0.80993800  0.56375775  0.05949461  1
  Zn  Zn107  1  0.81462119  0.56445727  0.55534211  1
  Zn  Zn108  1  0.43821844  0.46033840  0.18204028  1
  Zn  Zn109  1  0.43466704  0.44399154  0.68671099  1
  Zn  Zn110  1  0.43621520  0.92779051  0.18589032  1
  Zn  Zn111  1  0.44607963  0.94340822  0.70834951  1
  Zn  Zn112  1  0.94081089  0.43556317  0.19413833  1
  Zn  Zn113  1  0.94154906  0.43637028  0.68864810  1
  Zn  Zn114  1  0.93100748  0.93800584  0.18952851  1
  Zn  Zn115  1  0.93311947  0.93498642  0.68163870  1
  Zn  Zn116  1  0.06001808  0.05261312  0.32107692  1
  Zn  Zn117  1  0.05046842  0.06057426  0.80567641  1
  Zn  Zn118  1  0.06797515  0.56617508  0.30483531  1
  Zn  Zn119  1  0.07909258  0.57225689  0.80965017  1
  Zn  Zn120  1  0.55834849  0.05850607  0.31472746  1
  Zn  Zn121  1  0.57258407  0.06724352  0.81609485  1
  Zn  Zn122  1  0.54974810  0.55734872  0.30005697  1
  Zn  Zn123  1  0.55651945  0.56180339  0.80684844  1
  Zn  Zn124  1  0.45470624  0.20155735  0.45045085  1
  Zn  Zn125  1  0.44198551  0.18721663  0.94260039  1
  Zn  Zn126  1  0.42924773  0.67862707  0.43847449  1
  Zn  Zn127  1  0.40589780  0.71104203  0.89101409  1
  Zn  Zn128  1  0.94241094  0.18111026  0.44383746  1
  Zn  Zn129  1  0.93256626  0.18337575  0.94779296  1
  Zn  Zn130  1  0.95809264  0.71105868  0.44634696  1
  Zn  Zn131  1  0.93883096  0.68563440  0.93354473  1
  Zn  Zn132  1  0.06386974  0.30473342  0.06812259  1
  Zn  Zn133  1  0.06353558  0.31133548  0.55275549  1
  Zn  Zn134  1  0.05734293  0.81610084  0.06776745  1
  Zn  Zn135  1  0.07874595  0.80926600  0.55726754  1
  Zn  Zn136  1  0.56116940  0.30795776  0.07356693  1
  Zn  Zn137  1  0.57485145  0.32380636  0.55913081  1
  Zn  Zn138  1  0.54739397  0.82342616  0.05835816  1
  Zn  Zn139  1  0.55553769  0.81944525  0.56714432  1
  O  O140  1  0.11119402  0.11253852  0.13196907  1
  O  O141  1  0.12058789  0.10788701  0.61307365  1
  O  O142  1  0.10951797  0.62813716  0.11194061  1
  O  O143  1  0.10805029  0.62602201  0.62955373  1
  O  O144  1  0.61046743  0.12984301  0.12357182  1
  O  O145  1  0.64271991  0.09919075  0.62533122  1
  O  O146  1  0.63167802  0.60225387  0.12753246  1
  O  O147  1  0.61676457  0.61281386  0.62755498  1
  O  O148  1  0.36108200  0.39068442  0.37963431  1
  O  O149  1  0.39589561  0.37897401  0.87594487  1
  O  O150  1  0.39109327  0.87419674  0.36840891  1
  O  O151  1  0.36624820  0.89955113  0.88319074  1
  O  O152  1  0.89349819  0.37149225  0.38326690  1
  O  O153  1  0.87253264  0.40023181  0.86997656  1
  O  O154  1  0.87622516  0.87008958  0.36532294  1
  O  O155  1  0.87855133  0.88155886  0.88161776  1
  O  O156  1  0.24961055  -0.01583895  0.36820737  1
  O  O157  1  0.24869181  0.00560576  0.86090337  1
  O  O158  1  0.25024316  0.50849625  0.38799157  1
  O  O159  1  0.32084636  0.48726666  0.95978635  1
  O  O160  1  0.76288607  -0.01294562  0.35889841  1
  O  O161  1  0.76591624  0.00215632  0.87965527  1
  O  O162  1  0.74774508  0.51424382  0.36501229  1
  O  O163  1  0.76044336  0.51517847  0.86247676  1
  O  O164  1  0.25060453  0.50332792  0.12694547  1
  O  O165  1  0.22522966  0.51123160  0.62084024  1
  O  O166  1  0.23648846  1.00756241  0.12894608  1
  O  O167  1  0.24225460  0.99046959  0.64074817  1
  O  O168  1  0.75579790  0.49054398  0.13344352  1
  O  O169  1  0.74035817  0.51150737  0.63390613  1
  O  O170  1  0.75771511  0.99269098  0.14047963  1
  O  O171  1  0.71011688  1.06101640  0.65067572  1
  O  O172  1  0.00713508  0.37708768  0.26587148  1
  O  O173  1  0.00463624  0.36943345  0.75289892  1
  O  O174  1  0.00453668  0.86237326  0.24209886  1
  O  O175  1  0.01204061  0.88620352  0.75916714  1
  O  O176  1  0.51688402  0.38485273  0.24757707  1
  O  O177  1  0.51089685  0.38140546  0.75432246  1
  O  O178  1  0.50546904  0.87285939  0.26138327  1
  O  O179  1  0.51261574  0.86026753  0.74726575  1
  O  O180  1  0.49232522  0.12105166  0.24307120  1
  O  O181  1  0.49701572  0.12948951  0.75035306  1
  O  O182  1  0.47106276  0.56294221  0.22338363  1
  O  O183  1  0.50516847  0.63939813  0.73690415  1
  O  O184  1  0.98999273  0.11273094  0.24332625  1
  O  O185  1  1.00587129  0.12591123  0.72415609  1
  O  O186  1  0.99811151  0.63315159  0.23380500  1
  O  O187  1  0.98501808  0.62436448  0.73682059  1
  O  O188  1  0.38133363  0.25379453  0.01344056  1
  O  O189  1  0.38002652  0.24546056  0.52367548  1
  O  O190  1  0.36687842  0.76228090  -0.01670647  1
  O  O191  1  0.35203646  0.75376675  0.49260905  1
  O  O192  1  0.86093078  0.23391723  0.02415048  1
  O  O193  1  0.86293308  0.25738029  0.49384787  1
  O  O194  1  0.87299748  0.75783519  0.00274428  1
  O  O195  1  0.86052483  0.73661882  0.50911460  1
  O  O196  1  0.13201659  0.23734696  0.49642114  1
  O  O197  1  0.11494532  0.22624898  1.00869178  1
  O  O198  1  0.17043591  0.79374262  0.48225674  1
  O  O199  1  0.13011621  0.77229818  0.99235840  1
  O  O200  1  0.63972928  0.26266339  0.48573619  1
  O  O201  1  0.64006773  0.24936399  1.00809493  1
  O  O202  1  0.63198545  0.73967632  0.50778793  1
  O  O203  1  0.63788649  0.75989966  1.00588522  1
  O  O204  1  0.48881157  0.24358501  0.13279146  1
  O  O205  1  0.50178079  0.25637744  0.62271429  1
  O  O206  1  0.48708209  0.73904296  0.10925307  1
  O  O207  1  0.49067153  0.73669795  0.61711431  1
  O  O208  1  0.98650607  0.23134096  0.12589410  1
  O  O209  1  0.99850641  0.23643550  0.61502571  1
  O  O210  1  0.98885756  0.74303134  0.12758623  1
  O  O211  1  0.98585059  0.73518394  0.61859785  1
  O  O212  1  0.00403038  0.25324904  0.37644698  1
  O  O213  1  -0.01004705  0.28585918  0.91375838  1
  O  O214  1  0.00844320  0.74094366  0.34472761  1
  O  O215  1  0.00457247  0.76845263  0.88082347  1
  O  O216  1  0.51909880  0.26196511  0.38139073  1
  O  O217  1  0.50498575  0.26341436  0.87841599  1
  O  O218  1  0.49653161  0.75730640  0.38957737  1
  O  O219  1  0.52196826  0.74109182  0.86899897  1
  O  O220  1  0.23545828  0.10917808  0.50603742  1
  O  O221  1  0.22678849  0.11393401  0.99615840  1
  O  O222  1  0.23989686  0.64130068  0.49714574  1
  O  O223  1  0.22353854  0.63201877  1.00018457  1
  O  O224  1  0.74835220  0.13507996  0.48670012  1
  O  O225  1  0.73615391  0.13574284  1.01407561  1
  O  O226  1  0.74720966  0.62378615  0.48048410  1
  O  O227  1  0.75289324  0.63692288  0.98445651  1
  O  O228  1  0.23748164  0.32135661  -0.02394328  1
  O  O229  1  0.24811233  0.38149968  0.52296555  1
  O  O230  1  0.27109869  0.89798847  0.00754041  1
  O  O231  1  0.27463934  0.88605287  0.53192613  1
  O  O232  1  0.75393000  0.36148377  0.01538636  1
  O  O233  1  0.76966087  0.38492285  0.49233819  1
  O  O234  1  0.75846727  0.86043159  -0.01004457  1
  O  O235  1  0.74103316  0.85275261  0.49598583  1
  O  O236  1  0.13188993  0.49183701  0.24566468  1
  O  O237  1  0.10871799  0.48732374  0.73152928  1
  O  O238  1  0.13294547  0.99036824  0.24212919  1
  O  O239  1  0.13115465  0.99566566  0.74301538  1
  O  O240  1  0.64138855  0.48894404  0.24045931  1
  O  O241  1  0.63750972  0.50010269  0.74276593  1
  O  O242  1  0.63919861  1.00319243  0.25198768  1
  O  O243  1  0.60854792  0.98637117  0.74659621  1
  O  O244  1  0.35740611  -0.00507147  0.24468628  1
  O  O245  1  0.36380371  0.01823560  0.75656413  1
  O  O246  1  0.34561243  0.49074875  0.26464772  1
  O  O247  1  0.36236272  0.48627634  0.76940627  1
  O  O248  1  0.86420123  0.00401576  0.25668368  1
  O  O249  1  0.87823973  -0.00560036  0.76180885  1
  O  O250  1  0.86888132  0.51241341  0.24687224  1
  O  O251  1  0.86332303  0.51214887  0.74531473  1
  O  O252  1  0.11048488  0.37714102  0.36968234  1
  O  O253  1  0.16423606  0.37922522  0.88227798  1
  O  O254  1  0.11913417  0.87968428  0.35137113  1
  O  O255  1  0.11850677  0.87557294  0.86996749  1
  O  O256  1  0.63026178  0.37944705  0.35971983  1
  O  O257  1  0.61803010  0.38789643  0.85996170  1
  O  O258  1  0.61089532  0.87228492  0.35664827  1
  O  O259  1  0.63901350  0.87284741  0.85309586  1
  O  O260  1  0.38914774  0.13456947  0.12418533  1
  O  O261  1  0.37576758  0.14070702  0.64361701  1
  O  O262  1  0.36755060  0.63476821  0.11217234  1
  O  O263  1  0.37881129  0.61965846  0.63107338  1
  O  O264  1  0.88245403  0.12464733  0.13873340  1
  O  O265  1  0.88888160  0.12162164  0.60952669  1
  O  O266  1  0.88327169  0.63251384  0.12891621  1
  O  O267  1  0.87644758  0.63114344  0.63246194  1
  O  O268  1  0.27275153  0.24363595  0.12961754  1
  O  O269  1  0.24484100  0.25009896  0.62079997  1
  O  O270  1  0.27766684  0.73149923  0.12453494  1
  O  O271  1  0.24408872  0.75933278  0.62759882  1
  O  O272  1  0.75974389  0.25537157  0.12851754  1
  O  O273  1  0.74768823  0.25168366  0.59876007  1
  O  O274  1  0.76118693  0.73680933  0.10676955  1
  O  O275  1  0.75744671  0.73935438  0.60926134  1
  O  O276  1  0.29143860  0.20967457  0.38550757  1
  O  O277  1  0.20720254  0.30979400  0.90447365  1
  O  O278  1  0.25332868  0.73157499  0.36020839  1
  O  O279  1  0.23483027  0.75842916  0.87107425  1
  O  O280  1  0.74224024  0.25857471  0.38353059  1
  O  O281  1  0.76046230  0.25582661  0.89644685  1
  O  O282  1  0.74463971  0.73282196  0.38223688  1
  O  O283  1  0.75349323  0.73949497  0.88290156  1
  O  O284  1  0.00199666  0.11276252  0.01513538  1
  O  O285  1  0.01721382  0.12033890  0.50960213  1
  O  O286  1  0.00203456  0.62865979  0.01164709  1
  O  O287  1  -0.00895907  0.61671570  0.51086083  1
  O  O288  1  0.51421597  0.12854766  0.01416556  1
  O  O289  1  0.50424215  0.10988592  0.49084632  1
  O  O290  1  0.52790660  0.63458485  -0.01884397  1
  O  O291  1  0.49098645  0.61144324  0.51557249  1
  O  O292  1  0.50278161  0.39795728  0.50683450  1
  O  O293  1  0.51817493  0.37428505  0.98899191  1
  O  O294  1  0.50796991  0.88512841  0.48620063  1
  O  O295  1  0.47154988  0.88687453  1.00216650  1
  O  O296  1  0.99686078  0.38360834  0.48505058  1
  O  O297  1  0.99957797  0.34100324  0.96638385  1
  O  O298  1  0.99696396  0.81550957  0.48429894  1
  O  O299  1  0.98907517  0.88470913  0.99541997  1
  O  O300  1  0.47931251  0.50899454  0.38863521  1
  O  O301  1  0.49313224  0.49377719  0.87470042  1
  O  O302  1  0.49785138  0.99350746  0.38616145  1
  O  O303  1  0.48732621  1.00236170  0.86602164  1
  O  O304  1  1.00273310  0.51143203  0.38609756  1
  O  O305  1  0.99088973  0.51543947  0.86323689  1
  O  O306  1  0.97808789  0.98714316  0.36690230  1
  O  O307  1  0.99088669  0.99053552  0.88551596  1
  O  O308  1  -0.00071498  0.00692855  0.12054462  1
  O  O309  1  0.01154619  0.00001450  0.62461058  1
  O  O310  1  -0.00928283  0.51225276  0.12382199  1
  O  O311  1  0.00300026  0.51265457  0.61772270  1
  O  O312  1  0.49096033  0.01288645  0.12820411  1
  O  O313  1  0.47315814  -0.00294158  0.60178825  1
  O  O314  1  0.52811305  0.47889224  0.10761122  1
  O  O315  1  0.50497247  0.51098927  0.62230727  1
  O  O316  1  0.23139546  0.38862943  0.24974663  1
  O  O317  1  0.23814054  0.37054553  0.72833004  1
  O  O318  1  0.23990642  0.87760017  0.24924510  1
  O  O319  1  0.23357282  0.88596229  0.75009591  1
  O  O320  1  0.76044122  0.38557566  0.24380336  1
  O  O321  1  0.74664648  0.39369174  0.75422081  1
  O  O322  1  0.73135336  0.87589299  0.24921757  1
  O  O323  1  0.73968934  0.87720635  0.73439944  1
  O  O324  1  0.24856462  0.10591675  0.25810383  1
  O  O325  1  0.24180234  0.11734771  0.74637473  1
  O  O326  1  0.23755529  0.60634352  0.25840757  1
  O  O327  1  0.18699496  0.60761126  0.77850670  1
  O  O328  1  0.75849794  0.11222381  0.24865540  1
  O  O329  1  0.74654780  0.10419683  0.70747394  1
  O  O330  1  0.75851823  0.62192211  0.26190791  1
  O  O331  1  0.75750939  0.62258258  0.75711780  1
  O  O332  1  0.34866561  0.16184482  0.38142593  1
  O  O333  1  0.38003022  0.12415033  0.86234902  1
  O  O334  1  0.35403201  0.60838000  0.38323962  1
  O  O335  1  0.38210892  0.60286217  0.88174037  1
  O  O336  1  0.87888752  0.11802341  0.36490300  1
  O  O337  1  0.88739779  0.11123378  0.87504057  1
  O  O338  1  0.88670768  0.63842716  0.36155376  1
  O  O339  1  0.87238271  0.62421143  0.85822867  1
  O  O340  1  0.10412112  0.37830205  0.14004381  1
  O  O341  1  0.13017317  0.38101471  0.62056221  1
  O  O342  1  0.11822832  0.89209433  0.13316024  1
  O  O343  1  0.12649736  0.87936642  0.63933265  1
  O  O344  1  0.64300166  0.37592670  0.13854092  1
  O  O345  1  0.62108681  0.39665503  0.63955963  1
  O  O346  1  0.60801950  0.87259686  0.14368158  1
  O  O347  1  0.62791333  0.87668707  0.63311786  1
  O  O348  1  0.13272675  0.26472593  0.24685212  1
  O  O349  1  0.10848878  0.25115100  0.76142829  1
  O  O350  1  0.11769300  0.76224466  0.22776089  1
  O  O351  1  0.12248342  0.76803401  0.76098519  1
  O  O352  1  0.63579727  0.26759037  0.26012737  1
  O  O353  1  0.63289670  0.27397922  0.74682511  1
  O  O354  1  0.62348590  0.74994362  0.24674895  1
  O  O355  1  0.61458598  0.75878199  0.74148389  1
  O  O356  1  0.35665465  0.24292747  0.23237120  1
  O  O357  1  0.37841832  0.24178798  0.74845272  1
  O  O358  1  0.39270413  0.74071920  0.24337655  1
  O  O359  1  0.39686342  0.75393219  0.77888349  1
  O  O360  1  0.86685968  0.23001079  0.24340740  1
  O  O361  1  0.88178878  0.24987515  0.74656317  1
  O  O362  1  0.88219373  0.74550839  0.23811655  1
  O  O363  1  0.86472440  0.73960698  0.73870273  1
  O  O364  1  0.37715916  0.49576930  0.49879205  1
  O  O365  1  0.48841465  0.60029339  1.03077336  1
  O  O366  1  0.40841150  0.99451285  0.54784056  1
  O  O367  1  0.37696474  1.02218344  0.98203460  1
  O  O368  1  0.88896306  0.48981144  0.50324752  1
  O  O369  1  0.87669985  0.51348873  0.98187911  1
  O  O370  1  0.86228821  0.98062275  0.48251372  1
  O  O371  1  0.87845465  0.99293453  0.99862150  1
  O  O372  1  0.11362954  0.00275625  0.01277443  1
  O  O373  1  0.12862526  -0.02105089  0.51589284  1
  O  O374  1  0.12692919  0.50838591  -0.01065328  1
  O  O375  1  0.10479346  0.49595410  0.51156335  1
  O  O376  1  0.63218293  0.00862147  0.00677342  1
  O  O377  1  0.62158394  -0.00179762  0.49551705  1
  O  O378  1  0.65356607  0.49487801  0.01227215  1
  O  O379  1  0.62014705  0.49892814  0.51250537  1
  O  O380  1  0.38446835  0.36997852  0.13520171  1
  O  O381  1  0.36570317  0.35600443  0.64016171  1
  O  O382  1  0.37601053  0.85035903  0.11979976  1
  O  O383  1  0.36178721  0.87235701  0.66269431  1
  O  O384  1  0.87650753  0.35485118  0.13596544  1
  O  O385  1  0.88876607  0.36891704  0.60401651  1
  O  O386  1  0.87862501  0.86425895  0.11291284  1
  O  O387  1  0.86979120  0.85645696  0.62483072  1
  O  O388  1  0.12283030  0.11390422  0.38940740  1
  O  O389  1  0.10520564  0.11872848  0.88764684  1
  O  O390  1  0.13649042  0.62313266  0.37795979  1
  O  O391  1  0.10398429  0.65146023  0.89842130  1
  O  O392  1  0.62400682  0.14531413  0.36193635  1
  O  O393  1  0.62160766  0.12473555  0.89885334  1
  O  O394  1  0.62442576  0.61685140  0.36511974  1
  O  O395  1  0.63980563  0.62000244  0.86802340  1
