# generated using pymatgen
data_V35Zn35O128
_symmetry_space_group_name_H-M   'P 1'
_cell_length_a   17.00595645
_cell_length_b   16.87135829
_cell_length_c   16.90802071
_cell_angle_alpha   90.40209536
_cell_angle_beta   89.88532005
_cell_angle_gamma   89.59755405
_symmetry_Int_Tables_number   1
_chemical_formula_structural   V35Zn35O128
_chemical_formula_sum   'V70 Zn70 O256'
_cell_volume   4850.89149749
_cell_formula_units_Z   2
loop_
 _symmetry_equiv_pos_site_id
 _symmetry_equiv_pos_as_xyz
  1  'x, y, z'
loop_
 _atom_site_type_symbol
 _atom_site_label
 _atom_site_symmetry_multiplicity
 _atom_site_fract_x
 _atom_site_fract_y
 _atom_site_fract_z
 _atom_site_occupancy
  V  V0  1  0.67238060  0.79262246  0.41505471  1
  V  V1  1  0.88052082  0.86577187  -0.01788170  1
  V  V2  1  0.11011016  0.50469883  0.13401240  1
  V  V3  1  0.88171133  0.37710082  -0.00052938  1
  V  V4  1  0.84237791  0.16361852  0.74544822  1
  V  V5  1  -0.00015304  0.74589490  0.23387124  1
  V  V6  1  0.12121153  0.12255204  -0.00557166  1
  V  V7  1  0.11175926  0.87964993  0.25687251  1
  V  V8  1  -0.01462256  0.00701982  0.51914711  1
  V  V9  1  0.49043433  0.74157703  0.75589990  1
  V  V10  1  0.62109859  0.25478539  0.36499326  1
  V  V11  1  0.24736552  0.12543182  0.37836824  1
  V  V12  1  0.49876471  0.00006831  0.51165114  1
  V  V13  1  0.63428829  0.40400879  0.76554721  1
  V  V14  1  0.87862742  0.00722251  0.36084702  1
  V  V15  1  0.11466345  0.13180998  0.50775444  1
  V  V16  1  0.15960252  0.74609174  0.87753054  1
  V  V17  1  0.62819649  0.06250221  0.02851803  1
  V  V18  1  0.24369762  0.49832982  0.25607564  1
  V  V19  1  0.61587529  0.50818105  0.12766813  1
  V  V20  1  -0.05471292  0.83181228  0.42978387  1
  V  V21  1  0.75248204  0.38106359  0.62457440  1
  V  V22  1  0.13499109  -0.00199401  0.63044997  1
  V  V23  1  0.25187522  0.24903005  -0.00054911  1
  V  V24  1  0.75293408  0.25088191  0.50219998  1
  V  V25  1  0.24825134  0.87185888  0.12198875  1
  V  V26  1  0.75490626  0.12065531  0.36250883  1
  V  V27  1  0.48509356  0.88419923  0.37420034  1
  V  V28  1  0.36813830  0.62906244  0.25713664  1
  V  V29  1  0.24899499  0.00036227  0.25738852  1
  V  V30  1  0.61590058  0.12837291  0.51127071  1
  V  V31  1  0.25335210  0.50399288  0.75549863  1
  V  V32  1  0.50295848  0.74330779  0.25514638  1
  V  V33  1  0.87911038  0.51095405  0.86342138  1
  V  V34  1  0.27592358  0.13116818  0.87012520  1
  V  V35  1  0.36991638  0.61830085  0.76467361  1
  V  V36  1  0.13124089  0.87559331  0.76525311  1
  V  V37  1  0.89027445  0.36899608  0.49146373  1
  V  V38  1  0.38093162  0.36343487  0.49973378  1
  V  V39  1  0.49209806  0.51991282  0.00938855  1
  V  V40  1  0.36517381  0.74736706  0.12486153  1
  V  V41  1  0.11294462  0.00986103  0.12111987  1
  V  V42  1  0.88886015  0.48904858  0.36582347  1
  V  V43  1  0.24777967  0.36481492  0.13482996  1
  V  V44  1  0.75780119  -0.04200931  0.73318664  1
  V  V45  1  0.38355650  0.36807888  0.01656086  1
  V  V46  1  0.77651263  0.52370867  0.73587523  1
  V  V47  1  0.24217948  0.62876084  0.39393468  1
  V  V48  1  0.62385400  0.24680299  0.88392090  1
  V  V49  1  0.27177951  0.00259927  0.74898119  1
  V  V50  1  0.36377475  0.87885833  0.50917045  1
  V  V51  1  0.63102508  0.88684833  0.24380035  1
  V  V52  1  0.24400668  0.25106092  0.49877596  1
  V  V53  1  0.50063153  0.51390762  0.51201750  1
  V  V54  1  0.00841790  0.49815929  -0.01856466  1
  V  V55  1  0.12469041  0.37745061  0.77339045  1
  V  V56  1  0.74622552  0.36336833  0.11429308  1
  V  V57  1  0.24472667  0.37348942  0.62301185  1
  V  V58  1  0.73771320  0.61402264  0.37836122  1
  V  V59  1  0.10744379  0.35833685  0.26573679  1
  V  V60  1  0.36404621  0.73559666  0.61301655  1
  V  V61  1  0.11095845  0.51250972  0.61533325  1
  V  V62  1  0.49718626  0.25801261  0.24660302  1
  V  V63  1  0.01442935  0.24655870  0.75649144  1
  V  V64  1  0.12642923  0.75575224  0.39450471  1
  V  V65  1  0.37933084  0.12016065  0.25066018  1
  V  V66  1  0.74272832  0.48767516  0.24502639  1
  V  V67  1  0.37850736  0.49570850  0.37791023  1
  V  V68  1  0.63919285  0.73259273  0.87535629  1
  V  V69  1  0.61254123  0.86216996  0.72910187  1
  Zn  Zn70  1  0.87573450  0.62838802  0.23941744  1
  Zn  Zn71  1  0.47797670  0.12957399  0.10210533  1
  Zn  Zn72  1  0.75931207  0.21821437  -0.01027939  1
  Zn  Zn73  1  0.45857689  0.92179578  -0.08210447  1
  Zn  Zn74  1  0.13964849  0.63934774  0.01038251  1
  Zn  Zn75  1  0.47114148  0.38363071  0.85261484  1
  Zn  Zn76  1  0.17992427  0.18626020  0.19256039  1
  Zn  Zn77  1  0.19068171  0.18955372  0.69009582  1
  Zn  Zn78  1  0.18214666  0.68796565  0.20015105  1
  Zn  Zn79  1  0.18838870  0.68943267  0.68225565  1
  Zn  Zn80  1  0.68841591  0.18007218  0.17934586  1
  Zn  Zn81  1  0.66407568  0.21742824  0.68822981  1
  Zn  Zn82  1  0.68843265  0.68691690  0.19426235  1
  Zn  Zn83  1  0.65210181  0.62949790  0.73378648  1
  Zn  Zn84  1  0.31017959  0.30710879  0.31744481  1
  Zn  Zn85  1  0.31600347  0.32244814  0.81866092  1
  Zn  Zn86  1  0.30219800  0.81639339  0.31928644  1
  Zn  Zn87  1  0.32522500  0.81318726  0.80937795  1
  Zn  Zn88  1  0.81558813  0.30448285  0.30803611  1
  Zn  Zn89  1  0.80966287  0.32563320  0.82483914  1
  Zn  Zn90  1  0.81652480  0.81235824  0.30040937  1
  Zn  Zn91  1  0.80833033  0.78974528  0.79134528  1
  Zn  Zn92  1  0.17896886  0.44016936  0.43925408  1
  Zn  Zn93  1  0.20883661  0.46672374  0.95781321  1
  Zn  Zn94  1  0.18056769  0.94258964  0.44059158  1
  Zn  Zn95  1  0.25188744  0.91887901  0.91715967  1
  Zn  Zn96  1  0.68799047  0.43938210  0.43214186  1
  Zn  Zn97  1  0.70039480  0.48245310  0.94808659  1
  Zn  Zn98  1  0.68170848  0.95421533  0.43291951  1
  Zn  Zn99  1  0.68520504  0.91733899  0.90874165  1
  Zn  Zn100  1  0.30864158  0.06106463  0.06874179  1
  Zn  Zn101  1  0.31704400  0.06772068  0.56457367  1
  Zn  Zn102  1  0.30954818  0.56383173  0.06779741  1
  Zn  Zn103  1  0.31097187  0.54932607  0.56695784  1
  Zn  Zn104  1  0.81239725  0.05241020  0.02568278  1
  Zn  Zn105  1  0.79883239  0.06990327  0.57791275  1
  Zn  Zn106  1  0.78910802  0.61013957  0.06918960  1
  Zn  Zn107  1  0.84030452  0.55653005  0.56031655  1
  Zn  Zn108  1  0.43215961  0.43965157  0.18931303  1
  Zn  Zn109  1  0.43583465  0.42395811  0.68929360  1
  Zn  Zn110  1  0.43396878  0.93384093  0.18566060  1
  Zn  Zn111  1  0.44478808  0.92906740  0.68504473  1
  Zn  Zn112  1  0.93307060  0.42320282  0.18632492  1
  Zn  Zn113  1  0.94440947  0.41459865  0.68169973  1
  Zn  Zn114  1  0.92409486  1.15706847  0.11730510  1
  Zn  Zn115  1  0.96316909  0.97754134  0.73363966  1
  Zn  Zn116  1  0.05670876  0.06527571  0.32300082  1
  Zn  Zn117  1  0.08000810  0.07748458  0.81659887  1
  Zn  Zn118  1  0.06398897  0.57025343  0.31828738  1
  Zn  Zn119  1  0.07454743  0.57015898  0.80656168  1
  Zn  Zn120  1  0.56570293  0.06555435  0.31918256  1
  Zn  Zn121  1  0.61701833  0.04132630  0.81965283  1
  Zn  Zn122  1  0.55916618  0.55496213  0.31031318  1
  Zn  Zn123  1  0.53237556  0.55495399  0.82499342  1
  Zn  Zn124  1  0.43502371  0.18551086  0.43151933  1
  Zn  Zn125  1  0.48410989  0.10623360  0.89736165  1
  Zn  Zn126  1  0.43896520  0.68909056  0.43600245  1
  Zn  Zn127  1  0.48246098  0.73279313  0.97501395  1
  Zn  Zn128  1  0.93231632  0.19953987  0.58135749  1
  Zn  Zn129  1  0.93201463  0.17350615  0.92032614  1
  Zn  Zn130  1  0.90729429  0.65755466  0.45404584  1
  Zn  Zn131  1  0.94905381  0.67101099  0.95342494  1
  Zn  Zn132  1  0.06146882  0.30719456  0.06643902  1
  Zn  Zn133  1  0.06504582  0.31884387  0.57089593  1
  Zn  Zn134  1  0.07178182  0.82013276  0.05856945  1
  Zn  Zn135  1  0.06193673  0.82418003  0.57835060  1
  Zn  Zn136  1  0.57265048  0.30059373  0.06428250  1
  Zn  Zn137  1  0.58968346  0.35327431  0.53559997  1
  Zn  Zn138  1  0.58238271  0.85781915  0.04366646  1
  Zn  Zn139  1  0.57248820  0.73913604  0.58131906  1
  O  O140  1  0.13696676  0.11612009  0.11574759  1
  O  O141  1  0.13405154  0.11675775  0.61394588  1
  O  O142  1  0.13246061  0.60749527  0.13075191  1
  O  O143  1  0.11854654  0.61237995  0.64051608  1
  O  O144  1  0.64007778  0.08979644  0.12542819  1
  O  O145  1  0.61335597  0.14842093  0.60902600  1
  O  O146  1  0.62383174  0.60687074  0.13607167  1
  O  O147  1  0.64787187  0.65174807  0.61725104  1
  O  O148  1  0.36268760  0.38399743  0.38988140  1
  O  O149  1  0.36653788  0.38033782  0.91618926  1
  O  O150  1  0.38070497  0.87572205  0.38411283  1
  O  O151  1  0.35712356  0.89085979  0.88158210  1
  O  O152  1  0.87317972  0.37457419  0.37873392  1
  O  O153  1  0.87099028  0.40045617  0.88821848  1
  O  O154  1  0.87843365  0.88997140  0.37289057  1
  O  O155  1  0.88008299  0.84285166  0.87782684  1
  O  O156  1  0.24030656  0.00976540  0.36620626  1
  O  O157  1  0.26054309  0.02032206  0.85977046  1
  O  O158  1  0.25356846  0.50663211  0.37159550  1
  O  O159  1  0.25331753  0.49107231  0.85299978  1
  O  O160  1  0.76275668  0.01061204  0.37863065  1
  O  O161  1  0.72626947  -0.00562064  0.83069184  1
  O  O162  1  0.75328553  0.49515025  0.35979503  1
  O  O163  1  0.77476810  0.51179145  0.84893827  1
  O  O164  1  0.24074773  0.49003999  0.14580886  1
  O  O165  1  0.23841935  0.49107467  0.63198731  1
  O  O166  1  0.24651385  0.98946162  0.14078927  1
  O  O167  1  0.24373222  1.01286109  0.63624642  1
  O  O168  1  0.73738678  0.49357302  0.13770771  1
  O  O169  1  0.77508876  0.49353111  0.62694330  1
  O  O170  1  0.85346358  1.07192666  0.12675083  1
  O  O171  1  0.73767620  1.00887818  0.64832826  1
  O  O172  1  0.00882988  0.36787818  0.25016326  1
  O  O173  1  0.02106588  0.37373740  0.76018691  1
  O  O174  1  0.01260827  0.86809200  0.25071585  1
  O  O175  1  0.03285784  0.88240866  0.75646743  1
  O  O176  1  0.49298583  0.35695764  0.24551138  1
  O  O177  1  0.53616021  0.44315887  0.76288559  1
  O  O178  1  0.50044582  0.87057518  0.26002177  1
  O  O179  1  0.49806861  0.85286022  0.75002461  1
  O  O180  1  0.48290761  0.11775030  0.25507657  1
  O  O181  1  0.43340685  0.13034772  0.67235703  1
  O  O182  1  0.48447792  0.63551078  0.26340897  1
  O  O183  1  0.47878546  0.62355358  0.74602550  1
  O  O184  1  0.98887791  0.13966483  0.25223061  1
  O  O185  1  1.02806284  0.14805074  0.73569710  1
  O  O186  1  1.00393464  0.64387401  0.25421299  1
  O  O187  1  0.99926618  0.67061200  0.78893789  1
  O  O188  1  0.35728593  0.26272185  0.01944849  1
  O  O189  1  0.36086679  0.25808238  0.49024764  1
  O  O190  1  0.36977059  0.73520886  0.02824616  1
  O  O191  1  0.37912712  0.76288126  0.50617995  1
  O  O192  1  0.87492166  0.28185951  -0.02948695  1
  O  O193  1  0.86288532  0.25591457  0.49810219  1
  O  O194  1  0.89507712  0.76300230  -0.00122764  1
  O  O195  1  0.88472085  0.77059768  0.47687533  1
  O  O196  1  0.12639503  0.23711188  0.50749770  1
  O  O197  1  0.14335341  0.23740098  1.01064606  1
  O  O198  1  0.11691932  0.76519457  0.49346458  1
  O  O199  1  0.11989073  0.75208566  0.97947074  1
  O  O200  1  0.62836260  0.24622166  0.48673778  1
  O  O201  1  0.63609301  0.23861441  0.99059234  1
  O  O202  1  0.61365433  0.74150175  0.47546470  1
  O  O203  1  0.61550468  0.74637280  0.97397173  1
  O  O204  1  0.51329633  0.23331190  0.14351713  1
  O  O205  1  0.46844972  0.18560785  0.70857623  1
  O  O206  1  0.47034136  0.75343602  0.15230846  1
  O  O207  1  0.47605097  0.74187888  0.64032230  1
  O  O208  1  0.99441311  0.23869420  0.12101166  1
  O  O209  1  0.99257532  0.27193053  0.64422771  1
  O  O210  1  1.01624865  0.75340756  0.13497330  1
  O  O211  1  0.98760469  0.75383925  0.63576111  1
  O  O212  1  -0.04799508  0.20042265  0.28976396  1
  O  O213  1  -0.00182687  0.24262021  0.85634598  1
  O  O214  1  0.00841735  0.76544268  0.37678436  1
  O  O215  1  0.00084761  0.72048582  0.84686300  1
  O  O216  1  0.51349842  0.24219206  0.36460903  1
  O  O217  1  0.54020477  0.30174016  0.89193074  1
  O  O218  1  0.48898802  0.76379379  0.36224638  1
  O  O219  1  0.48202650  0.73831273  0.85671083  1
  O  O220  1  0.24392619  0.13169794  0.49663852  1
  O  O221  1  0.25921218  0.13076019  0.98995097  1
  O  O222  1  0.25264255  0.61689804  0.49149295  1
  O  O223  1  0.23177053  0.57681441  0.99183626  1
  O  O224  1  0.73484415  0.13425367  0.50271709  1
  O  O225  1  0.71318191  0.09330866  0.98031239  1
  O  O226  1  0.75944132  0.60305432  0.47538341  1
  O  O227  1  0.73454967  0.58449127  0.98180193  1
  O  O228  1  0.24885051  0.37355954  0.02303931  1
  O  O229  1  0.24682653  0.36656893  0.50349383  1
  O  O230  1  0.24546592  0.88097587  0.02425572  1
  O  O231  1  0.26628929  0.88905684  0.49566234  1
  O  O232  1  0.76193779  0.39350887  0.01126517  1
  O  O233  1  0.74907931  0.36806239  0.50404664  1
  O  O234  1  0.77666096  0.85528774  -0.01983617  1
  O  O235  1  0.72764231  0.85488670  0.47005741  1
  O  O236  1  0.12954630  0.49590622  0.25062191  1
  O  O237  1  0.13545964  0.49191559  0.74462625  1
  O  O238  1  0.12681004  1.00091046  0.24686491  1
  O  O239  1  0.13806814  1.00086709  0.74178672  1
  O  O240  1  0.63375234  0.48915993  0.24541511  1
  O  O241  1  0.66892464  0.50976405  0.73626101  1
  O  O242  1  0.61946049  0.98666689  0.25481439  1
  O  O243  1  0.61192303  0.96335143  0.72994766  1
  O  O244  1  0.36208856  0.00989759  0.25040291  1
  O  O245  1  0.36944617  0.00290341  0.73320555  1
  O  O246  1  0.36415675  0.50690582  0.25973971  1
  O  O247  1  0.36155482  0.50870494  0.73646590  1
  O  O248  1  0.88848902  0.00712008  0.26677863  1
  O  O249  1  0.85677433  -0.05627168  0.73544696  1
  O  O250  1  0.86363799  0.48722435  0.25779552  1
  O  O251  1  0.88607446  0.49488583  0.75399794  1
  O  O252  1  0.12254064  0.38025130  0.36394169  1
  O  O253  1  0.14024437  0.38498724  0.86963041  1
  O  O254  1  0.12897827  0.86692176  0.37074909  1
  O  O255  1  0.14797660  0.87066425  0.86993403  1
  O  O256  1  0.63351438  0.35325440  0.36950987  1
  O  O257  1  0.65514652  0.41480156  0.86287429  1
  O  O258  1  0.60889615  0.86824158  0.36660538  1
  O  O259  1  0.62476883  0.84175707  0.84854207  1
  O  O260  1  0.36661162  0.13098068  0.14701212  1
  O  O261  1  0.37897874  0.15508754  0.61580101  1
  O  O262  1  0.35459553  0.63549885  0.14718186  1
  O  O263  1  0.36827013  0.63335909  0.61682342  1
  O  O264  1  0.85942738  0.15311263  0.00875346  1
  O  O265  1  0.87353362  0.12654045  0.64835159  1
  O  O266  1  0.88024492  0.61075398  0.12702489  1
  O  O267  1  0.73166837  0.67491743  0.59742580  1
  O  O268  1  0.24343717  0.26211167  0.12817267  1
  O  O269  1  0.24280007  0.25960576  0.61190339  1
  O  O270  1  0.24786182  0.76219353  0.13699039  1
  O  O271  1  0.26537854  0.75255915  0.62680724  1
  O  O272  1  0.74653135  0.25784476  0.11270954  1
  O  O273  1  0.74578934  0.26724781  0.61275401  1
  O  O274  1  0.77092034  0.70951761  0.12351823  1
  O  O275  1  0.74553121  0.74724314  0.59148581  1
  O  O276  1  0.24361495  0.24020453  0.38735019  1
  O  O277  1  0.26146949  0.24272052  0.88400121  1
  O  O278  1  0.23386922  0.74510703  0.37959704  1
  O  O279  1  0.25730311  0.74941946  0.88312304  1
  O  O280  1  0.74355193  0.23898157  0.38011705  1
  O  O281  1  0.73132891  0.26228948  0.87889760  1
  O  O282  1  0.74424166  0.72832323  0.36381149  1
  O  O283  1  0.73930109  0.73135461  0.86126291  1
  O  O284  1  0.02360922  0.12955898  -0.01301960  1
  O  O285  1  0.00857637  0.12157071  0.51477025  1
  O  O286  1  0.02487903  0.60245903  -0.00103767  1
  O  O287  1  -0.07339841  0.62264586  0.55549707  1
  O  O288  1  0.53666703  0.10984056  0.00309166  1
  O  O289  1  0.50651089  0.11506684  0.49074370  1
  O  O290  1  0.48832842  0.61858476  0.00643638  1
  O  O291  1  0.50137901  0.61484083  0.50020611  1
  O  O292  1  0.47961955  0.35628907  0.50651902  1
  O  O293  1  0.48274398  0.36344477  1.02915850  1
  O  O294  1  0.49208518  0.88860875  0.48672348  1
  O  O295  1  0.48564159  0.84545463  0.99648746  1
  O  O296  1  0.98794763  0.35909269  0.49406138  1
  O  O297  1  0.99118981  0.38587219  1.01012467  1
  O  O298  1  0.99561592  0.89162829  0.50343265  1
  O  O299  1  0.98473846  0.87706994  0.98541209  1
  O  O300  1  0.48154103  0.50241466  0.37831134  1
  O  O301  1  0.49245204  0.48998031  0.90920718  1
  O  O302  1  0.50016705  0.98762223  0.37858207  1
  O  O303  1  0.51909467  1.00200461  0.86796287  1
  O  O304  1  0.98669371  0.49891427  0.36381727  1
  O  O305  1  1.00954740  0.49958337  0.87754377  1
  O  O306  1  0.98351676  1.01200672  0.39904570  1
  O  O307  1  0.98651063  1.02230113  0.83465878  1
  O  O308  1  0.01759968  0.01013338  0.12700899  1
  O  O309  1  0.01480297  -0.00048482  0.62428863  1
  O  O310  1  0.01094316  0.49988708  0.14098784  1
  O  O311  1  0.01439814  0.48972277  0.63004640  1
  O  O312  1  0.46297930  0.00461458  0.09788760  1
  O  O313  1  0.50355404  -0.00387896  0.60999735  1
  O  O314  1  0.51050411  0.49820106  0.13315531  1
  O  O315  1  0.48912645  0.49283809  0.60884521  1
  O  O316  1  0.24493991  0.37912906  0.25047396  1
  O  O317  1  0.24219149  0.38106608  0.74121645  1
  O  O318  1  0.23617583  0.88493034  0.25084863  1
  O  O319  1  0.25008233  0.89912307  0.75263398  1
  O  O320  1  0.75930556  0.37642710  0.23183051  1
  O  O321  1  0.75727736  0.38480303  0.73278138  1
  O  O322  1  0.72856615  0.86703145  0.26333511  1
  O  O323  1  0.72962757  0.85429280  0.73196392  1
  O  O324  1  0.25235616  0.12052159  0.26018919  1
  O  O325  1  0.25513782  0.12590527  0.76230403  1
  O  O326  1  0.25038736  0.61685353  0.26738048  1
  O  O327  1  0.25647708  0.61171864  0.74344832  1
  O  O328  1  0.74900877  0.12892417  0.26421839  1
  O  O329  1  0.74231409  0.15813537  0.74600327  1
  O  O330  1  0.75282956  0.60204979  0.25753843  1
  O  O331  1  0.77790863  0.62236073  0.72998541  1
  O  O332  1  0.35738514  0.12609548  0.36722936  1
  O  O333  1  0.37551993  0.13185963  0.87520970  1
  O  O334  1  0.36285816  0.61785553  0.37387334  1
  O  O335  1  0.36843425  0.61695398  0.85983260  1
  O  O336  1  0.85788848  0.11685376  0.38191755  1
  O  O337  1  0.87558243  0.11847368  0.82954130  1
  O  O338  1  0.86669089  0.60298586  0.36250309  1
  O  O339  1  0.88819741  0.61047318  0.88066910  1
  O  O340  1  0.13271159  0.38196799  0.14519915  1
  O  O341  1  0.13520826  0.38686744  0.62927780  1
  O  O342  1  0.13139771  0.88832498  0.13427050  1
  O  O343  1  0.13483247  0.89192448  0.63527961  1
  O  O344  1  0.64231918  0.37965700  0.11804399  1
  O  O345  1  0.64751291  0.38773097  0.62929407  1
  O  O346  1  0.62186198  0.86588635  0.14579119  1
  O  O347  1  0.60808005  0.84068397  0.63097499  1
  O  O348  1  0.12568373  0.25851245  0.25901230  1
  O  O349  1  0.12586304  0.26763242  0.75057828  1
  O  O350  1  0.11472819  0.75989569  0.26322312  1
  O  O351  1  0.14728692  0.76824157  0.76095014  1
  O  O352  1  0.61492241  0.23528369  0.25861603  1
  O  O353  1  0.62414025  0.29707847  0.76125241  1
  O  O354  1  0.60466868  0.74657161  0.24954513  1
  O  O355  1  0.59892844  0.73845494  0.75064259  1
  O  O356  1  0.38973415  0.23807472  0.26324498  1
  O  O357  1  0.41163772  0.34011876  0.76341984  1
  O  O358  1  0.36762078  0.73930848  0.25909713  1
  O  O359  1  0.37109420  0.73352182  0.74032095  1
  O  O360  1  0.89049070  0.22881491  0.24702508  1
  O  O361  1  0.88127687  0.26083641  0.75377938  1
  O  O362  1  0.89565843  0.75228097  0.25085825  1
  O  O363  1  0.87886905  0.74288688  0.70901162  1
  O  O364  1  0.38564504  0.48908739  0.49452127  1
  O  O365  1  0.39129048  0.48793239  1.03428580  1
  O  O366  1  0.38715925  0.99357473  0.50701168  1
  O  O367  1  0.40425664  0.99945688  1.03474030  1
  O  O368  1  0.87304477  0.47759156  0.47656401  1
  O  O369  1  0.90142131  0.49937741  0.98660407  1
  O  O370  1  0.88633895  1.01182038  0.52193361  1
  O  O371  1  0.87067739  0.96772330  0.96122085  1
  O  O372  1  0.13256975  0.01319103  0.01447499  1
  O  O373  1  0.11723466  0.00741318  0.51489640  1
  O  O374  1  0.11019949  0.47805707  0.02550501  1
  O  O375  1  0.12540208  0.50501101  0.51478599  1
  O  O376  1  0.63599643  -0.04150395  0.00668506  1
  O  O377  1  0.61426390  0.01761477  0.49979532  1
  O  O378  1  0.60259988  0.49509336  0.01992395  1
  O  O379  1  0.59350270  0.46855109  0.48971055  1
  O  O380  1  0.35364810  0.37655334  0.13310246  1
  O  O381  1  0.35680562  0.38164550  0.60431399  1
  O  O382  1  0.35468661  0.86086701  0.14206309  1
  O  O383  1  0.37608873  0.86839972  0.61152814  1
  O  O384  1  0.86344865  0.37761901  0.10937955  1
  O  O385  1  0.86697023  0.37710561  0.60071997  1
  O  O386  1  0.87339970  0.88396856  0.08529668  1
  O  O387  1  0.92364945  0.79182594  0.66651769  1
  O  O388  1  0.13065280  0.11766201  0.39829943  1
  O  O389  1  0.14953225  0.12385601  0.89194268  1
  O  O390  1  0.12766511  0.64446378  0.38019234  1
  O  O391  1  0.13804461  0.64652060  0.86300731  1
  O  O392  1  0.63736240  0.13062127  0.38518970  1
  O  O393  1  0.59201463  0.15307195  0.84768585  1
  O  O394  1  0.63789865  0.60799123  0.37267589  1
  O  O395  1  0.61663916  0.62866431  0.84923861  1
