# generated using pymatgen
data_V35Zn35O128
_symmetry_space_group_name_H-M   'P 1'
_cell_length_a   16.89056701
_cell_length_b   16.93784265
_cell_length_c   17.00638283
_cell_angle_alpha   89.98603061
_cell_angle_beta   89.76116003
_cell_angle_gamma   90.21264592
_symmetry_Int_Tables_number   1
_chemical_formula_structural   V35Zn35O128
_chemical_formula_sum   'V70 Zn70 O256'
_cell_volume   4865.27614457
_cell_formula_units_Z   2
loop_
 _symmetry_equiv_pos_site_id
 _symmetry_equiv_pos_as_xyz
  1  'x, y, z'
loop_
 _atom_site_type_symbol
 _atom_site_label
 _atom_site_symmetry_multiplicity
 _atom_site_fract_x
 _atom_site_fract_y
 _atom_site_fract_z
 _atom_site_occupancy
  V  V0  1  -0.00279742  0.24647122  0.24972225  1
  V  V1  1  0.13593598  0.62555464  0.48559710  1
  V  V2  1  0.74120898  0.13804241  0.86637420  1
  V  V3  1  0.49819363  0.37581393  0.87729924  1
  V  V4  1  0.62841902  0.89670280  0.23532266  1
  V  V5  1  0.12917955  0.00606599  0.11395442  1
  V  V6  1  0.00475373  0.49600674  0.01648026  1
  V  V7  1  0.25565389  0.87211880  0.12513969  1
  V  V8  1  0.00700400  0.12346517  0.11349711  1
  V  V9  1  0.51233004  0.00005865  0.01325219  1
  V  V10  1  0.38120409  0.74023607  0.12958261  1
  V  V11  1  0.74577374  0.50522768  0.75151785  1
  V  V12  1  0.86528179  0.11374318  0.24207116  1
  V  V13  1  0.88772682  0.75140093  0.12581823  1
  V  V14  1  0.13891991  0.23519870  0.87597777  1
  V  V15  1  0.74519509  0.49795286  0.22550413  1
  V  V16  1  0.27707621  0.37790637  0.60055730  1
  V  V17  1  0.74829426  0.62407682  0.89504271  1
  V  V18  1  0.37174856  0.38145161  -0.01050109  1
  V  V19  1  0.61200191  0.74464316  0.36839435  1
  V  V20  1  0.75136522  0.37188832  0.62975557  1
  V  V21  1  0.50621038  0.50879593  0.00231718  1
  V  V22  1  0.49492441  0.88912974  0.37386990  1
  V  V23  1  0.12639639  0.37333801  0.24906597  1
  V  V24  1  0.72750993  -0.02067123  0.77187020  1
  V  V25  1  -0.00006890  0.37259409  0.38327533  1
  V  V26  1  0.81710589  0.31880764  0.44801095  1
  V  V27  1  0.00084202  0.63871607  0.62311331  1
  V  V28  1  0.63217671  0.36826289  0.24096817  1
  V  V29  1  0.47635428  0.25048093  0.25256225  1
  V  V30  1  0.26783556  0.36601151  0.13633593  1
  V  V31  1  0.25934261  0.50920142  0.25769894  1
  V  V32  1  0.62770871  0.74638035  0.88268349  1
  V  V33  1  0.12251827  0.23446526  0.38744548  1
  V  V34  1  0.37765178  0.87547761  0.00012466  1
  V  V35  1  0.12945230  0.63784497  0.01205084  1
  V  V36  1  0.26311093  0.12454665  0.38130071  1
  V  V37  1  0.11294401  0.74999706  0.85402966  1
  V  V38  1  0.24835281  0.76102060  0.46885124  1
  V  V39  1  0.86138641  0.49931403  0.38053606  1
  V  V40  1  0.88604512  0.25940277  0.66965315  1
  V  V41  1  0.88880973  0.49946922  0.88040913  1
  V  V42  1  0.50305935  0.36989685  0.38650064  1
  V  V43  1  0.79937052  0.68237260  0.43063763  1
  V  V44  1  0.47850573  0.23857884  0.75852796  1
  V  V45  1  0.88034448  0.62002438  0.23415928  1
  V  V46  1  0.49462363  0.12870454  0.13784718  1
  V  V47  1  0.26287689  0.01175048  0.24972148  1
  V  V48  1  0.50964524  0.75081327  0.74122045  1
  V  V49  1  0.87174999  0.26260000  0.11339799  1
  V  V50  1  -0.00350175  0.50087895  0.50083633  1
  V  V51  1  0.13476827  0.49254803  0.62865903  1
  V  V52  1  0.34747067  0.75496066  0.62386731  1
  V  V53  1  0.85703970  -0.00889843  0.36479721  1
  V  V54  1  0.75366032  0.76234463  0.01249569  1
  V  V55  1  0.62452016  0.15024847  -0.00364480  1
  V  V56  1  0.60631627  0.50265781  0.61980088  1
  V  V57  1  0.60647782  0.62847907  0.50239242  1
  V  V58  1  0.51914523  0.61910681  0.13447731  1
  V  V59  1  0.88307809  0.63437633  0.74374402  1
  V  V60  1  0.37672720  0.22791852  0.61052937  1
  V  V61  1  -0.00465558  0.86875220  0.36554474  1
  V  V62  1  0.49709260  -0.00020343  0.51877839  1
  V  V63  1  0.65525151  0.10968793  0.49366997  1
  V  V64  1  -0.00311873  0.89478299  0.91240211  1
  V  V65  1  0.25427122  0.61714640  0.87783843  1
  V  V66  1  0.38102289  0.49943965  0.39043367  1
  V  V67  1  0.12171974  0.87094904  0.24945524  1
  V  V68  1  0.50886640  0.87951832  0.87683311  1
  V  V69  1  0.61623413  0.36939271  0.75138053  1
  Zn  Zn70  1  0.38532023  0.63775221  0.26682171  1
  Zn  Zn71  1  0.12660601  0.50547253  0.13306998  1
  Zn  Zn72  1  0.36821633  0.61928946  0.73956127  1
  Zn  Zn73  1  0.25468541  0.24590000  -0.00072596  1
  Zn  Zn74  1  -0.00869131  -0.00512781  0.49626703  1
  Zn  Zn75  1  0.04840827  0.29670944  0.74957801  1
  Zn  Zn76  1  0.18764384  0.18964411  0.19160510  1
  Zn  Zn77  1  0.26409767  0.27705290  0.76218339  1
  Zn  Zn78  1  0.19228996  0.68960949  0.19092426  1
  Zn  Zn79  1  0.18031511  0.67629346  0.69098704  1
  Zn  Zn80  1  0.68383506  0.18094453  0.17081106  1
  Zn  Zn81  1  0.68787967  0.18674806  0.69174181  1
  Zn  Zn82  1  0.69695429  0.68372959  0.19305067  1
  Zn  Zn83  1  0.66719971  0.67644808  0.70351160  1
  Zn  Zn84  1  0.30958275  0.31487430  0.33317979  1
  Zn  Zn85  1  0.23116826  0.44978701  0.79411900  1
  Zn  Zn86  1  0.31728883  0.82188486  0.30499616  1
  Zn  Zn87  1  0.32809322  0.77369964  0.83133876  1
  Zn  Zn88  1  0.77434919  0.27552582  0.26992237  1
  Zn  Zn89  1  0.78642654  0.33314508  0.87524060  1
  Zn  Zn90  1  0.80783661  0.81253222  0.29504343  1
  Zn  Zn91  1  0.82299111  0.81203348  0.82547950  1
  Zn  Zn92  1  0.18617430  0.43627433  0.43666787  1
  Zn  Zn93  1  0.16488325  0.40647373  0.96221267  1
  Zn  Zn94  1  0.18533146  0.94421441  0.42837368  1
  Zn  Zn95  1  0.20347916  0.89240233  0.91300907  1
  Zn  Zn96  1  0.67203987  0.43372831  0.44094103  1
  Zn  Zn97  1  0.67549999  0.44536066  0.93980517  1
  Zn  Zn98  1  0.67992683  0.93767459  0.42744979  1
  Zn  Zn99  1  0.69328261  0.94037461  0.94638036  1
  Zn  Zn100  1  0.32443452  0.05439877  0.06632239  1
  Zn  Zn101  1  0.31956298  0.06461486  0.54755885  1
  Zn  Zn102  1  0.30725285  0.55497618  0.06294988  1
  Zn  Zn103  1  0.31711279  0.57224832  0.56211881  1
  Zn  Zn104  1  0.84676185  0.13213305  0.00965756  1
  Zn  Zn105  1  0.86703071  0.08373695  0.56560474  1
  Zn  Zn106  1  0.81659519  0.42891005  0.04714796  1
  Zn  Zn107  1  0.80993685  0.56118643  0.56867336  1
  Zn  Zn108  1  0.44572172  0.44204461  0.19490760  1
  Zn  Zn109  1  0.40187294  0.42411869  0.70782377  1
  Zn  Zn110  1  0.44680342  0.93361222  0.19183726  1
  Zn  Zn111  1  0.43792010  0.92759220  0.68622487  1
  Zn  Zn112  1  0.93714459  0.43737937  0.19631303  1
  Zn  Zn113  1  0.93136894  0.44763094  0.68428365  1
  Zn  Zn114  1  0.93753901  0.93699934  0.17198021  1
  Zn  Zn115  1  0.83732054  0.91501272  0.56997184  1
  Zn  Zn116  1  0.05767127  0.05273776  0.30326671  1
  Zn  Zn117  1  0.06966015  0.06477093  0.94206833  1
  Zn  Zn118  1  0.06137883  0.55712408  0.31132751  1
  Zn  Zn119  1  0.06531628  0.46223649  0.81546954  1
  Zn  Zn120  1  0.57794694  0.06958375  0.32015649  1
  Zn  Zn121  1  0.56340232  0.05894461  0.81590854  1
  Zn  Zn122  1  0.56613073  0.55553476  0.31511855  1
  Zn  Zn123  1  0.52176546  0.54192549  0.79033739  1
  Zn  Zn124  1  0.45556879  0.17688376  0.43617133  1
  Zn  Zn125  1  0.43402691  0.19373268  0.94786050  1
  Zn  Zn126  1  0.43155326  0.69059911  0.44499270  1
  Zn  Zn127  1  0.44127920  0.69121409  0.94803031  1
  Zn  Zn128  1  0.93360671  0.17411629  0.42839506  1
  Zn  Zn129  1  0.92901331  0.20629626  0.86354002  1
  Zn  Zn130  1  0.96464464  0.68360489  0.42046880  1
  Zn  Zn131  1  0.93919000  0.67767181  0.94700642  1
  Zn  Zn132  1  0.05810047  0.30956679  0.05696826  1
  Zn  Zn133  1  0.05933323  0.30909740  0.56743097  1
  Zn  Zn134  1  0.06452913  0.81287994  0.07221294  1
  Zn  Zn135  1  0.06497005  0.81428581  0.54314822  1
  Zn  Zn136  1  0.55296084  0.31755437  0.06949854  1
  Zn  Zn137  1  0.55728035  0.30551125  0.57689988  1
  Zn  Zn138  1  0.56552818  0.80347041  0.06540064  1
  Zn  Zn139  1  0.57343949  0.81823699  0.55068140  1
  O  O140  1  0.11557322  0.12469295  0.12565362  1
  O  O141  1  0.05819613  0.09823359  0.63531965  1
  O  O142  1  0.13846165  0.62203819  0.11692075  1
  O  O143  1  0.12029641  0.61463200  0.61104610  1
  O  O144  1  0.60817482  0.13139852  0.10633347  1
  O  O145  1  0.62274799  0.15359598  0.59980027  1
  O  O146  1  0.61682671  0.62676837  0.12905952  1
  O  O147  1  0.62905082  0.61336455  0.61620496  1
  O  O148  1  0.39013307  0.38232482  0.37699326  1
  O  O149  1  0.37985022  0.38580313  0.88941941  1
  O  O150  1  0.39585042  0.87263952  0.36934879  1
  O  O151  1  0.39075175  0.85836471  0.89637061  1
  O  O152  1  0.88198262  0.37996641  0.38578399  1
  O  O153  1  0.87670018  0.40148645  0.86700620  1
  O  O154  1  0.88737449  0.88464247  0.33731113  1
  O  O155  1  0.91017867  0.86205511  0.87288782  1
  O  O156  1  0.24475392  0.01249315  0.35813674  1
  O  O157  1  0.26014450  -0.02515780  0.84370618  1
  O  O158  1  0.26573602  0.48672920  0.36508947  1
  O  O159  1  0.26583963  0.51850682  0.87773857  1
  O  O160  1  0.75774580  -0.01821442  0.35283410  1
  O  O161  1  0.74148077  0.01357172  0.87366876  1
  O  O162  1  0.76164943  0.48854991  0.38556369  1
  O  O163  1  0.74993946  0.51381724  0.86977546  1
  O  O164  1  0.25088894  0.48596150  0.14630699  1
  O  O165  1  0.24193397  0.49289764  0.60776877  1
  O  O166  1  0.24930723  0.99697148  0.13312912  1
  O  O167  1  0.21970045  1.03393501  0.64836283  1
  O  O168  1  0.75730834  0.49149056  0.12858295  1
  O  O169  1  0.74927257  0.48885346  0.63598767  1
  O  O170  1  0.81362184  1.01496208  0.03831189  1
  O  O171  1  0.77726018  0.98899215  0.66590968  1
  O  O172  1  0.00571555  0.36970270  0.26410374  1
  O  O173  1  0.00640376  0.39842003  0.74675689  1
  O  O174  1  0.01824329  0.88484637  0.24155987  1
  O  O175  1  0.03159049  0.93299655  0.71838363  1
  O  O176  1  0.50728523  0.35933864  0.25347983  1
  O  O177  1  0.49598093  0.37021559  0.76194161  1
  O  O178  1  0.51564841  0.87826154  0.26449550  1
  O  O179  1  0.49432355  0.86697636  0.77337900  1
  O  O180  1  0.50742239  0.13785408  0.24551413  1
  O  O181  1  0.50297273  0.14230879  0.76685556  1
  O  O182  1  0.49852900  0.61206758  0.23669331  1
  O  O183  1  0.51322675  0.65037344  0.75286114  1
  O  O184  1  0.99268258  0.13298877  0.24013226  1
  O  O185  1  1.04462857  0.10678147  0.70541889  1
  O  O186  1  0.97904333  0.61207232  0.25949427  1
  O  O187  1  0.98575187  0.62376825  0.73788502  1
  O  O188  1  0.37341465  0.27555538  0.00491894  1
  O  O189  1  0.39033389  0.23627877  0.51240119  1
  O  O190  1  0.38414753  0.76603682  0.02031462  1
  O  O191  1  0.34925757  0.74184677  0.50991858  1
  O  O192  1  0.87971407  0.24801981  0.01470009  1
  O  O193  1  0.87806371  0.25675917  0.49613621  1
  O  O194  1  0.86460536  0.73840546  0.01546882  1
  O  O195  1  0.86898872  0.73653094  0.47667092  1
  O  O196  1  0.11183986  0.24735381  0.48518430  1
  O  O197  1  0.13911188  0.28252325  0.98250066  1
  O  O198  1  0.14073774  0.73765677  0.49719985  1
  O  O199  1  0.12813773  0.73870167  1.01220123  1
  O  O200  1  0.63031716  0.21684349  0.54072414  1
  O  O201  1  0.60461507  0.24788758  0.99467776  1
  O  O202  1  0.62746639  0.73383789  0.49030035  1
  O  O203  1  0.64092464  0.74921427  0.99522389  1
  O  O204  1  0.49989154  0.24202785  0.14323787  1
  O  O205  1  0.47794714  0.25858564  0.64580635  1
  O  O206  1  0.49172085  0.72961345  0.12191462  1
  O  O207  1  0.52753787  0.76951075  0.64418608  1
  O  O208  1  0.99862086  0.24453510  0.13155320  1
  O  O209  1  0.99094293  0.26530979  0.64712951  1
  O  O210  1  0.98716330  0.74380624  0.12359212  1
  O  O211  1  1.01017544  0.73768636  0.61001108  1
  O  O212  1  0.00373041  0.25314250  0.36848167  1
  O  O213  1  0.02950856  0.25144765  0.86211605  1
  O  O214  1  -0.00393045  0.76799528  0.35445056  1
  O  O215  1  0.01607658  0.73830196  0.88695817  1
  O  O216  1  0.49728425  0.25717677  0.36078671  1
  O  O217  1  0.48663852  0.26363132  0.86825976  1
  O  O218  1  0.50837773  0.75691062  0.38421645  1
  O  O219  1  0.51184545  0.75630459  0.87971974  1
  O  O220  1  0.24177921  0.10760850  0.47883710  1
  O  O221  1  0.28759132  0.12813259  0.98304132  1
  O  O222  1  0.23803397  0.62540963  0.49223466  1
  O  O223  1  0.23864407  0.61657810  0.99401144  1
  O  O224  1  0.75415677  0.10240499  0.51254211  1
  O  O225  1  0.72810746  0.14199422  0.99479419  1
  O  O226  1  0.74616376  0.62635374  0.49873143  1
  O  O227  1  0.75092718  0.62260633  0.99122615  1
  O  O228  1  0.26390720  0.38814208  0.02447695  1
  O  O229  1  0.24834054  0.37015795  0.50409480  1
  O  O230  1  0.26955884  0.88512844  0.01041468  1
  O  O231  1  0.24407289  0.86020165  0.47794681  1
  O  O232  1  0.75165116  0.37344643  -0.02397277  1
  O  O233  1  0.74793835  0.37086606  0.51146921  1
  O  O234  1  0.75460739  0.86114931  0.00057964  1
  O  O235  1  0.73205214  0.88408305  0.52703190  1
  O  O236  1  0.13880178  0.49013135  0.25771703  1
  O  O237  1  0.13889981  0.50994706  0.72799892  1
  O  O238  1  0.13743518  0.99619279  0.23457850  1
  O  O239  1  0.10084091  0.95258326  0.72693159  1
  O  O240  1  0.64056629  0.49371780  0.24995911  1
  O  O241  1  0.62243089  0.49823062  0.73671567  1
  O  O242  1  0.62955795  0.99741284  0.24729815  1
  O  O243  1  0.62798445  0.99116712  0.75164126  1
  O  O244  1  0.36160399  -0.00223570  0.24303055  1
  O  O245  1  0.35602233  -0.01227997  0.75214164  1
  O  O246  1  0.36627841  0.50183560  0.25712720  1
  O  O247  1  0.41268363  0.52053815  0.76085535  1
  O  O248  1  0.87180579  0.01221212  0.23261685  1
  O  O249  1  0.83096078  0.00402189  0.72477225  1
  O  O250  1  0.86233625  0.50063457  0.25968477  1
  O  O251  1  0.86401218  0.51383281  0.76027435  1
  O  O252  1  0.11855772  0.36335509  0.36783167  1
  O  O253  1  0.14830904  0.39712421  0.85351752  1
  O  O254  1  0.11321618  0.88581235  0.35587305  1
  O  O255  1  0.09653267  0.86420718  0.87616574  1
  O  O256  1  0.60944558  0.38266636  0.35924761  1
  O  O257  1  0.60858481  0.38445262  0.86243591  1
  O  O258  1  0.61980632  0.85800828  0.36571609  1
  O  O259  1  0.61308681  0.86593232  0.89027837  1
  O  O260  1  0.39543872  0.12680244  0.12315475  1
  O  O261  1  0.36435235  0.12985797  0.62782384  1
  O  O262  1  0.36556965  0.63856936  0.12465349  1
  O  O263  1  0.37002232  0.64696082  0.62662564  1
  O  O264  1  0.89070100  0.13815812  0.12934894  1
  O  O265  1  0.86448878  0.16529046  0.64496758  1
  O  O266  1  0.88048853  0.62227819  0.13572579  1
  O  O267  1  0.88352060  0.62135422  0.63488154  1
  O  O268  1  0.24499520  0.26434874  0.12379793  1
  O  O269  1  0.27725018  0.26952657  0.62634552  1
  O  O270  1  0.26277714  0.76576511  0.13023031  1
  O  O271  1  0.24757821  0.75884370  0.63637858  1
  O  O272  1  0.77232144  0.25297485  0.13503373  1
  O  O273  1  0.75792888  0.27089562  0.65314272  1
  O  O274  1  0.75230363  0.74343284  0.11356541  1
  O  O275  1  0.74825783  0.77749185  0.63279363  1
  O  O276  1  0.23303822  0.23521688  0.37031095  1
  O  O277  1  0.24449470  0.25959078  0.87891905  1
  O  O278  1  0.26009244  0.74543350  0.37151871  1
  O  O279  1  0.22183520  0.78532061  0.86691257  1
  O  O280  1  0.76472754  0.26445592  0.38394234  1
  O  O281  1  0.73469641  0.23769075  0.85508694  1
  O  O282  1  0.74040640  0.74585188  0.37442401  1
  O  O283  1  0.75152288  0.73982486  0.89164037  1
  O  O284  1  -0.00373226  0.12699295  0.01385269  1
  O  O285  1  -0.03279319  0.10658704  0.50744883  1
  O  O286  1  0.02238100  0.61311520  -0.00006583  1
  O  O287  1  0.01053864  0.61867974  0.50298282  1
  O  O288  1  0.50406680  0.11402361  0.00324653  1
  O  O289  1  0.51310001  0.10282599  0.49705612  1
  O  O290  1  0.49543249  0.61420375  0.01206634  1
  O  O291  1  0.50774183  0.63059792  0.51098472  1
  O  O292  1  0.51780394  0.35932901  0.48374941  1
  O  O293  1  0.48888943  0.38259197  0.99739237  1
  O  O294  1  0.51577632  0.88936058  0.48526897  1
  O  O295  1  0.49841357  0.88250244  1.00181586  1
  O  O296  1  1.00933564  0.38513842  0.48959095  1
  O  O297  1  1.00755574  0.39625894  0.99802632  1
  O  O298  1  0.99619144  0.87161259  0.47010204  1
  O  O299  1  0.99857319  0.88189058  1.01255510  1
  O  O300  1  0.49086078  0.48289939  0.37059510  1
  O  O301  1  0.50106021  0.49304957  0.89514592  1
  O  O302  1  0.50698799  0.99138360  0.37514211  1
  O  O303  1  0.50431044  0.98437893  0.88978096  1
  O  O304  1  0.98903493  0.48914447  0.38103219  1
  O  O305  1  0.99031045  0.51587938  0.88148982  1
  O  O306  1  0.98866935  0.98887278  0.36955226  1
  O  O307  1  0.99884872  0.99455682  0.89287229  1
  O  O308  1  0.01159815  0.01738631  0.12849203  1
  O  O309  1  -0.07605976  -0.02037031  0.59419124  1
  O  O310  1  0.00143912  0.49777286  0.12007387  1
  O  O311  1  0.01028056  0.50923794  0.61318224  1
  O  O312  1  0.50086166  0.01296000  0.12040762  1
  O  O313  1  0.50629070  -0.01162944  0.61873508  1
  O  O314  1  0.49564594  0.51234855  0.11924720  1
  O  O315  1  0.51066817  0.49639493  0.62206413  1
  O  O316  1  0.24584563  0.37388558  0.24786637  1
  O  O317  1  0.28500677  0.38701936  0.72128159  1
  O  O318  1  0.24429988  0.88967938  0.24308647  1
  O  O319  1  0.29873711  0.94062735  0.78279423  1
  O  O320  1  0.74136070  0.38782336  0.25124197  1
  O  O321  1  0.73277653  0.39213657  0.75261783  1
  O  O322  1  0.72334857  0.86222517  0.24302705  1
  O  O323  1  0.74322500  0.88079417  0.78459166  1
  O  O324  1  0.24991461  0.11695652  0.25440152  1
  O  O325  1  0.21273136  0.07805734  0.70586331  1
  O  O326  1  0.25226457  0.61043718  0.25254528  1
  O  O327  1  0.25251937  0.63554771  0.77099557  1
  O  O328  1  0.76660370  0.13611194  0.23877812  1
  O  O329  1  0.73050800  0.11346148  0.76586346  1
  O  O330  1  0.76026206  0.60317863  0.24669325  1
  O  O331  1  0.75436786  0.61540018  0.74745616  1
  O  O332  1  0.36155483  0.13340346  0.37808185  1
  O  O333  1  0.34135656  0.12352398  0.92251324  1
  O  O334  1  0.38996683  0.60650468  0.37586761  1
  O  O335  1  0.35078207  0.66472441  0.88403090  1
  O  O336  1  0.87603336  0.10580206  0.35064346  1
  O  O337  1  0.84909625  0.13281292  0.89207651  1
  O  O338  1  0.86609327  0.61836372  0.37248272  1
  O  O339  1  0.86376696  0.61942052  0.86794930  1
  O  O340  1  0.12826186  0.37553281  0.14326830  1
  O  O341  1  0.12947785  0.39002366  0.61819357  1
  O  O342  1  0.13830392  0.88480667  0.13003034  1
  O  O343  1  0.12169396  0.91358327  0.57635672  1
  O  O344  1  0.61516285  0.37757389  0.14291852  1
  O  O345  1  0.62856724  0.38676242  0.63019880  1
  O  O346  1  0.60779737  0.87662421  0.13822585  1
  O  O347  1  0.68063310  0.86738259  0.58647676  1
  O  O348  1  0.11308659  0.25515041  0.25818429  1
  O  O349  1  0.14990073  0.24571811  0.76660495  1
  O  O350  1  0.13392067  0.77175905  0.24226182  1
  O  O351  1  0.10866860  0.74097214  0.75569853  1
  O  O352  1  0.64610495  0.26483773  0.24893552  1
  O  O353  1  0.60635585  0.26711103  0.73826043  1
  O  O354  1  0.62343258  0.72930444  0.27025758  1
  O  O355  1  0.62171093  0.75786126  0.76931412  1
  O  O356  1  0.37851754  0.25240674  0.25538602  1
  O  O357  1  0.37692555  0.23846952  0.75170834  1
  O  O358  1  0.37653411  0.75014120  0.23520254  1
  O  O359  1  0.39202372  0.74746817  0.73842857  1
  O  O360  1  0.88760737  0.24572312  0.24336298  1
  O  O361  1  0.88314366  0.26195259  0.76971338  1
  O  O362  1  0.86153897  0.72722984  0.23695524  1
  O  O363  1  0.86649260  0.73117608  0.75563708  1
  O  O364  1  0.37300171  0.50378840  0.48785158  1
  O  O365  1  0.38669428  0.48712792  1.01468343  1
  O  O366  1  0.39519702  0.99418975  0.50706838  1
  O  O367  1  0.39426480  0.98263133  1.00802438  1
  O  O368  1  0.88788969  0.50794550  0.49499376  1
  O  O369  1  0.89020944  0.50579261  0.99005288  1
  O  O370  1  0.85633057  0.97699053  0.46327671  1
  O  O371  1  0.87194953  0.96926352  1.04387609  1
  O  O372  1  0.13901312  0.00067913  0.01352996  1
  O  O373  1  0.11532110  -0.02732252  0.52206806  1
  O  O374  1  0.11743723  0.50331695  0.00997747  1
  O  O375  1  0.11738535  0.50918571  0.50018121  1
  O  O376  1  0.61346419  0.00002632  0.00596310  1
  O  O377  1  0.62435862  0.00667027  0.49986676  1
  O  O378  1  0.60556688  0.49619424  0.01084482  1
  O  O379  1  0.62712528  0.51169582  0.51199658  1
  O  O380  1  0.36818971  0.37273841  0.13668213  1
  O  O381  1  0.37736186  0.38918709  0.59765526  1
  O  O382  1  0.37527365  0.86841886  0.12296294  1
  O  O383  1  0.38200188  0.84994604  0.62395992  1
  O  O384  1  0.88422415  0.36716781  0.12279728  1
  O  O385  1  0.86456208  0.36789436  0.63392644  1
  O  O386  1  0.87258414  0.84937628  0.14276605  1
  O  O387  1  0.81873184  0.79982529  0.62052156  1
  O  O388  1  0.11752291  0.13400504  0.36938044  1
  O  O389  1  0.14078918  0.13681765  0.89488463  1
  O  O390  1  0.11663814  0.62189340  0.38728816  1
  O  O391  1  0.14624386  0.64583446  0.88817056  1
  O  O392  1  0.63978478  0.12928501  0.39456054  1
  O  O393  1  0.62606694  0.12269978  0.89161564  1
  O  O394  1  0.61445225  0.62814849  0.39144906  1
  O  O395  1  0.64307953  0.63659999  0.87325870  1
