# generated using pymatgen
data_V35Zn35O128
_symmetry_space_group_name_H-M   'P 1'
_cell_length_a   16.96390043
_cell_length_b   16.95845652
_cell_length_c   16.86366816
_cell_angle_alpha   89.92385711
_cell_angle_beta   89.94357661
_cell_angle_gamma   89.80256532
_symmetry_Int_Tables_number   1
_chemical_formula_structural   V35Zn35O128
_chemical_formula_sum   'V70 Zn70 O256'
_cell_volume   4851.33107784
_cell_formula_units_Z   2
loop_
 _symmetry_equiv_pos_site_id
 _symmetry_equiv_pos_as_xyz
  1  'x, y, z'
loop_
 _atom_site_type_symbol
 _atom_site_label
 _atom_site_symmetry_multiplicity
 _atom_site_fract_x
 _atom_site_fract_y
 _atom_site_fract_z
 _atom_site_occupancy
  V  V0  1  0.27159439  0.50163985  0.25682539  1
  V  V1  1  0.00376000  0.27284238  0.24583382  1
  V  V2  1  0.62315468  0.37801759  0.24550676  1
  V  V3  1  0.36076475  0.85124565  0.50816796  1
  V  V4  1  0.38555238  0.64595312  0.73511101  1
  V  V5  1  0.86225654  0.49548996  0.89226147  1
  V  V6  1  0.75244144  0.50503808  0.25667220  1
  V  V7  1  0.25547080  0.87868860  0.12344986  1
  V  V8  1  0.25831660  0.37780469  0.11912597  1
  V  V9  1  0.48245254  0.50440964  -0.00164268  1
  V  V10  1  0.88400596  0.38097750  0.49792644  1
  V  V11  1  0.87134463  0.25397643  0.62990074  1
  V  V12  1  0.01037528  0.25411575  0.75644710  1
  V  V13  1  0.35791811  0.37974141  0.50945459  1
  V  V14  1  0.88806505  0.50413726  0.38047719  1
  V  V15  1  0.24546794  0.20756590  -0.04622259  1
  V  V16  1  0.12088992  0.86243953  0.25928269  1
  V  V17  1  0.49624594  0.38298378  0.38353010  1
  V  V18  1  0.61928690  0.88326451  0.74634073  1
  V  V19  1  0.38065257  0.22440311  0.61716776  1
  V  V20  1  0.12681250  0.01330200  0.11637632  1
  V  V21  1  0.48791808  -0.00845843  0.01068279  1
  V  V22  1  0.37493218  0.75617696  0.13047684  1
  V  V23  1  0.49384276  0.24864793  0.23245839  1
  V  V24  1  0.37071957  0.12050741  0.25095243  1
  V  V25  1  0.13981774  0.23794952  0.38605094  1
  V  V26  1  0.86471596  0.87633795  -0.00351342  1
  V  V27  1  0.49284095  0.02619206  0.47907524  1
  V  V28  1  0.37497707  -0.00141459  0.84310602  1
  V  V29  1  0.62475793  0.50644333  0.12228145  1
  V  V30  1  0.12852183  0.62440790  -0.01119490  1
  V  V31  1  0.75999395  0.88098470  0.61589661  1
  V  V32  1  0.01056276  0.74628951  0.76729779  1
  V  V33  1  0.09439999  -0.01148052  0.59183802  1
  V  V34  1  0.85834202  0.62093815  0.76482275  1
  V  V35  1  0.87825647  0.63126388  0.25238168  1
  V  V36  1  0.00786558  0.60987535  0.63368364  1
  V  V37  1  0.11034886  0.61214414  0.48514274  1
  V  V38  1  0.73583001  0.38188713  0.64085982  1
  V  V39  1  0.63162039  0.74956826  0.86358942  1
  V  V40  1  0.50034818  0.76228608  0.26638714  1
  V  V41  1  0.63926276  0.87562374  0.25430748  1
  V  V42  1  0.85942230  0.75702712  0.12366288  1
  V  V43  1  0.63632656  0.64024066  0.00092623  1
  V  V44  1  0.00225190  0.38012909  0.89536323  1
  V  V45  1  0.63343295  0.12718174  0.51800698  1
  V  V46  1  0.49616440  0.63376892  0.13335324  1
  V  V47  1  0.75670057  -0.00227449  0.75493502  1
  V  V48  1  0.63827714  -0.00866027  0.12735555  1
  V  V49  1  0.23037611  0.74535595  0.53152905  1
  V  V50  1  0.25087029  0.00344407  0.26462020  1
  V  V51  1  0.27449554  0.63450773  0.37235686  1
  V  V52  1  0.11968136  0.38863941  0.73167838  1
  V  V53  1  0.88032566  0.00661604  0.36451261  1
  V  V54  1  0.76767496  0.37747904  0.12124888  1
  V  V55  1  0.61349512  0.12717193  0.00811182  1
  V  V56  1  0.01014547  0.64225904  0.12642033  1
  V  V57  1  0.74999305  0.25512183  0.49212960  1
  V  V58  1  0.62910321  0.24100725  0.36565349  1
  V  V59  1  0.74989915  0.12429373  0.88040741  1
  V  V60  1  0.76208320  0.25407824  0.00544571  1
  V  V61  1  0.25492193  0.75511815  -0.01619712  1
  V  V62  1  0.87500338  0.75025691  0.62409250  1
  V  V63  1  0.12031319  0.49681980  0.13312729  1
  V  V64  1  0.00248158  0.13031014  0.61307893  1
  V  V65  1  0.01897926  0.87651951  0.88130467  1
  V  V66  1  0.21942102  -0.02264637  0.73522758  1
  V  V67  1  0.87273516  0.12417013  0.75574268  1
  V  V68  1  0.26787016  0.48463825  0.74852490  1
  V  V69  1  0.49914268  0.21374587  0.74555056  1
  Zn  Zn70  1  0.30431203  0.58143227  0.89566930  1
  Zn  Zn71  1  0.65054765  0.77277817  0.41366943  1
  Zn  Zn72  1  0.37340898  0.25416284  0.10212594  1
  Zn  Zn73  1  0.00368432  0.00270284  -0.00050837  1
  Zn  Zn74  1  0.61369110  0.27247408  0.86256209  1
  Zn  Zn75  1  0.49186400  0.86960041  0.88411461  1
  Zn  Zn76  1  0.18469028  0.19456359  0.19571821  1
  Zn  Zn77  1  0.19807114  0.17429452  0.56105180  1
  Zn  Zn78  1  0.19441767  0.68667322  0.19554281  1
  Zn  Zn79  1  0.19029746  0.66281438  0.71478245  1
  Zn  Zn80  1  0.67827409  0.19451027  0.17197817  1
  Zn  Zn81  1  0.68719332  0.19734552  0.69286279  1
  Zn  Zn82  1  0.68648422  0.69108809  0.19507740  1
  Zn  Zn83  1  0.69107209  0.69485020  0.68089812  1
  Zn  Zn84  1  0.31362060  0.31939561  0.31444538  1
  Zn  Zn85  1  0.27140732  0.26069783  0.74926618  1
  Zn  Zn86  1  0.31111147  0.81862697  0.31830418  1
  Zn  Zn87  1  0.31998118  0.82165609  0.79878568  1
  Zn  Zn88  1  0.81793150  0.31789505  0.30918360  1
  Zn  Zn89  1  0.81221924  0.31646140  0.82172686  1
  Zn  Zn90  1  0.81457223  0.81282449  0.31097649  1
  Zn  Zn91  1  0.81713816  0.80919648  0.81829230  1
  Zn  Zn92  1  0.19092539  0.44129983  0.42435798  1
  Zn  Zn93  1  0.18474831  0.43074019  0.93368504  1
  Zn  Zn94  1  0.19038973  0.93524346  0.44372738  1
  Zn  Zn95  1  0.20123131  0.94648890  0.93152697  1
  Zn  Zn96  1  0.69040458  0.43200589  0.43619959  1
  Zn  Zn97  1  0.67814562  0.43899377  0.93429987  1
  Zn  Zn98  1  0.69391966  0.94916224  0.42906383  1
  Zn  Zn99  1  0.68298640  0.93817190  0.93497495  1
  Zn  Zn100  1  0.31010918  0.07432588  0.06932572  1
  Zn  Zn101  1  0.31502640  0.03515011  0.58001701  1
  Zn  Zn102  1  0.30909636  0.57204521  0.07362195  1
  Zn  Zn103  1  0.29148292  0.56165672  0.56193493  1
  Zn  Zn104  1  0.81013423  0.05335164  0.05554020  1
  Zn  Zn105  1  0.81443393  0.06664408  0.56465901  1
  Zn  Zn106  1  0.81537892  0.56887372  0.06844754  1
  Zn  Zn107  1  0.82698835  0.55033998  0.58478856  1
  Zn  Zn108  1  0.44037854  0.43634347  0.18131033  1
  Zn  Zn109  1  0.41079196  0.48138682  0.63617440  1
  Zn  Zn110  1  0.44384482  0.93909412  0.18813381  1
  Zn  Zn111  1  0.44894881  0.94603661  0.65559937  1
  Zn  Zn112  1  0.94712175  0.44222175  0.19096204  1
  Zn  Zn113  1  0.92489415  0.43558263  0.69840887  1
  Zn  Zn114  1  0.94990448  0.93312055  0.17805311  1
  Zn  Zn115  1  0.95522675  0.92558315  0.68350160  1
  Zn  Zn116  1  0.07570115  0.06891389  0.31312573  1
  Zn  Zn117  1  0.05371836  0.06388902  0.81838848  1
  Zn  Zn118  1  0.06162619  0.55904149  0.30555950  1
  Zn  Zn119  1  0.04891248  0.55478185  0.81837385  1
  Zn  Zn120  1  0.55871690  0.06286873  0.30138044  1
  Zn  Zn121  1  0.56525424  0.05666811  0.82610680  1
  Zn  Zn122  1  0.55356267  0.56378034  0.31086575  1
  Zn  Zn123  1  0.51843072  0.59681979  0.83749513  1
  Zn  Zn124  1  0.43897691  0.19874325  0.43066682  1
  Zn  Zn125  1  0.42645042  0.18286016  0.92660554  1
  Zn  Zn126  1  0.43601328  0.71327169  0.45191852  1
  Zn  Zn127  1  0.44219124  0.69883753  0.94323731  1
  Zn  Zn128  1  0.94317441  0.20190693  0.42926342  1
  Zn  Zn129  1  0.93766924  0.19506716  0.93697523  1
  Zn  Zn130  1  0.81533324  0.68543605  0.44355141  1
  Zn  Zn131  1  0.93456296  0.68593417  0.94421435  1
  Zn  Zn132  1  0.08408160  0.29639131  0.06289912  1
  Zn  Zn133  1  0.09554611  0.34816987  0.52361633  1
  Zn  Zn134  1  0.07597618  0.81623142  0.06176667  1
  Zn  Zn135  1  0.05667914  0.79206585  0.56844106  1
  Zn  Zn136  1  0.56785876  0.32799776  0.03961273  1
  Zn  Zn137  1  0.55794254  0.30794448  0.56716901  1
  Zn  Zn138  1  0.56441806  0.81544371  0.06782994  1
  Zn  Zn139  1  0.56443701  0.85659705  0.55004128  1
  O  O140  1  0.14083067  0.11142063  0.12740908  1
  O  O141  1  0.10489799  0.11121526  0.61393838  1
  O  O142  1  0.11803020  0.62494707  0.12799559  1
  O  O143  1  0.10832778  0.61573390  0.64252138  1
  O  O144  1  0.62923824  0.10854522  0.11708042  1
  O  O145  1  0.63316836  0.12571720  0.61700801  1
  O  O146  1  0.62044134  0.62459871  0.12087207  1
  O  O147  1  0.68359289  0.63554857  0.57314274  1
  O  O148  1  0.39012662  0.36587447  0.39339819  1
  O  O149  1  0.37416677  0.36871135  0.89335367  1
  O  O150  1  0.35633662  0.87545967  0.40942095  1
  O  O151  1  0.38021687  0.89051656  0.86879684  1
  O  O152  1  0.87170545  0.38871756  0.38962033  1
  O  O153  1  0.88438970  0.38660044  0.87560589  1
  O  O154  1  0.87553847  0.90209554  0.36739941  1
  O  O155  1  0.88413454  0.86509492  0.89471646  1
  O  O156  1  0.25157487  -0.00396041  0.36239143  1
  O  O157  1  0.26297728  -0.00938083  0.84416462  1
  O  O158  1  0.25280806  0.51573659  0.36497590  1
  O  O159  1  0.24846046  0.48961173  0.86003142  1
  O  O160  1  0.77524607  0.01151615  0.36100768  1
  O  O161  1  0.74839555  0.01442427  0.87027023  1
  O  O162  1  0.75566350  0.49333562  0.36001093  1
  O  O163  1  0.76163745  0.48791537  0.88046947  1
  O  O164  1  0.24764408  0.50111618  0.13984222  1
  O  O165  1  0.24318011  0.50292502  0.65075889  1
  O  O166  1  0.24765647  0.99145770  0.12964596  1
  O  O167  1  0.18568030  0.95976973  0.62066417  1
  O  O168  1  0.74462064  0.49259917  0.13052245  1
  O  O169  1  0.75086109  0.48140357  0.62991256  1
  O  O170  1  0.73724604  0.99519771  0.12168486  1
  O  O171  1  0.76615972  0.98928390  0.63745952  1
  O  O172  1  0.01200678  0.37458253  0.25251117  1
  O  O173  1  0.00243449  0.36595921  0.74864820  1
  O  O174  1  0.02152584  0.87872302  0.24680513  1
  O  O175  1  -0.00645682  0.85633297  0.76953720  1
  O  O176  1  0.50877592  0.36953823  0.25186421  1
  O  O177  1  0.43285350  0.37728321  0.85261164  1
  O  O178  1  0.50945200  0.86644322  0.25181945  1
  O  O179  1  0.52149907  0.88344117  0.72881680  1
  O  O180  1  0.49390429  0.14205485  0.24239274  1
  O  O181  1  0.51248167  0.11549909  0.74183087  1
  O  O182  1  0.51549837  0.64577871  0.24228058  1
  O  O183  1  0.48891419  0.63071757  0.73552493  1
  O  O184  1  1.00470156  0.14473639  0.27003708  1
  O  O185  1  0.98967357  0.14192964  0.75520997  1
  O  O186  1  0.98802806  0.62156402  0.23776193  1
  O  O187  1  0.98999074  0.63156443  0.75232527  1
  O  O188  1  0.34570075  0.23675204  -0.01019429  1
  O  O189  1  0.38578163  0.25921609  0.51165353  1
  O  O190  1  0.36142465  0.74631298  0.01304858  1
  O  O191  1  0.33849414  0.74185170  0.51624945  1
  O  O192  1  0.86065248  0.24323913  0.00700582  1
  O  O193  1  0.86860884  0.26421709  0.50255403  1
  O  O194  1  0.87758841  0.75790117  0.01581953  1
  O  O195  1  0.87902271  0.73675174  0.52478203  1
  O  O196  1  0.13131206  0.24165920  0.49812103  1
  O  O197  1  0.16506608  0.25572217  0.99410303  1
  O  O198  1  0.12561788  0.72909567  0.50700852  1
  O  O199  1  0.14600719  0.73673513  1.00750277  1
  O  O200  1  0.63233692  0.24094111  0.48713589  1
  O  O201  1  0.63445285  0.22980447  1.01999145  1
  O  O202  1  0.61682641  0.76564322  0.51753635  1
  O  O203  1  0.62774750  0.74241950  1.00479299  1
  O  O204  1  0.49933028  0.26439978  0.13045985  1
  O  O205  1  0.49595441  0.24596176  0.63698545  1
  O  O206  1  0.49165449  0.74974276  0.13058994  1
  O  O207  1  0.54267364  0.66367484  0.56804972  1
  O  O208  1  1.02126292  0.25353072  0.14529425  1
  O  O209  1  0.98641932  0.24163347  0.64102372  1
  O  O210  1  1.00398745  0.74228092  0.12843063  1
  O  O211  1  0.98766491  0.73855381  0.64530111  1
  O  O212  1  0.01900170  0.25328007  0.36845092  1
  O  O213  1  -0.01410582  0.26788096  0.86120648  1
  O  O214  1  -0.02096537  0.77295006  0.38317213  1
  O  O215  1  -0.00006355  0.75122779  0.87263421  1
  O  O216  1  0.51339091  0.26316391  0.35921413  1
  O  O217  1  0.49542314  0.23507556  0.85237991  1
  O  O218  1  0.50797767  0.74628091  0.36612415  1
  O  O219  1  0.52091691  0.75934984  0.88612037  1
  O  O220  1  0.24036109  0.08227706  0.51148368  1
  O  O221  1  0.24460390  0.10979950  0.98186644  1
  O  O222  1  0.23336696  0.63098897  0.48803237  1
  O  O223  1  0.24700874  0.63564407  0.99190321  1
  O  O224  1  0.74699589  0.14527446  0.50578559  1
  O  O225  1  0.74876495  0.13376301  0.99895470  1
  O  O226  1  0.74602303  0.62049191  0.52755593  1
  O  O227  1  0.73391963  0.62372721  1.00738000  1
  O  O228  1  0.25097987  0.39169150  0.01916459  1
  O  O229  1  0.25957444  0.37617908  0.50050847  1
  O  O230  1  0.24517888  0.86151831  0.01010853  1
  O  O231  1  0.23620953  0.84835025  0.50927829  1
  O  O232  1  0.75077446  0.36574689  0.01316050  1
  O  O233  1  0.75427365  0.36852697  0.50908680  1
  O  O234  1  0.76541247  0.88333480  -0.00454250  1
  O  O235  1  0.74922086  0.88831331  0.51660375  1
  O  O236  1  0.13681912  0.50948528  0.23701005  1
  O  O237  1  0.11588985  0.48816980  0.75065210  1
  O  O238  1  0.14138940  0.99873153  0.24305342  1
  O  O239  1  0.12061794  1.00270920  0.75402857  1
  O  O240  1  0.63249910  0.49929061  0.24234381  1
  O  O241  1  0.58034612  0.51417434  0.68171252  1
  O  O242  1  0.62154802  0.98953879  0.23761897  1
  O  O243  1  0.63920541  0.98890546  0.75741997  1
  O  O244  1  0.36976758  0.01293366  0.24410669  1
  O  O245  1  0.40848691  -0.00331773  0.74900608  1
  O  O246  1  0.37085301  0.50485151  0.24667791  1
  O  O247  1  0.36781690  0.47227464  0.74625255  1
  O  O248  1  0.88599605  0.00286282  0.26063723  1
  O  O249  1  0.86967896  0.01819677  0.75153630  1
  O  O250  1  0.87193625  0.50627632  0.26063736  1
  O  O251  1  0.87347699  0.51506761  0.76474436  1
  O  O252  1  0.11776800  0.35924515  0.40886224  1
  O  O253  1  0.10365840  0.38107457  0.86640024  1
  O  O254  1  0.13908670  0.87729566  0.35810403  1
  O  O255  1  0.11800279  0.87461438  0.88222387  1
  O  O256  1  0.62110063  0.37148205  0.35893374  1
  O  O257  1  0.60465416  0.35831457  0.93113499  1
  O  O258  1  0.63527452  0.87957936  0.36219088  1
  O  O259  1  0.62260755  0.86935242  0.86101561  1
  O  O260  1  0.36492801  0.14478113  0.14262147  1
  O  O261  1  0.39351121  0.12785424  0.60624797  1
  O  O262  1  0.38643641  0.64093970  0.13086450  1
  O  O263  1  0.37467229  0.60075480  0.63832871  1
  O  O264  1  0.84032589  0.12548173  0.15821033  1
  O  O265  1  0.87410793  0.13776014  0.63596614  1
  O  O266  1  0.88863183  0.63780658  0.12803834  1
  O  O267  1  0.87983217  0.63290586  0.64486689  1
  O  O268  1  0.24365881  0.27711764  0.13944259  1
  O  O269  1  0.27338187  0.23118186  0.63447435  1
  O  O270  1  0.26267832  0.75865186  0.13085200  1
  O  O271  1  0.22855258  0.73499002  0.62980520  1
  O  O272  1  0.75028210  0.26826248  0.11976796  1
  O  O273  1  0.75839233  0.25811745  0.61752218  1
  O  O274  1  0.76125859  0.74920230  0.12640121  1
  O  O275  1  0.76754610  0.76726633  0.63498067  1
  O  O276  1  0.23802736  0.25639823  0.36716504  1
  O  O277  1  0.24866858  0.22102753  0.85286337  1
  O  O278  1  0.25080458  0.73324875  0.37000793  1
  O  O279  1  0.26101835  0.76012616  0.88559342  1
  O  O280  1  0.74233571  0.26491923  0.38097012  1
  O  O281  1  0.74306035  0.24835038  0.89383078  1
  O  O282  1  0.75139096  0.74469365  0.37499227  1
  O  O283  1  0.73048935  0.75713251  0.87838802  1
  O  O284  1  0.02085362  0.12162205  -0.02960497  1
  O  O285  1  -0.01910136  0.13706515  0.51627549  1
  O  O286  1  0.01711558  0.63389699  0.01498082  1
  O  O287  1  0.01064548  0.62415363  0.52457048  1
  O  O288  1  0.51196372  0.11976036  -0.00210924  1
  O  O289  1  0.52420753  0.13056854  0.48912788  1
  O  O290  1  0.51061341  0.62393853  0.01649269  1
  O  O291  1  0.49640063  0.63082573  0.52110043  1
  O  O292  1  0.51706205  0.37641348  0.48304904  1
  O  O293  1  0.48397157  0.40769124  1.02772619  1
  O  O294  1  0.45829550  0.81653809  0.51635468  1
  O  O295  1  0.50194244  0.88808071  1.00490372  1
  O  O296  1  0.98008155  0.37717570  0.51250630  1
  O  O297  1  1.00918773  0.35899983  0.99240682  1
  O  O298  1  1.00157004  0.81914887  0.43469704  1
  O  O299  1  1.00082504  0.86923069  0.99155274  1
  O  O300  1  0.49820040  0.48105057  0.36283186  1
  O  O301  1  0.51124208  0.50389193  0.90105733  1
  O  O302  1  0.51543049  0.99771512  0.38425443  1
  O  O303  1  0.49551928  0.99348647  0.89258875  1
  O  O304  1  0.98580606  0.50141894  0.37323360  1
  O  O305  1  0.98603299  0.48617847  0.88412307  1
  O  O306  1  0.98451057  1.00303976  0.37067222  1
  O  O307  1  0.99905702  0.97896868  0.87815847  1
  O  O308  1  0.02202785  0.00242130  0.12237666  1
  O  O309  1  -0.01180203  0.02652512  0.63410291  1
  O  O310  1  0.01626116  0.51213229  0.12798775  1
  O  O311  1  -0.01691687  0.51314162  0.63557822  1
  O  O312  1  0.51239398  -0.00065695  0.11550641  1
  O  O313  1  0.51970732  -0.03861671  0.56244564  1
  O  O314  1  0.50847349  0.51777469  0.12981312  1
  O  O315  1  0.53717530  0.49430168  0.62532037  1
  O  O316  1  0.25549380  0.39754968  0.24894145  1
  O  O317  1  0.22681895  0.37552369  0.75043662  1
  O  O318  1  0.25255730  0.88869380  0.24352111  1
  O  O319  1  0.24894510  0.87947515  0.73344154  1
  O  O320  1  0.74355041  0.38259752  0.23805622  1
  O  O321  1  0.74581853  0.36260215  0.74080325  1
  O  O322  1  0.73824610  0.87126793  0.24513882  1
  O  O323  1  0.75559803  0.88879880  0.75454496  1
  O  O324  1  0.25919454  0.11313805  0.25054514  1
  O  O325  1  0.27615658  0.04895512  0.69291742  1
  O  O326  1  0.25809826  0.61876724  0.26301818  1
  O  O327  1  0.27560504  0.60529916  0.76415603  1
  O  O328  1  0.78573077  0.13566501  0.20884332  1
  O  O329  1  0.75275938  0.12170176  0.75923065  1
  O  O330  1  0.76446274  0.61413975  0.23788852  1
  O  O331  1  0.75964925  0.62996679  0.75051204  1
  O  O332  1  0.38146163  0.14104173  0.34958698  1
  O  O333  1  0.38012038  0.09431495  0.87397917  1
  O  O334  1  0.37211599  0.63356302  0.38965474  1
  O  O335  1  0.39690424  0.63455852  0.85578651  1
  O  O336  1  0.88420947  0.11136115  0.36533570  1
  O  O337  1  0.86008296  0.13839356  0.86811703  1
  O  O338  1  0.87127302  0.61206826  0.36978796  1
  O  O339  1  0.87563133  0.61502352  0.87329950  1
  O  O340  1  0.13425065  0.39585378  0.12108796  1
  O  O341  1  0.11277603  0.37800178  0.63268380  1
  O  O342  1  0.14079124  0.88284961  0.13652547  1
  O  O343  1  0.04283431  0.89508876  0.60392693  1
  O  O344  1  0.62863334  0.38948706  0.13182769  1
  O  O345  1  0.63842238  0.36751830  0.61965772  1
  O  O346  1  0.62578977  0.88480337  0.13411440  1
  O  O347  1  0.65208307  0.87174798  0.64326682  1
  O  O348  1  0.11668045  0.24663111  0.27013518  1
  O  O349  1  0.10871324  0.26023434  0.75112478  1
  O  O350  1  0.13108351  0.76285065  0.24765147  1
  O  O351  1  0.10868832  0.73674062  0.75604348  1
  O  O352  1  0.61853408  0.26055904  0.24535317  1
  O  O353  1  0.60484170  0.24964875  0.75039254  1
  O  O354  1  0.61627597  0.76587698  0.24676232  1
  O  O355  1  0.62872267  0.75881656  0.75643881  1
  O  O356  1  0.39114416  0.25761766  0.24790596  1
  O  O357  1  0.39093952  0.23741361  0.73245995  1
  O  O358  1  0.39231775  0.76162924  0.24826839  1
  O  O359  1  0.36918053  0.74401628  0.72785807  1
  O  O360  1  0.90003034  0.26459118  0.25827889  1
  O  O361  1  0.87170653  0.24539986  0.74338759  1
  O  O362  1  0.87296691  0.74115511  0.23928939  1
  O  O363  1  0.88074531  0.73577796  0.75420338  1
  O  O364  1  0.37252597  0.48500783  0.51685203  1
  O  O365  1  0.38220555  0.52811657  0.99506510  1
  O  O366  1  0.39538601  1.03353268  0.48042531  1
  O  O367  1  0.38930828  1.00521911  1.01557399  1
  O  O368  1  0.86778048  0.49411131  0.49048720  1
  O  O369  1  0.87241583  0.50746824  0.99230021  1
  O  O370  1  0.87351223  1.00920024  0.47100952  1
  O  O371  1  0.88807939  0.98180772  1.01752690  1
  O  O372  1  0.13271314  -0.00729025  0.01369210  1
  O  O373  1  0.10209683  -0.00805686  0.49195264  1
  O  O374  1  0.13999503  0.52178976  0.01813221  1
  O  O375  1  0.13089446  0.51451643  0.49853792  1
  O  O376  1  0.62063916  0.00689728  0.00907286  1
  O  O377  1  0.64378612  0.03131183  0.48671591  1
  O  O378  1  0.62040043  0.51377127  0.01434488  1
  O  O379  1  0.62308044  0.53108701  0.46593647  1
  O  O380  1  0.36291718  0.37297415  0.12774831  1
  O  O381  1  0.38518103  0.36646972  0.60993786  1
  O  O382  1  0.36765692  0.86821100  0.13043148  1
  O  O383  1  0.35723059  0.92218916  0.58672759  1
  O  O384  1  0.86473320  0.38814492  0.12856471  1
  O  O385  1  0.86401964  0.36964788  0.61910033  1
  O  O386  1  0.88087748  0.86063025  0.12204374  1
  O  O387  1  0.87199311  0.86241629  0.63135836  1
  O  O388  1  0.13314485  0.13556535  0.38337552  1
  O  O389  1  0.08104869  0.12765906  0.91298427  1
  O  O390  1  0.10699658  0.62530261  0.38517071  1
  O  O391  1  0.11784163  0.61664695  0.89060864  1
  O  O392  1  0.63005831  0.14187673  0.35261937  1
  O  O393  1  0.63568088  0.12600244  0.89408925  1
  O  O394  1  0.61923078  0.58794089  0.41407442  1
  O  O395  1  0.61861151  0.64022579  0.88913131  1
