# generated using pymatgen
data_V35Zn35O128
_symmetry_space_group_name_H-M   'P 1'
_cell_length_a   16.84770794
_cell_length_b   16.85290477
_cell_length_c   16.92793188
_cell_angle_alpha   90.41833409
_cell_angle_beta   89.88789015
_cell_angle_gamma   89.93153427
_symmetry_Int_Tables_number   1
_chemical_formula_structural   V35Zn35O128
_chemical_formula_sum   'V70 Zn70 O256'
_cell_volume   4806.25456501
_cell_formula_units_Z   2
loop_
 _symmetry_equiv_pos_site_id
 _symmetry_equiv_pos_as_xyz
  1  'x, y, z'
loop_
 _atom_site_type_symbol
 _atom_site_label
 _atom_site_symmetry_multiplicity
 _atom_site_fract_x
 _atom_site_fract_y
 _atom_site_fract_z
 _atom_site_occupancy
  V  V0  1  0.61121925  0.25821124  0.86705623  1
  V  V1  1  0.91711356  0.13125618  0.71274892  1
  V  V2  1  0.75100561  0.13834313  0.38207650  1
  V  V3  1  -0.00911461  -0.00663125  -0.00865935  1
  V  V4  1  0.37094113  0.87940590  0.01414979  1
  V  V5  1  0.38847191  0.25027756  0.14074707  1
  V  V6  1  0.75921918  0.75737005  -0.00117541  1
  V  V7  1  0.75375160  0.88696080  0.63608310  1
  V  V8  1  0.87637784  0.37497747  0.00252165  1
  V  V9  1  0.87562824  0.74751988  0.62740464  1
  V  V10  1  0.88615181  0.24590043  0.12381314  1
  V  V11  1  0.37282815  0.37074385  -0.00466224  1
  V  V12  1  0.12120974  0.24770409  0.86855022  1
  V  V13  1  0.25349338  0.49483148  0.25785289  1
  V  V14  1  0.50207187  0.75116071  0.25569931  1
  V  V15  1  0.37961761  0.37942797  0.49388116  1
  V  V16  1  0.37472779  -0.00619652  0.87811991  1
  V  V17  1  0.25080580  0.36553737  0.13091659  1
  V  V18  1  0.74847869  0.24853478  -0.00572215  1
  V  V19  1  0.62184600  0.12328311  0.00022622  1
  V  V20  1  0.00343409  0.51294317  0.00507063  1
  V  V21  1  0.87213948  0.86802843  0.49503150  1
  V  V22  1  0.61246145  0.85935190  0.73878944  1
  V  V23  1  0.88696677  0.13343805  0.24749688  1
  V  V24  1  0.49717099  0.51519500  0.48673937  1
  V  V25  1  0.86134323  0.48655854  0.36458004  1
  V  V26  1  0.38925357  0.24126763  0.62627474  1
  V  V27  1  0.62847626  -0.00656703  0.12537372  1
  V  V28  1  0.11156458  0.24560367  0.37225503  1
  V  V29  1  0.12088443  0.12327165  0.00519488  1
  V  V30  1  0.13377724  0.38821765  0.75324912  1
  V  V31  1  0.74681948  0.47845711  0.74474042  1
  V  V32  1  0.87373505  0.50047958  0.87761365  1
  V  V33  1  0.23963549  0.00222565  0.74688379  1
  V  V34  1  0.24467537  0.24595650  0.50238028  1
  V  V35  1  0.61344071  0.50381444  0.62983961  1
  V  V36  1  0.49673489  0.88358709  0.39138257  1
  V  V37  1  0.23981929  0.62534145  0.37306517  1
  V  V38  1  0.49612264  0.49407162  -0.01459416  1
  V  V39  1  0.37334155  0.61985483  0.26132657  1
  V  V40  1  0.63290420  0.87474915  0.25229562  1
  V  V41  1  -0.00592631  0.87326624  0.85602960  1
  V  V42  1  0.39196515  0.12433214  0.74865320  1
  V  V43  1  0.24807922  0.38635019  0.63147510  1
  V  V44  1  0.33984724  0.05083062  0.35708982  1
  V  V45  1  0.10950447  0.36919710  0.25290506  1
  V  V46  1  0.23836089  0.88159984  0.62997320  1
  V  V47  1  0.50285510  0.61335999  0.13144945  1
  V  V48  1  0.12219040  0.62117860  0.50680288  1
  V  V49  1  -0.00064256  0.37179289  0.87020082  1
  V  V50  1  0.73988240  0.38303879  0.13479247  1
  V  V51  1  0.12830614  0.74992241  0.85126005  1
  V  V52  1  0.24670701  0.76416444  0.49373571  1
  V  V53  1  0.49584750  -0.00131558  0.00570798  1
  V  V54  1  0.64685487  0.74248775  0.37912635  1
  V  V55  1  0.25108460  0.13590312  0.87911042  1
  V  V56  1  0.24689731  0.75194084  -0.00070910  1
  V  V57  1  0.75735843  0.10827439  0.87032226  1
  V  V58  1  0.00444338  -0.00491952  0.51505118  1
  V  V59  1  0.61676791  0.12208972  0.50810790  1
  V  V60  1  0.88409898  0.00120878  0.37769562  1
  V  V61  1  0.75161827  -0.00007267  0.25019128  1
  V  V62  1  0.12280323  0.52197816  0.12923592  1
  V  V63  1  0.11957392  0.12409841  0.51875642  1
  V  V64  1  -0.00896423  0.48571236  0.49876250  1
  V  V65  1  0.61604688  0.62881529  0.00002111  1
  V  V66  1  0.37507635  0.75072054  0.63426542  1
  V  V67  1  0.87915756  0.62823147  0.75170927  1
  V  V68  1  0.73338857  0.62412907  0.86995291  1
  V  V69  1  0.36536990  0.75542071  0.13394071  1
  Zn  Zn70  1  0.01509087  0.62694827  0.63551794  1
  Zn  Zn71  1  0.65671044  0.62430079  0.49535454  1
  Zn  Zn72  1  0.75978550  0.26171346  0.52285829  1
  Zn  Zn73  1  0.49907454  0.12729910  0.13997385  1
  Zn  Zn74  1  0.13985249  -0.03842992  0.12147565  1
  Zn  Zn75  1  0.19057666  0.59166818  -0.04898418  1
  Zn  Zn76  1  0.18648339  0.18581291  0.18751885  1
  Zn  Zn77  1  0.19385359  0.19281447  0.69232683  1
  Zn  Zn78  1  0.10805641  0.73576233  0.12915454  1
  Zn  Zn79  1  0.21500141  0.67556165  0.67593093  1
  Zn  Zn80  1  0.69508242  0.18575434  0.18375945  1
  Zn  Zn81  1  0.67743404  0.17345991  0.69172342  1
  Zn  Zn82  1  0.68648748  0.69594783  0.17645269  1
  Zn  Zn83  1  0.69154237  0.68721402  0.68561882  1
  Zn  Zn84  1  0.32439466  0.27107743  0.33059956  1
  Zn  Zn85  1  0.36516004  0.35122668  0.78389394  1
  Zn  Zn86  1  0.31670323  0.81435963  0.32148672  1
  Zn  Zn87  1  0.30744498  0.81510652  0.81700114  1
  Zn  Zn88  1  0.81788325  0.31674902  0.31221678  1
  Zn  Zn89  1  0.81471525  0.29162814  0.70635376  1
  Zn  Zn90  1  0.83269169  0.80574915  0.30688547  1
  Zn  Zn91  1  0.80626747  0.81086908  0.81790111  1
  Zn  Zn92  1  0.18633267  0.43272496  0.43925952  1
  Zn  Zn93  1  0.18791295  0.42409417  0.94507689  1
  Zn  Zn94  1  0.19042792  0.94793555  0.43229292  1
  Zn  Zn95  1  0.18268297  0.93498233  0.93245334  1
  Zn  Zn96  1  0.69456479  0.44341814  0.44726822  1
  Zn  Zn97  1  0.68421277  0.43740324  0.94356045  1
  Zn  Zn98  1  0.69003643  0.93925422  0.43932432  1
  Zn  Zn99  1  0.67549647  0.93315947  0.91801497  1
  Zn  Zn100  1  0.31043704  0.07480591  0.06839214  1
  Zn  Zn101  1  0.31387647  0.06031578  0.55664248  1
  Zn  Zn102  1  0.31742155  0.55845056  0.07642191  1
  Zn  Zn103  1  0.31602968  0.56899804  0.56428001  1
  Zn  Zn104  1  0.81008960  0.06105852  0.06083129  1
  Zn  Zn105  1  0.81578713  0.06691506  0.56812102  1
  Zn  Zn106  1  0.80294121  0.56392167  0.06089258  1
  Zn  Zn107  1  0.82298466  0.54249106  0.56981259  1
  Zn  Zn108  1  0.43655674  0.43328091  0.19149482  1
  Zn  Zn109  1  0.46975795  0.41209426  0.64406057  1
  Zn  Zn110  1  0.43859645  0.94206807  0.20013737  1
  Zn  Zn111  1  0.41690584  0.91840252  0.69402067  1
  Zn  Zn112  1  0.93204699  0.44642420  0.18722642  1
  Zn  Zn113  1  0.94861300  0.44780389  0.68929609  1
  Zn  Zn114  1  0.95361303  0.97461796  0.19233110  1
  Zn  Zn115  1  0.93338358  0.94418758  0.69355908  1
  Zn  Zn116  1  0.06719252  0.06795537  0.32123777  1
  Zn  Zn117  1  0.05469624  0.06225827  0.80928039  1
  Zn  Zn118  1  0.06868011  0.54208978  0.33090203  1
  Zn  Zn119  1  0.06211096  0.56505620  0.82109761  1
  Zn  Zn120  1  0.56636404  0.06577773  0.32570987  1
  Zn  Zn121  1  0.56993804  0.04338338  0.81778525  1
  Zn  Zn122  1  0.56478993  0.56193657  0.31731975  1
  Zn  Zn123  1  0.55388485  0.43152612  0.80660938  1
  Zn  Zn124  1  0.41728210  0.15880049  0.45212563  1
  Zn  Zn125  1  0.43410334  0.18821070  0.94597124  1
  Zn  Zn126  1  0.43285591  0.70129958  0.44093934  1
  Zn  Zn127  1  0.40516047  0.66589194  0.95684736  1
  Zn  Zn128  1  0.93455863  0.18934459  0.45191506  1
  Zn  Zn129  1  0.93798256  0.18647040  0.93125814  1
  Zn  Zn130  1  0.92687179  0.66947200  0.43669381  1
  Zn  Zn131  1  0.97242599  0.72713798  0.97889302  1
  Zn  Zn132  1  0.06800934  0.31205007  0.05740438  1
  Zn  Zn133  1  0.06107184  0.31536319  0.56893058  1
  Zn  Zn134  1  0.00693009  0.85423049  0.09145725  1
  Zn  Zn135  1  0.06018189  0.80855767  0.56631353  1
  Zn  Zn136  1  0.56115598  0.31438564  0.06001978  1
  Zn  Zn137  1  0.58430192  0.31017611  0.55355570  1
  Zn  Zn138  1  0.55841081  0.81037069  0.06477847  1
  Zn  Zn139  1  0.56574660  0.79971419  0.56418211  1
  O  O140  1  0.11961947  0.14089096  0.10263701  1
  O  O141  1  0.12360293  0.13173761  0.61690861  1
  O  O142  1  0.12754183  0.62046776  0.14162444  1
  O  O143  1  0.13327610  0.62030289  0.61147029  1
  O  O144  1  0.62676674  0.11250303  0.11408268  1
  O  O145  1  0.61138317  0.12805601  0.61085201  1
  O  O146  1  0.61263857  0.62843034  0.11728963  1
  O  O147  1  0.65077515  0.60843733  0.61306594  1
  O  O148  1  0.37280466  0.36077487  0.39679472  1
  O  O149  1  0.36175733  0.36455474  0.89761089  1
  O  O150  1  0.39468882  0.87302626  0.37757799  1
  O  O151  1  0.36664968  0.88797437  0.89096444  1
  O  O152  1  0.88642508  0.38804831  0.36475726  1
  O  O153  1  0.88311516  0.38619136  0.88677994  1
  O  O154  1  0.87161032  0.88308860  0.38936202  1
  O  O155  1  0.89366452  0.86753338  0.86276588  1
  O  O156  1  0.24503358  0.01523535  0.36076935  1
  O  O157  1  0.25540010  0.00569606  0.86328418  1
  O  O158  1  0.24222919  0.50671698  0.36554623  1
  O  O159  1  0.25529049  0.50755909  0.89459539  1
  O  O160  1  0.76412596  0.00689477  0.36718830  1
  O  O161  1  0.75429049  0.01149346  0.89807415  1
  O  O162  1  0.75689468  0.48331332  0.36531747  1
  O  O163  1  0.75458190  0.50359436  0.87153406  1
  O  O164  1  0.23990488  0.49466896  0.13785477  1
  O  O165  1  0.25728889  0.48468876  0.62299642  1
  O  O166  1  0.23569109  1.02875974  0.14717648  1
  O  O167  1  0.25965977  0.99423169  0.63480805  1
  O  O168  1  0.75605947  0.48338559  0.12415549  1
  O  O169  1  0.75161965  0.48940311  0.64253729  1
  O  O170  1  0.74089027  1.00299070  0.13637865  1
  O  O171  1  0.75744122  0.98670110  0.62725863  1
  O  O172  1  0.01165498  0.37456251  0.24166651  1
  O  O173  1  0.01258760  0.38596084  0.76535894  1
  O  O174  1  0.04374355  0.92438881  0.25634892  1
  O  O175  1  0.00775153  0.88249957  0.75603858  1
  O  O176  1  0.54067588  0.40390915  0.24648000  1
  O  O177  1  0.46762727  0.38814750  0.75135233  1
  O  O178  1  0.51282203  0.86691947  0.25961206  1
  O  O179  1  0.51333786  0.86715609  0.72522403  1
  O  O180  1  0.54029762  0.15479567  0.25186926  1
  O  O181  1  0.49083360  0.10908938  0.75953276  1
  O  O182  1  0.49557637  0.63010945  0.25038427  1
  O  O183  1  0.45968953  0.66672764  0.81240376  1
  O  O184  1  0.98586336  0.11293171  0.24826706  1
  O  O185  1  1.01788798  0.13793579  0.73735965  1
  O  O186  1  0.98727724  0.69746594  0.27600194  1
  O  O187  1  0.98318880  0.61063495  0.74949124  1
  O  O188  1  0.37977077  0.26508406  0.01688271  1
  O  O189  1  0.36538039  0.24966865  0.50922294  1
  O  O190  1  0.37701119  0.76460800  0.01469343  1
  O  O191  1  0.35083490  0.74017010  0.51198190  1
  O  O192  1  0.86890560  0.25657861  0.00252474  1
  O  O193  1  0.86919401  0.26752008  0.49366050  1
  O  O194  1  0.85889132  0.75198284  -0.00928710  1
  O  O195  1  0.88382408  0.76461728  0.50494257  1
  O  O196  1  0.12177694  0.24085165  0.49873765  1
  O  O197  1  0.12149224  0.23695470  0.98218827  1
  O  O198  1  0.13899557  0.73918581  0.50473462  1
  O  O199  1  0.14991261  0.73481916  1.00893251  1
  O  O200  1  0.64546297  0.23266883  0.50154551  1
  O  O201  1  0.62889010  0.23958755  0.99899837  1
  O  O202  1  0.63278817  0.74244152  0.48378280  1
  O  O203  1  0.60803176  0.73198151  0.99442835  1
  O  O204  1  0.49241778  0.25112696  0.12521626  1
  O  O205  1  0.48654792  0.25545418  0.61453495  1
  O  O206  1  0.49289094  0.74414002  0.14161266  1
  O  O207  1  0.47389410  0.74395783  0.61170975  1
  O  O208  1  0.98536987  0.25171005  0.11178990  1
  O  O209  1  0.96667043  0.28853374  0.63396919  1
  O  O210  1  0.99938442  0.74196021  0.08835266  1
  O  O211  1  0.98481549  0.74360977  0.62618058  1
  O  O212  1  0.01269781  0.24853366  0.38162380  1
  O  O213  1  0.00661087  0.26223635  0.87785280  1
  O  O214  1  -0.07130895  0.72771949  0.33577100  1
  O  O215  1  0.01795400  0.76109124  0.87388867  1
  O  O216  1  0.54386006  0.32491804  0.35440044  1
  O  O217  1  0.51232303  0.24475638  0.88635548  1
  O  O218  1  0.50841733  0.75478683  0.36632727  1
  O  O219  1  0.49594408  0.71419017  0.86161817  1
  O  O220  1  0.23204694  0.13230425  0.50565041  1
  O  O221  1  0.24061230  0.12007587  0.98479181  1
  O  O222  1  0.23859575  0.62311812  0.48933028  1
  O  O223  1  0.28493694  0.64254342  0.99825377  1
  O  O224  1  0.75969974  0.12690921  0.48664602  1
  O  O225  1  0.74034546  0.13133674  0.99972524  1
  O  O226  1  0.77820008  0.60984654  0.48526127  1
  O  O227  1  0.73816499  0.63006779  0.99062888  1
  O  O228  1  0.26162535  0.38111146  0.01997934  1
  O  O229  1  0.25576640  0.37127674  0.51179260  1
  O  O230  1  0.25879931  0.86515402  0.00369846  1
  O  O231  1  0.24267569  0.86949092  0.49904609  1
  O  O232  1  0.76069963  0.36831321  0.00253919  1
  O  O233  1  0.73037798  0.37275218  0.52082940  1
  O  O234  1  0.72742660  0.84963749  -0.03149306  1
  O  O235  1  0.76735546  0.88056604  0.51113921  1
  O  O236  1  0.12694094  0.48825261  0.24598130  1
  O  O237  1  0.13041356  0.48906562  0.76195435  1
  O  O238  1  0.10110802  0.97977786  0.24806700  1
  O  O239  1  0.14205153  1.00855943  0.74889103  1
  O  O240  1  0.59522781  0.45749856  0.25810018  1
  O  O241  1  0.63481715  0.49612657  0.74187046  1
  O  O242  1  0.63259453  0.99465050  0.24576559  1
  O  O243  1  0.55925956  1.00701303  0.64945052  1
  O  O244  1  0.39011032  0.01171898  0.27604303  1
  O  O245  1  0.37059262  0.00340174  0.76115433  1
  O  O246  1  0.36598506  0.50706029  0.24812571  1
  O  O247  1  0.34233964  0.50098252  0.78692091  1
  O  O248  1  0.86898323  0.00842443  0.25728305  1
  O  O249  1  0.88775394  0.03611149  0.74247703  1
  O  O250  1  0.88560946  0.51182767  0.26734754  1
  O  O251  1  0.86463429  0.50216030  0.75676789  1
  O  O252  1  0.12311841  0.37075335  0.35907718  1
  O  O253  1  0.12019243  0.36778644  0.87354393  1
  O  O254  1  0.15886228  0.86494753  0.34190168  1
  O  O255  1  0.12943216  0.85633723  0.86912534  1
  O  O256  1  0.61301406  0.33397586  0.37637396  1
  O  O257  1  0.62098789  0.36538432  0.87653744  1
  O  O258  1  0.62383453  0.86222384  0.36972499  1
  O  O259  1  0.62110547  0.93695389  0.81599419  1
  O  O260  1  0.37766596  0.14438901  0.12974246  1
  O  O261  1  0.37577459  0.13238368  0.63025960  1
  O  O262  1  0.38342219  0.63401472  0.14233628  1
  O  O263  1  0.32705096  0.64843473  0.64576428  1
  O  O264  1  0.86888511  0.12975426  0.13910666  1
  O  O265  1  0.89549533  0.13425953  0.61149999  1
  O  O266  1  0.84518687  0.63401591  0.15644626  1
  O  O267  1  0.86722267  0.62687206  0.64234041  1
  O  O268  1  0.26315144  0.25910170  0.13747381  1
  O  O269  1  0.25389555  0.25604468  0.61486111  1
  O  O270  1  0.26423669  0.74754503  0.11949182  1
  O  O271  1  0.24820261  0.77111117  0.61397037  1
  O  O272  1  0.76008514  0.25427069  0.11280356  1
  O  O273  1  0.74749406  0.23952247  0.63499442  1
  O  O274  1  0.73867481  0.75788889  0.09845237  1
  O  O275  1  0.76805529  0.75901795  0.62800322  1
  O  O276  1  0.23087887  0.26382639  0.39692578  1
  O  O277  1  0.24515549  0.23554535  0.87355732  1
  O  O278  1  0.25349417  0.74194375  0.38869276  1
  O  O279  1  0.24257697  0.75219374  0.88916798  1
  O  O280  1  0.75897714  0.23841827  0.36983191  1
  O  O281  1  0.73167238  0.23733168  0.89010615  1
  O  O282  1  0.74521684  0.75383178  0.36299240  1
  O  O283  1  0.75036947  0.72687548  0.87643595  1
  O  O284  1  0.01502654  0.10975459  -0.01927517  1
  O  O285  1  0.01249575  0.11465853  0.49728316  1
  O  O286  1  -0.00882020  0.60995634  -0.00780791  1
  O  O287  1  0.01686216  0.63635986  0.50155295  1
  O  O288  1  0.50416596  0.11453814  0.00925058  1
  O  O289  1  0.52235885  0.13551940  0.47118131  1
  O  O290  1  0.49434522  0.61148760  0.01091652  1
  O  O291  1  0.48913413  0.61554083  0.49297913  1
  O  O292  1  0.48547055  0.38403412  0.51520606  1
  O  O293  1  0.48935835  0.38658362  1.00494475  1
  O  O294  1  0.51184975  0.86722337  0.48923884  1
  O  O295  1  0.48764523  0.88899234  1.01051013  1
  O  O296  1  1.01830984  0.39003127  0.49300267  1
  O  O297  1  0.99398579  0.38313337  0.99297816  1
  O  O298  1  0.99310490  0.88620875  0.50377731  1
  O  O299  1  1.00229516  0.88717607  0.97843003  1
  O  O300  1  0.50052640  0.49724621  0.38839706  1
  O  O301  1  0.49362613  0.49866665  0.88733224  1
  O  O302  1  0.51515741  0.98224426  0.37769570  1
  O  O303  1  0.48344492  1.00651707  0.89398158  1
  O  O304  1  0.97789255  0.52730280  0.39347384  1
  O  O305  1  0.99381976  0.49221681  0.88510932  1
  O  O306  1  0.98863707  1.00501788  0.38318068  1
  O  O307  1  1.01328857  0.98522328  0.87988828  1
  O  O308  1  0.01567384  -0.01848083  0.10012147  1
  O  O309  1  0.00320190  -0.00083918  0.61274971  1
  O  O310  1  0.01219040  0.49571778  0.11673212  1
  O  O311  1  -0.00868601  0.51149017  0.60505436  1
  O  O312  1  0.50787869  0.00624109  0.12573904  1
  O  O313  1  0.49753107  -0.00920098  0.61226844  1
  O  O314  1  0.49620294  0.51164610  0.12857363  1
  O  O315  1  0.51092254  0.52054652  0.62113384  1
  O  O316  1  0.24441185  0.38429480  0.24416729  1
  O  O317  1  0.25316068  0.37121753  0.73719352  1
  O  O318  1  0.21089223  0.86373664  0.28546186  1
  O  O319  1  0.25001226  0.88987128  0.74024241  1
  O  O320  1  0.74919259  0.36141398  0.23259810  1
  O  O321  1  0.75940273  0.38102825  0.75796745  1
  O  O322  1  0.74196200  0.88576504  0.25782978  1
  O  O323  1  0.75004405  0.87500197  0.73920598  1
  O  O324  1  0.22828107  0.07993748  0.21351485  1
  O  O325  1  0.26148644  0.11628631  0.75679551  1
  O  O326  1  0.25803171  0.61384625  0.25982237  1
  O  O327  1  0.27568246  0.52643770  0.80746093  1
  O  O328  1  0.75993835  0.11714986  0.25890456  1
  O  O329  1  0.72877171  0.10862883  0.77264792  1
  O  O330  1  0.79441090  0.64528288  0.21307778  1
  O  O331  1  0.75477307  0.61316614  0.76144416  1
  O  O332  1  0.35249510  0.15607085  0.35265789  1
  O  O333  1  0.36456977  0.12036376  0.87242866  1
  O  O334  1  0.36655756  0.63277212  0.36520929  1
  O  O335  1  0.38892619  0.63973503  0.84292342  1
  O  O336  1  0.87224764  0.12122446  0.36466620  1
  O  O337  1  0.85627838  0.12724541  0.88354342  1
  O  O338  1  0.82773014  0.60952809  0.41666411  1
  O  O339  1  0.86685413  0.60930801  0.86481854  1
  O  O340  1  0.13431720  0.36871285  0.13646528  1
  O  O341  1  0.13866725  0.37120275  0.63756366  1
  O  O342  1  0.11669577  0.85077703  0.13443072  1
  O  O343  1  0.13828212  0.87937050  0.61838553  1
  O  O344  1  0.64149023  0.37131031  0.11450031  1
  O  O345  1  0.60984884  0.40003995  0.62134562  1
  O  O346  1  0.61787232  0.88405134  0.13710693  1
  O  O347  1  0.64241324  0.86476750  0.63047696  1
  O  O348  1  0.12909504  0.25710124  0.26114749  1
  O  O349  1  0.13399657  0.26357161  0.76366338  1
  O  O350  1  0.04284443  0.74661156  0.26203996  1
  O  O351  1  0.14831942  0.73406203  0.75366594  1
  O  O352  1  0.59727736  0.21302745  0.24865779  1
  O  O353  1  0.61888402  0.24114973  0.76985770  1
  O  O354  1  0.62222654  0.75514062  0.25593572  1
  O  O355  1  0.63335338  0.76216050  0.75641919  1
  O  O356  1  0.38878603  0.27162094  0.23967490  1
  O  O357  1  0.37429466  0.23977618  0.73365227  1
  O  O358  1  0.38148477  0.74589796  0.25010050  1
  O  O359  1  0.37058028  0.77022060  0.73519622  1
  O  O360  1  0.87839632  0.23862318  0.24228882  1
  O  O361  1  0.87392965  0.21338714  0.75895432  1
  O  O362  1  0.88668265  0.80289366  0.19990660  1
  O  O363  1  0.87104364  0.73209035  0.74956267  1
  O  O364  1  0.38287591  0.48998030  0.50618615  1
  O  O365  1  0.38618354  0.48839292  1.01116835  1
  O  O366  1  0.37268043  1.04138491  0.45862008  1
  O  O367  1  0.37402554  0.99775390  1.00282594  1
  O  O368  1  0.88449307  0.48185987  0.49311668  1
  O  O369  1  0.87933127  0.49453486  0.99760067  1
  O  O370  1  0.88788582  0.99341300  0.49708717  1
  O  O371  1  0.89241970  1.00608842  1.00375318  1
  O  O372  1  0.12986971  0.01025776  0.00378792  1
  O  O373  1  0.11561660  0.01087097  0.49448225  1
  O  O374  1  0.12415871  0.50693543  0.01103752  1
  O  O375  1  0.11252514  0.51474355  0.48571859  1
  O  O376  1  0.61430742  -0.00049172  0.00684169  1
  O  O377  1  0.63826445  0.02072345  0.49692580  1
  O  O378  1  0.60675576  0.50938242  -0.00257179  1
  O  O379  1  0.61129514  0.50783795  0.50302345  1
  O  O380  1  0.36965810  0.36898053  0.12346392  1
  O  O381  1  0.36296421  0.35874704  0.61588813  1
  O  O382  1  0.37726935  0.87131383  0.12674921  1
  O  O383  1  0.35590704  0.86543779  0.61487614  1
  O  O384  1  0.87076595  0.36858737  0.11603961  1
  O  O385  1  0.90816349  0.34421789  0.63931115  1
  O  O386  1  0.89262113  0.86570783  0.15396296  1
  O  O387  1  0.87080860  0.87035941  0.62174105  1
  O  O388  1  0.12981125  0.14243447  0.37739463  1
  O  O389  1  0.13731907  0.12896442  0.87335921  1
  O  O390  1  0.13326124  0.62860508  0.37804352  1
  O  O391  1  0.12185934  0.64333456  0.87877416  1
  O  O392  1  0.64947811  0.12336833  0.37843446  1
  O  O393  1  0.62655211  0.12199349  0.89087253  1
  O  O394  1  0.63362070  0.63718454  0.36817486  1
  O  O395  1  0.63433106  0.61427979  0.88007800  1
