# generated using pymatgen
data_V35Zn35O128
_symmetry_space_group_name_H-M   'P 1'
_cell_length_a   16.85634274
_cell_length_b   16.86078143
_cell_length_c   16.88462316
_cell_angle_alpha   90.01687374
_cell_angle_beta   90.14056610
_cell_angle_gamma   90.15116286
_symmetry_Int_Tables_number   1
_chemical_formula_structural   V35Zn35O128
_chemical_formula_sum   'V70 Zn70 O256'
_cell_volume   4798.76614139
_cell_formula_units_Z   2
loop_
 _symmetry_equiv_pos_site_id
 _symmetry_equiv_pos_as_xyz
  1  'x, y, z'
loop_
 _atom_site_type_symbol
 _atom_site_label
 _atom_site_symmetry_multiplicity
 _atom_site_fract_x
 _atom_site_fract_y
 _atom_site_fract_z
 _atom_site_occupancy
  V  V0  1  0.11221840  0.10802741  0.00876481  1
  V  V1  1  0.14014581  0.62856534  -0.00883721  1
  V  V2  1  0.24366381  0.86440458  0.62565228  1
  V  V3  1  -0.00992310  0.23136503  0.25208144  1
  V  V4  1  0.35737027  0.52768800  0.87032246  1
  V  V5  1  0.13934955  0.50130854  0.11009316  1
  V  V6  1  0.25674075  0.49885666  0.24684732  1
  V  V7  1  0.24510034  -0.00165986  0.74845992  1
  V  V8  1  0.51248411  0.01405967  0.01335809  1
  V  V9  1  0.01346555  0.72784087  0.23513435  1
  V  V10  1  0.35158186  0.11882144  0.24087001  1
  V  V11  1  -0.00711845  0.50519277  -0.00412314  1
  V  V12  1  0.73950925  0.39426487  0.12750656  1
  V  V13  1  0.87188404  0.37339741  -0.00294908  1
  V  V14  1  -0.01091178  0.61701577  0.63310190  1
  V  V15  1  0.49648466  0.87920832  0.86890204  1
  V  V16  1  0.75271208  0.37400280  0.61737976  1
  V  V17  1  0.50397096  0.24974287  0.75244753  1
  V  V18  1  0.78746020  0.59554772  0.87684213  1
  V  V19  1  0.25397270  0.75239416  0.02719917  1
  V  V20  1  0.87678751  -0.00561345  0.88698899  1
  V  V21  1  0.64005711  0.13211456  0.49452477  1
  V  V22  1  0.00079716  0.87807296  0.88227760  1
  V  V23  1  0.12128541  0.38019784  0.24420159  1
  V  V24  1  -0.01137229  0.74920476  0.74704541  1
  V  V25  1  0.74760208  0.23489520  0.03943537  1
  V  V26  1  0.76594626  0.76552604  -0.01520948  1
  V  V27  1  0.50793210  0.49702444  0.51998472  1
  V  V28  1  0.49515479  0.12496294  0.62282239  1
  V  V29  1  0.63677237  0.23539082  0.88124227  1
  V  V30  1  0.88452206  0.23714377  0.63065630  1
  V  V31  1  0.50115935  0.37538334  0.36814993  1
  V  V32  1  0.63731141  0.88739500  0.75198404  1
  V  V33  1  0.87415211  0.36711290  0.48241003  1
  V  V34  1  0.12120741  0.00951029  0.62631258  1
  V  V35  1  0.63814312  0.36991216  0.74800975  1
  V  V36  1  0.75880479  0.11503535  0.83937818  1
  V  V37  1  0.37429922  0.87186502  0.49998654  1
  V  V38  1  0.08969866  0.24271177  0.86902620  1
  V  V39  1  0.13101794  -0.03241006  0.15673236  1
  V  V40  1  0.74390543  0.86224467  0.13593701  1
  V  V41  1  0.51288307  0.87046412  0.37618428  1
  V  V42  1  0.36905707  0.00200463  0.88112570  1
  V  V43  1  0.36834359  0.87921240  0.01941449  1
  V  V44  1  0.76092401  0.12831337  0.35411164  1
  V  V45  1  0.37858009  0.37084644  -0.02307926  1
  V  V46  1  0.38677774  0.25740816  0.13044661  1
  V  V47  1  0.50953690  0.75333572  0.23960135  1
  V  V48  1  0.13680939  0.62395555  0.49358866  1
  V  V49  1  0.87668327  0.85751823  0.50476169  1
  V  V50  1  0.13580131  0.26146864  0.37699928  1
  V  V51  1  0.37357326  0.12855984  0.74646885  1
  V  V52  1  0.76624375  0.62408297  0.37359122  1
  V  V53  1  0.37312154  0.63327788  0.24476274  1
  V  V54  1  0.12553573  0.76110336  0.37630736  1
  V  V55  1  0.13749377  0.49004825  0.62087563  1
  V  V56  1  0.24317349  0.25455375  0.00841763  1
  V  V57  1  -0.01002905  0.49711638  0.48741023  1
  V  V58  1  0.71230990  0.50556474  0.25166437  1
  V  V59  1  0.13950849  0.12634073  0.48591866  1
  V  V60  1  0.62750862  0.63369692  0.50296734  1
  V  V61  1  0.49328678  0.00943501  0.48452421  1
  V  V62  1  0.24577041  0.13407122  0.87609000  1
  V  V63  1  0.14029540  0.75403438  0.85932803  1
  V  V64  1  -0.00413580  0.00271468  0.49309622  1
  V  V65  1  0.61798698  0.74773773  0.88414100  1
  V  V66  1  0.41039119  0.74347471  0.63576626  1
  V  V67  1  0.87252790  -0.00105588  0.36617012  1
  V  V68  1  0.37072012  0.50632841  0.39591629  1
  V  V69  1  0.11808830  0.36817804  0.73424628  1
  Zn  Zn70  1  0.75087944  0.85882252  0.61920691  1
  Zn  Zn71  1  0.54947787  0.57608380  0.16013171  1
  Zn  Zn72  1  0.63019239  0.00554083  0.63262965  1
  Zn  Zn73  1  0.64338076  0.26967922  0.37298794  1
  Zn  Zn74  1  0.68314257  0.55215677  0.70307722  1
  Zn  Zn75  1  0.64282983  0.75664609  0.37398319  1
  Zn  Zn76  1  0.18015878  0.18398847  0.18978293  1
  Zn  Zn77  1  0.16917167  0.18707012  0.69699194  1
  Zn  Zn78  1  0.18954295  0.68174733  0.19449148  1
  Zn  Zn79  1  0.18791084  0.66940193  0.68980227  1
  Zn  Zn80  1  0.57490220  0.30413525  0.19316323  1
  Zn  Zn81  1  0.69205710  0.19128077  0.67486516  1
  Zn  Zn82  1  0.69735505  0.68823319  0.17753861  1
  Zn  Zn83  1  0.61598840  0.70715875  0.68334967  1
  Zn  Zn84  1  0.31592152  0.32044111  0.31719416  1
  Zn  Zn85  1  0.30475972  0.32385337  0.77698464  1
  Zn  Zn86  1  0.31616659  0.80171957  0.32700172  1
  Zn  Zn87  1  0.32074687  0.81394939  0.80361205  1
  Zn  Zn88  1  0.80666256  0.31483950  0.29866877  1
  Zn  Zn89  1  0.82486529  0.31235481  0.80715688  1
  Zn  Zn90  1  0.82312876  0.81528309  0.32092090  1
  Zn  Zn91  1  0.77358760  0.74138156  0.76259682  1
  Zn  Zn92  1  0.19273718  0.43689944  0.44353447  1
  Zn  Zn93  1  0.18807302  0.43036189  0.91333734  1
  Zn  Zn94  1  0.18469206  0.93101869  0.44402423  1
  Zn  Zn95  1  0.18551486  0.93117759  0.93860974  1
  Zn  Zn96  1  0.68586750  0.44625464  0.43973549  1
  Zn  Zn97  1  0.68983821  0.42741788  0.92886629  1
  Zn  Zn98  1  0.70223800  0.94814400  0.46291603  1
  Zn  Zn99  1  0.69074163  0.94502646  0.93989928  1
  Zn  Zn100  1  0.29911333  0.06414509  0.07075860  1
  Zn  Zn101  1  0.31165362  0.06017164  0.56211907  1
  Zn  Zn102  1  0.39979810  0.55158431  0.05758197  1
  Zn  Zn103  1  0.31175646  0.57380618  0.59458541  1
  Zn  Zn104  1  0.83376339  0.06110524  0.07705056  1
  Zn  Zn105  1  0.81072002  0.05176475  0.57283292  1
  Zn  Zn106  1  0.64511458  0.60010043  0.00470034  1
  Zn  Zn107  1  0.80710962  0.55710708  0.56315386  1
  Zn  Zn108  1  0.42511846  0.42744308  0.18844358  1
  Zn  Zn109  1  0.43333422  0.44050203  0.70032204  1
  Zn  Zn110  1  0.44358053  0.94388769  0.19585979  1
  Zn  Zn111  1  0.43329106  0.94313614  0.68181919  1
  Zn  Zn112  1  0.95935808  0.39263546  0.15508651  1
  Zn  Zn113  1  0.94231742  0.42341119  0.67673286  1
  Zn  Zn114  1  0.95108639  0.93939296  0.18549051  1
  Zn  Zn115  1  0.94433268  0.92564294  0.68421758  1
  Zn  Zn116  1  0.06407083  0.06020164  0.30938973  1
  Zn  Zn117  1  0.05477315  0.07251586  0.81103208  1
  Zn  Zn118  1  0.06255280  0.56044377  0.31060904  1
  Zn  Zn119  1  -0.03991172  0.53738147  0.81410135  1
  Zn  Zn120  1  0.56944742  0.13306389  0.29578756  1
  Zn  Zn121  1  0.56008736  0.06321177  0.82070252  1
  Zn  Zn122  1  0.55119187  0.57433742  0.33665535  1
  Zn  Zn123  1  0.53603932  0.56397267  0.81931059  1
  Zn  Zn124  1  0.41536834  0.20152171  0.44391272  1
  Zn  Zn125  1  0.43837138  0.19250653  0.93944587  1
  Zn  Zn126  1  0.43894332  0.68470253  0.44456702  1
  Zn  Zn127  1  0.41696008  0.69886120  0.92663870  1
  Zn  Zn128  1  0.94611327  0.18545902  0.43578459  1
  Zn  Zn129  1  0.91780709  0.17303015  0.96658449  1
  Zn  Zn130  1  0.95123504  0.67881199  0.43111821  1
  Zn  Zn131  1  0.95233483  0.68926683  0.94156077  1
  Zn  Zn132  1  0.05936404  0.29022861  0.06034700  1
  Zn  Zn133  1  0.05473830  0.30805376  0.55255702  1
  Zn  Zn134  1  0.06676419  0.81634348  0.06542589  1
  Zn  Zn135  1  0.05934096  0.80908781  0.56092604  1
  Zn  Zn136  1  0.55543255  0.43110360  0.04676949  1
  Zn  Zn137  1  0.55991974  0.31150877  0.56138278  1
  Zn  Zn138  1  0.56356480  0.82943449  0.06124284  1
  Zn  Zn139  1  0.56967294  0.82035122  0.55856141  1
  O  O140  1  0.11627774  0.14101240  0.10617771  1
  O  O141  1  0.13482130  0.11555932  0.61163215  1
  O  O142  1  0.13974394  0.60681635  0.11500223  1
  O  O143  1  0.11695875  0.60571403  0.61654813  1
  O  O144  1  0.64435133  0.05411000  0.16575590  1
  O  O145  1  0.61555442  0.12553455  0.60929683  1
  O  O146  1  0.62234743  0.63968107  0.10718449  1
  O  O147  1  0.65587868  0.62427843  0.60037360  1
  O  O148  1  0.38385750  0.39602397  0.37523871  1
  O  O149  1  0.36381420  0.35422804  0.87854617  1
  O  O150  1  0.38550057  0.86693784  0.39614344  1
  O  O151  1  0.37792212  0.88718151  0.87933688  1
  O  O152  1  0.86109549  0.37571594  0.38470555  1
  O  O153  1  0.86415340  0.36847253  0.89753939  1
  O  O154  1  0.87518776  0.89152206  0.39165232  1
  O  O155  1  0.89135674  0.89035001  0.86342805  1
  O  O156  1  0.25682683  -0.03443121  0.34803774  1
  O  O157  1  0.25144995  0.00557765  0.86655755  1
  O  O158  1  0.26587470  0.50034241  0.37852988  1
  O  O159  1  0.26612647  0.48540857  0.84886064  1
  O  O160  1  0.76532342  0.00880046  0.38308559  1
  O  O161  1  0.76445480  0.00610423  0.87193369  1
  O  O162  1  0.74103867  0.50645582  0.35530785  1
  O  O163  1  0.76597296  0.49880234  0.88056920  1
  O  O164  1  0.24969287  0.49588331  0.14327565  1
  O  O165  1  0.23509820  0.48586980  0.60142037  1
  O  O166  1  0.22245079  1.01428011  0.13574377  1
  O  O167  1  0.24305545  0.99528711  0.63250819  1
  O  O168  1  0.73310551  0.49810511  0.13994853  1
  O  O169  1  0.75036491  0.48320477  0.63461749  1
  O  O170  1  0.79414394  0.96719825  0.13181123  1
  O  O171  1  0.73069309  0.97428724  0.58446401  1
  O  O172  1  0.02217568  0.39982431  0.25589130  1
  O  O173  1  0.02053391  0.35007080  0.73101877  1
  O  O174  1  -0.02688241  0.84006702  0.25036562  1
  O  O175  1  0.00506176  0.85517226  0.75242414  1
  O  O176  1  0.49935524  0.37713310  0.26289546  1
  O  O177  1  0.51306253  0.35198446  0.74533785  1
  O  O178  1  0.49332662  0.86799187  0.26815987  1
  O  O179  1  0.48943664  0.88817069  0.76813840  1
  O  O180  1  0.45449213  0.14781384  0.28863183  1
  O  O181  1  0.49331764  0.12520782  0.74267647  1
  O  O182  1  0.49378893  0.63777335  0.25040802  1
  O  O183  1  0.58415326  0.60765188  0.72966079  1
  O  O184  1  1.00562145  0.13259055  0.24145795  1
  O  O185  1  0.95207298  0.07921233  0.74725280  1
  O  O186  1  0.99901922  0.62704721  0.24482849  1
  O  O187  1  0.99996394  0.62487523  0.73974346  1
  O  O188  1  0.36086632  0.25220898  0.00532452  1
  O  O189  1  0.35872127  0.26566803  0.52631360  1
  O  O190  1  0.36447207  0.76777235  0.00334603  1
  O  O191  1  0.39237825  0.76635245  0.51693542  1
  O  O192  1  0.84829275  0.26118738  0.00685862  1
  O  O193  1  0.88170237  0.26400389  0.49715186  1
  O  O194  1  0.86481958  0.75399069  -0.02210265  1
  O  O195  1  0.90151191  0.76161510  0.49523005  1
  O  O196  1  0.12207151  0.23803522  0.48723524  1
  O  O197  1  0.12991470  0.24370464  0.98405046  1
  O  O198  1  0.11429685  0.73294774  0.49023402  1
  O  O199  1  0.14240400  0.74815141  0.99778139  1
  O  O200  1  0.61328095  0.23370824  0.48904672  1
  O  O201  1  0.64901044  0.24483052  0.98301188  1
  O  O202  1  0.62344597  0.74026066  0.49606605  1
  O  O203  1  0.62826340  0.76751286  0.98692916  1
  O  O204  1  0.48624098  0.25325219  0.13107069  1
  O  O205  1  0.50387801  0.23597969  0.63796166  1
  O  O206  1  0.50187901  0.76909104  0.14178962  1
  O  O207  1  0.51308889  0.75311960  0.63589933  1
  O  O208  1  1.00350088  0.27892405  0.15590745  1
  O  O209  1  0.98537025  0.24315590  0.61279503  1
  O  O210  1  1.01980338  0.73774419  0.13380936  1
  O  O211  1  1.01191032  0.73287276  0.63888520  1
  O  O212  1  0.01794014  0.24294992  0.36019455  1
  O  O213  1  -0.00406949  0.24497191  0.89883863  1
  O  O214  1  0.01875707  0.73369570  0.35927048  1
  O  O215  1  0.01233430  0.75393107  0.86225203  1
  O  O216  1  0.48291070  0.27759326  0.39141033  1
  O  O217  1  0.52319055  0.22927287  0.86443448  1
  O  O218  1  0.50335564  0.76388583  0.37539965  1
  O  O219  1  0.49880900  0.77326869  0.88728115  1
  O  O220  1  0.24079550  0.11771834  0.49398528  1
  O  O221  1  0.24386734  0.13692709  0.99189324  1
  O  O222  1  0.23464481  0.62187910  0.51243638  1
  O  O223  1  0.25128066  0.64902536  1.00396744  1
  O  O224  1  0.73822565  0.12780414  0.50481869  1
  O  O225  1  0.74951594  0.13441192  1.04029401  1
  O  O226  1  0.74418962  0.60860521  0.47966546  1
  O  O227  1  0.74994168  0.64197294  0.96601334  1
  O  O228  1  0.24641295  0.35531660  -0.01473061  1
  O  O229  1  0.27628070  0.37028847  0.51148040  1
  O  O230  1  0.25949551  0.86674448  0.00150501  1
  O  O231  1  0.26606840  0.88112952  0.51215593  1
  O  O232  1  0.75309473  0.37670186  0.01533845  1
  O  O233  1  0.75875268  0.38434709  0.50811849  1
  O  O234  1  0.75352542  0.86822314  -0.00131785  1
  O  O235  1  0.77053742  0.85445671  0.49397215  1
  O  O236  1  0.13936950  0.50073944  0.24452224  1
  O  O237  1  0.13404774  0.47280181  0.73185874  1
  O  O238  1  0.11818405  0.97677563  0.25919449  1
  O  O239  1  0.13185927  1.01269604  0.73596556  1
  O  O240  1  0.61116460  0.51111707  0.25087834  1
  O  O241  1  0.62044104  0.46608072  0.77047165  1
  O  O242  1  0.60893250  1.03341876  0.22709075  1
  O  O243  1  0.61792923  0.99315824  0.75209017  1
  O  O244  1  0.36875000  0.02024099  0.23392754  1
  O  O245  1  0.36542084  0.00946842  0.75909865  1
  O  O246  1  0.36692294  0.50719264  0.25755809  1
  O  O247  1  0.42874933  0.50604005  0.79461659  1
  O  O248  1  0.88589421  -0.00775853  0.26799964  1
  O  O249  1  0.90401177  0.01578075  0.75516078  1
  O  O250  1  0.88818964  0.56127535  0.16620690  1
  O  O251  1  0.89068443  0.46681731  0.76352113  1
  O  O252  1  0.12763631  0.36654969  0.37531864  1
  O  O253  1  0.12435318  0.34655043  0.85045729  1
  O  O254  1  0.11598185  0.86048118  0.38851928  1
  O  O255  1  0.11711741  0.86285971  0.87291236  1
  O  O256  1  0.60902406  0.37991512  0.38198171  1
  O  O257  1  0.64537768  0.34279378  0.85988586  1
  O  O258  1  0.61499449  0.87756776  0.38944381  1
  O  O259  1  0.60597280  0.88990371  0.87241433  1
  O  O260  1  0.36285385  0.14355059  0.13252593  1
  O  O261  1  0.37831673  0.12056316  0.63740671  1
  O  O262  1  0.37675449  0.62362077  0.14471085  1
  O  O263  1  0.39644648  0.64701813  0.61122956  1
  O  O264  1  0.91318091  0.13891293  0.08042033  1
  O  O265  1  0.86400330  0.13870505  0.61505750  1
  O  O266  1  0.87144178  0.61763430  0.12392546  1
  O  O267  1  0.88998912  0.61866247  0.61903033  1
  O  O268  1  0.23961469  0.25219404  0.10804465  1
  O  O269  1  0.28306316  0.29219530  0.51257816  1
  O  O270  1  0.25380126  0.75103428  0.12581332  1
  O  O271  1  0.23808688  0.76591980  0.63067144  1
  O  O272  1  0.74005984  0.26684630  0.13380569  1
  O  O273  1  0.76040644  0.26430718  0.61904528  1
  O  O274  1  0.75411538  0.75642584  0.09891601  1
  O  O275  1  0.72428734  0.75558060  0.66113122  1
  O  O276  1  0.23672064  0.25407687  0.37253968  1
  O  O277  1  0.24543112  0.23587975  0.87149784  1
  O  O278  1  0.22887496  0.74992114  0.37219481  1
  O  O279  1  0.24099226  0.76339284  0.86883471  1
  O  O280  1  0.75547636  0.23474295  0.36750044  1
  O  O281  1  0.74978708  0.22446230  0.86029299  1
  O  O282  1  0.75690316  0.73038413  0.36250428  1
  O  O283  1  0.73012761  0.76451093  0.87674505  1
  O  O284  1  0.01412152  0.10955633  -0.01391694  1
  O  O285  1  0.01575593  0.10974940  0.49893133  1
  O  O286  1  0.01882552  0.61131739  -0.00031921  1
  O  O287  1  0.00683486  0.61044203  0.51062412  1
  O  O288  1  0.49094041  0.11227934  -0.00045669  1
  O  O289  1  0.48196698  0.11904949  0.50253186  1
  O  O290  1  0.47297381  0.61163377  -0.01759296  1
  O  O291  1  0.51774162  0.61577167  0.49743923  1
  O  O292  1  0.50312044  0.39212918  0.50032094  1
  O  O293  1  0.47852095  0.36729832  0.98551131  1
  O  O294  1  0.49684150  0.88953419  0.49609108  1
  O  O295  1  0.48258268  0.89095501  0.99443157  1
  O  O296  1  0.98650265  0.38581377  0.49713130  1
  O  O297  1  0.97745722  0.36921201  1.01832224  1
  O  O298  1  0.99539235  0.89196666  0.50810738  1
  O  O299  1  1.00091987  0.86008785  0.98081616  1
  O  O300  1  0.49014022  0.49202144  0.38918686  1
  O  O301  1  0.47397213  0.55165562  0.91950900  1
  O  O302  1  0.49339708  0.98929532  0.38431332  1
  O  O303  1  0.48491862  0.99852300  0.88731168  1
  O  O304  1  0.99819061  0.50535564  0.38897022  1
  O  O305  1  1.02217571  0.48505272  0.90103857  1
  O  O306  1  0.99106758  1.00434032  0.38716891  1
  O  O307  1  1.00178952  0.98539965  0.87277821  1
  O  O308  1  0.03142350  -0.01376092  0.12470772  1
  O  O309  1  0.01865844  -0.00251296  0.61982177  1
  O  O310  1  0.03105989  0.48639423  0.10255624  1
  O  O311  1  0.00610086  0.50530531  0.61854505  1
  O  O312  1  0.49910373  -0.00230235  0.11236420  1
  O  O313  1  0.50097909  0.01386636  0.61756739  1
  O  O314  1  0.48465693  0.49410375  0.11624359  1
  O  O315  1  0.49404416  0.49494356  0.61935351  1
  O  O316  1  0.24003894  0.39404034  0.26450501  1
  O  O317  1  0.19856436  0.29601437  0.71857766  1
  O  O318  1  0.26486194  0.91404896  0.29341769  1
  O  O319  1  0.25579828  0.88846140  0.73646038  1
  O  O320  1  0.74446292  0.39528854  0.24219524  1
  O  O321  1  0.74355802  0.36541053  0.73877258  1
  O  O322  1  0.75128890  0.84340318  0.23450291  1
  O  O323  1  0.73588077  0.88512538  0.75672517  1
  O  O324  1  0.25233253  0.13011223  0.25840312  1
  O  O325  1  0.25454497  0.11895802  0.75504102  1
  O  O326  1  0.26376246  0.61505253  0.25618257  1
  O  O327  1  0.27291448  0.59940190  0.70169753  1
  O  O328  1  0.75967244  0.11543567  0.25945010  1
  O  O329  1  0.75373091  0.11219487  0.74026618  1
  O  O330  1  0.74480541  0.61001069  0.25408685  1
  O  O331  1  0.75137520  0.62303969  0.78246538  1
  O  O332  1  0.39418759  0.13129555  0.34970789  1
  O  O333  1  0.36550565  0.11743539  0.87028365  1
  O  O334  1  0.38766234  0.61174912  0.36611008  1
  O  O335  1  0.34446873  0.62793362  0.87078179  1
  O  O336  1  0.86887530  0.11353448  0.38181898  1
  O  O337  1  0.86315594  0.11339198  0.87630032  1
  O  O338  1  0.86571994  0.61910302  0.37689951  1
  O  O339  1  0.89124714  0.61189939  0.87689712  1
  O  O340  1  0.13551078  0.38463719  0.14034669  1
  O  O341  1  0.11687857  0.38289548  0.61610373  1
  O  O342  1  0.14178209  0.86880227  0.13303622  1
  O  O343  1  0.13914956  0.88977617  0.61184857  1
  O  O344  1  0.63117761  0.37572335  0.12136994  1
  O  O345  1  0.63817790  0.36271131  0.63500435  1
  O  O346  1  0.64576146  0.88298167  0.12235819  1
  O  O347  1  0.61542087  0.88108240  0.64600601  1
  O  O348  1  0.12372386  0.26692110  0.25844989  1
  O  O349  1  0.08073698  0.19577384  0.77556456  1
  O  O350  1  0.12091054  0.74371113  0.26031386  1
  O  O351  1  0.12523659  0.73823940  0.75865470  1
  O  O352  1  0.61222250  0.23273409  0.26880425  1
  O  O353  1  0.61903459  0.24397547  0.75298129  1
  O  O354  1  0.61124402  0.74521529  0.25405980  1
  O  O355  1  0.61133158  0.77924913  0.77735206  1
  O  O356  1  0.35807664  0.25763210  0.23057829  1
  O  O357  1  0.39267938  0.23562730  0.76313895  1
  O  O358  1  0.38379821  0.73888536  0.25963230  1
  O  O359  1  0.38041678  0.75088342  0.73303189  1
  O  O360  1  0.89161074  0.24966045  0.26080288  1
  O  O361  1  0.87908406  0.25015877  0.73177161  1
  O  O362  1  0.91097734  0.78071458  0.24532484  1
  O  O363  1  0.89029177  0.74531243  0.75417949  1
  O  O364  1  0.38498950  0.51623687  0.49825428  1
  O  O365  1  0.35472944  0.48023010  0.97812670  1
  O  O366  1  0.38586660  0.98696495  0.50893182  1
  O  O367  1  0.36239010  0.99325830  0.99497840  1
  O  O368  1  0.88479602  0.48981628  0.50318548  1
  O  O369  1  0.89180670  0.49252347  1.00091713  1
  O  O370  1  0.89009863  0.99948676  0.50009389  1
  O  O371  1  0.87888451  0.99533828  0.98479198  1
  O  O372  1  0.13649478  0.00880375  0.00393737  1
  O  O373  1  0.12235598  0.00875515  0.50357804  1
  O  O374  1  0.15092872  0.50409323  0.00346618  1
  O  O375  1  0.11378587  0.50109499  0.50418224  1
  O  O376  1  0.61148505  0.00377124  -0.00302305  1
  O  O377  1  0.60315273  0.01882695  0.49625228  1
  O  O378  1  0.61507165  0.49531556  -0.02432326  1
  O  O379  1  0.61376683  0.50919756  0.50396322  1
  O  O380  1  0.36960290  0.36158962  0.10659830  1
  O  O381  1  0.33838167  0.38714133  0.69063007  1
  O  O382  1  0.37441617  0.88338681  0.11712775  1
  O  O383  1  0.36862042  0.86611867  0.62092687  1
  O  O384  1  0.85142149  0.38764828  0.11886202  1
  O  O385  1  0.86577485  0.36372998  0.61234848  1
  O  O386  1  0.85382870  0.90453748  0.12056378  1
  O  O387  1  0.87270463  0.87657085  0.61146010  1
  O  O388  1  0.12896797  0.12853540  0.38249920  1
  O  O389  1  0.12989895  0.12658206  0.89000334  1
  O  O390  1  0.12916616  0.61475229  0.39158795  1
  O  O391  1  0.13157370  0.64466812  0.88865483  1
  O  O392  1  0.64576585  0.11640228  0.38432923  1
  O  O393  1  0.64845502  0.12329109  0.86868361  1
  O  O394  1  0.63592174  0.63200597  0.38566977  1
  O  O395  1  0.60607926  0.64826594  0.88522575  1
