# generated using pymatgen
data_V35Zn35O128
_symmetry_space_group_name_H-M   'P 1'
_cell_length_a   16.84416477
_cell_length_b   16.86223644
_cell_length_c   16.86075014
_cell_angle_alpha   90.05405676
_cell_angle_beta   89.93980039
_cell_angle_gamma   90.01351407
_symmetry_Int_Tables_number   1
_chemical_formula_structural   V35Zn35O128
_chemical_formula_sum   'V70 Zn70 O256'
_cell_volume   4788.95882791
_cell_formula_units_Z   2
loop_
 _symmetry_equiv_pos_site_id
 _symmetry_equiv_pos_as_xyz
  1  'x, y, z'
loop_
 _atom_site_type_symbol
 _atom_site_label
 _atom_site_symmetry_multiplicity
 _atom_site_fract_x
 _atom_site_fract_y
 _atom_site_fract_z
 _atom_site_occupancy
  V  V0  1  0.62552997  -0.00207858  0.12226832  1
  V  V1  1  0.24287649  0.87291612  0.14006312  1
  V  V2  1  0.24656103  0.74972379  0.00240677  1
  V  V3  1  0.11455578  0.74423344  0.38212015  1
  V  V4  1  0.24013368  0.49618278  0.23763543  1
  V  V5  1  0.62446322  0.49792716  0.13042587  1
  V  V6  1  0.50353344  0.36335995  0.87870818  1
  V  V7  1  0.37494724  0.74908576  0.12970267  1
  V  V8  1  0.75225642  0.61558776  0.86524580  1
  V  V9  1  0.87890124  0.13735046  0.22609180  1
  V  V10  1  0.88136083  0.87451901  -0.01802440  1
  V  V11  1  -0.00223754  0.76151009  0.75402871  1
  V  V12  1  0.88060338  0.39028033  0.00186059  1
  V  V13  1  0.76088691  0.00307379  0.25396531  1
  V  V14  1  0.87283373  0.75218572  0.61891239  1
  V  V15  1  0.62098063  0.62009420  -0.00114411  1
  V  V16  1  0.87245518  0.25297514  0.61773980  1
  V  V17  1  0.76307356  0.87253106  0.12785124  1
  V  V18  1  0.12112013  0.49687642  0.62094037  1
  V  V19  1  0.00306993  0.00105302  -0.02303611  1
  V  V20  1  0.61669970  0.00551578  0.64434210  1
  V  V21  1  0.11521698  0.00349881  0.12412119  1
  V  V22  1  0.76663351  0.12883325  0.38655289  1
  V  V23  1  -0.00425415  0.39863812  0.87831416  1
  V  V24  1  0.61365213  0.64616125  0.49946871  1
  V  V25  1  0.50523963  0.75440308  0.26156878  1
  V  V26  1  0.14060701  -0.00142152  0.61832360  1
  V  V27  1  0.14799609  0.87803698  0.75084968  1
  V  V28  1  0.49870527  0.61773188  0.12244283  1
  V  V29  1  0.62170640  0.37468560  0.25345699  1
  V  V30  1  0.26090335  0.01683116  0.25448499  1
  V  V31  1  0.74890835  0.11261822  0.87561319  1
  V  V32  1  0.64038979  0.37631582  0.75872841  1
  V  V33  1  0.37259205  0.62079807  0.25404412  1
  V  V34  1  0.49211307  0.24795931  0.25484738  1
  V  V35  1  -0.00126330  0.11522235  0.62449782  1
  V  V36  1  0.12415543  0.37219789  0.76038335  1
  V  V37  1  0.62394248  0.13224686  0.00280232  1
  V  V38  1  0.49923454  0.24430309  0.73762597  1
  V  V39  1  0.38071017  0.50354355  0.88668545  1
  V  V40  1  0.75438181  0.36955561  0.13487501  1
  V  V41  1  0.87663740  0.60856110  0.75029972  1
  V  V42  1  0.75880624  0.37943635  0.60517578  1
  V  V43  1  0.37878987  0.48443029  0.38693766  1
  V  V44  1  0.88147713  0.89653047  0.49505686  1
  V  V45  1  0.36612340  0.26105975  0.61314306  1
  V  V46  1  0.74818737  0.88751114  0.63724342  1
  V  V47  1  0.37490965  0.35385310  0.00561393  1
  V  V48  1  0.23963595  0.62550535  0.38692594  1
  V  V49  1  0.38680762  0.88282160  -0.00454217  1
  V  V50  1  0.35580427  0.74559313  0.62301310  1
  V  V51  1  0.24741304  0.62554293  0.87790600  1
  V  V52  1  0.75121448  0.62316001  0.36343256  1
  V  V53  1  -0.00237319  0.25006423  0.76810934  1
  V  V54  1  0.61624901  0.11736176  0.50623296  1
  V  V55  1  0.61351032  0.75969070  0.86178441  1
  V  V56  1  0.00279589  0.62205396  0.61271539  1
  V  V57  1  0.23852084  0.36473751  0.12201473  1
  V  V58  1  0.01703251  0.24989230  0.24143126  1
  V  V59  1  0.87180259  0.11566601  0.76352568  1
  V  V60  1  0.00367359  0.88634763  0.37080562  1
  V  V61  1  0.11374599  0.61122038  0.01313190  1
  V  V62  1  0.62873737  0.25351754  0.38489923  1
  V  V63  1  0.76134113  0.25044966  -0.00336239  1
  V  V64  1  0.75331073  0.74971353  0.00237078  1
  V  V65  1  0.38911109  0.89265440  0.49430075  1
  V  V66  1  0.25189643  0.50264983  0.75145000  1
  V  V67  1  0.49250835  0.12634680  0.13372879  1
  V  V68  1  0.02815094  0.36451345  0.37951287  1
  V  V69  1  -0.01345702  0.73733043  0.24131217  1
  Zn  Zn70  1  0.62689380  0.87215158  0.25819061  1
  Zn  Zn71  1  0.63822843  0.50982563  0.63319208  1
  Zn  Zn72  1  -0.13479843  0.49439072  0.38665491  1
  Zn  Zn73  1  0.11420395  0.75517021  0.88146853  1
  Zn  Zn74  1  0.74602281  0.75748606  0.49051189  1
  Zn  Zn75  1  0.13172024  0.14711013  -0.01505766  1
  Zn  Zn76  1  0.18981777  0.18030554  0.17162536  1
  Zn  Zn77  1  0.18005050  0.19467399  0.66898454  1
  Zn  Zn78  1  0.17456144  0.68831760  0.19679735  1
  Zn  Zn79  1  0.18557389  0.68829676  0.68587895  1
  Zn  Zn80  1  0.69055727  0.18970516  0.19206506  1
  Zn  Zn81  1  0.68537682  0.19453554  0.69210783  1
  Zn  Zn82  1  0.68756338  0.68997714  0.18938085  1
  Zn  Zn83  1  0.68595027  0.69237615  0.68036904  1
  Zn  Zn84  1  0.30375659  0.30960533  0.30996697  1
  Zn  Zn85  1  0.31500639  0.31023339  0.80492275  1
  Zn  Zn86  1  0.29456313  0.82536619  0.34294623  1
  Zn  Zn87  1  0.32631891  0.80711691  0.81235816  1
  Zn  Zn88  1  0.82299049  0.30896447  0.32481456  1
  Zn  Zn89  1  0.82058954  0.30872256  0.81922354  1
  Zn  Zn90  1  0.81499539  0.80954814  0.31531815  1
  Zn  Zn91  1  0.80570493  0.80329531  0.81145084  1
  Zn  Zn92  1  0.15538448  0.46176283  0.41215987  1
  Zn  Zn93  1  0.18814657  0.43194446  0.94453212  1
  Zn  Zn94  1  0.18868693  0.94366414  0.43524809  1
  Zn  Zn95  1  0.19110759  0.92985279  0.94034512  1
  Zn  Zn96  1  0.68117964  0.44461767  0.43801346  1
  Zn  Zn97  1  0.68869390  0.43729279  0.94262000  1
  Zn  Zn98  1  0.69595319  0.94701568  0.44535229  1
  Zn  Zn99  1  0.68483401  0.93552615  0.93882225  1
  Zn  Zn100  1  0.31456395  0.05586361  0.06689244  1
  Zn  Zn101  1  0.35097604  0.05439935  0.60266776  1
  Zn  Zn102  1  0.31021940  0.56005929  0.06003209  1
  Zn  Zn103  1  0.31418981  0.56108340  0.56573257  1
  Zn  Zn104  1  0.81745926  0.05404347  0.05837894  1
  Zn  Zn105  1  0.81162653  0.07016429  0.56788190  1
  Zn  Zn106  1  0.80291823  0.56052398  0.06551092  1
  Zn  Zn107  1  0.80588910  0.56803686  0.55311393  1
  Zn  Zn108  1  0.43389319  0.43368902  0.19117642  1
  Zn  Zn109  1  0.43760485  0.43394277  0.69619329  1
  Zn  Zn110  1  0.43599927  0.93674657  0.19087904  1
  Zn  Zn111  1  0.44904795  0.89940486  0.67204884  1
  Zn  Zn112  1  0.92772336  0.41062226  0.21888242  1
  Zn  Zn113  1  0.94097658  0.43486349  0.55283408  1
  Zn  Zn114  1  0.94094030  0.93475254  0.19281187  1
  Zn  Zn115  1  0.93107942  0.93790078  0.69080223  1
  Zn  Zn116  1  0.07827189  0.06872629  0.30982569  1
  Zn  Zn117  1  0.06895346  0.05940162  0.80206422  1
  Zn  Zn118  1  0.05440517  0.55767594  0.30206292  1
  Zn  Zn119  1  0.06525101  0.56993877  0.81126443  1
  Zn  Zn120  1  0.57559779  0.06688694  0.31208929  1
  Zn  Zn121  1  0.54591086  0.05900466  0.81806205  1
  Zn  Zn122  1  0.56049086  0.56244267  0.32097971  1
  Zn  Zn123  1  0.56662223  0.55674490  0.81454827  1
  Zn  Zn124  1  0.43944842  0.20112220  0.45048993  1
  Zn  Zn125  1  0.43865420  0.17648654  0.93063541  1
  Zn  Zn126  1  0.42842268  0.68837958  0.44654229  1
  Zn  Zn127  1  0.43642043  0.69178906  0.93750022  1
  Zn  Zn128  1  0.97753796  0.16542468  0.41771299  1
  Zn  Zn129  1  0.93820103  0.18680780  0.94958374  1
  Zn  Zn130  1  0.92948608  0.68292752  0.42956993  1
  Zn  Zn131  1  0.93524425  0.68374353  0.93876280  1
  Zn  Zn132  1  0.06056723  0.30929066  0.05979492  1
  Zn  Zn133  1  0.05621912  0.30904131  0.57552050  1
  Zn  Zn134  1  0.05941139  0.81196580  0.06610784  1
  Zn  Zn135  1  0.06696550  0.81765498  0.56225180  1
  Zn  Zn136  1  0.56128286  0.30868601  0.06502103  1
  Zn  Zn137  1  0.57002374  0.32356959  0.56805222  1
  Zn  Zn138  1  0.56634870  0.80636522  0.06504265  1
  Zn  Zn139  1  0.55808664  0.82021146  0.56408454  1
  O  O140  1  0.14110833  0.10322248  0.09736969  1
  O  O141  1  0.10901749  0.11246902  0.64355857  1
  O  O142  1  0.12949453  0.62662601  0.11217255  1
  O  O143  1  0.11015296  0.61264543  0.63518630  1
  O  O144  1  0.63231783  0.11578872  0.11966033  1
  O  O145  1  0.63680978  0.11911943  0.61602225  1
  O  O146  1  0.61935988  0.61723310  0.12013212  1
  O  O147  1  0.63447205  0.62192684  0.60602518  1
  O  O148  1  0.36268173  0.38572689  0.37127359  1
  O  O149  1  0.38229208  0.37951228  0.88449782  1
  O  O150  1  0.38354778  0.88004272  0.38439378  1
  O  O151  1  0.36666860  0.86928284  0.89619878  1
  O  O152  1  0.88861550  0.40097458  0.32802655  1
  O  O153  1  0.88498678  0.37585208  0.89052857  1
  O  O154  1  0.88349247  0.87545231  0.38915380  1
  O  O155  1  0.86749945  0.87321890  0.88366265  1
  O  O156  1  0.22731960  0.00989789  0.35052230  1
  O  O157  1  0.25327303  0.02987224  0.91404102  1
  O  O158  1  0.25034061  0.50927035  0.36033552  1
  O  O159  1  0.25543917  0.50715123  0.87404510  1
  O  O160  1  0.74678069  0.01874615  0.36548066  1
  O  O161  1  0.75168961  0.01364293  0.88367669  1
  O  O162  1  0.74637088  0.51285612  0.37985878  1
  O  O163  1  0.74557601  0.51716204  0.87933442  1
  O  O164  1  0.25975032  0.48894115  0.13309192  1
  O  O165  1  0.24006742  0.50889287  0.64499726  1
  O  O166  1  0.24755002  0.98413448  0.13197209  1
  O  O167  1  0.23733269  1.02041039  0.62409701  1
  O  O168  1  0.73392101  0.48389606  0.12223174  1
  O  O169  1  0.75738258  0.48348720  0.62132428  1
  O  O170  1  0.74668622  0.99157599  0.12976765  1
  O  O171  1  0.74878791  0.99271301  0.62678648  1
  O  O172  1  0.02527848  0.35839348  0.25992082  1
  O  O173  1  0.00413745  0.36980303  0.77165047  1
  O  O174  1  -0.00860826  0.86363760  0.26737513  1
  O  O175  1  -0.00444402  0.86264785  0.74769546  1
  O  O176  1  0.51064064  0.35922019  0.24286220  1
  O  O177  1  0.50842351  0.37061786  0.76500817  1
  O  O178  1  0.50037680  0.85804224  0.24239329  1
  O  O179  1  0.46117266  0.95161763  0.78143457  1
  O  O180  1  0.50680540  0.13260564  0.24431805  1
  O  O181  1  0.51938976  0.14719725  0.74484741  1
  O  O182  1  0.49230071  0.63023647  0.24257830  1
  O  O183  1  0.49337745  0.59493582  0.71984796  1
  O  O184  1  0.98198314  0.13367767  0.25328687  1
  O  O185  1  0.98680001  0.13061506  0.75429457  1
  O  O186  1  0.99126281  0.63620668  0.25849599  1
  O  O187  1  0.98856321  0.63181565  0.74498606  1
  O  O188  1  0.37656536  0.25384560  -0.01185470  1
  O  O189  1  0.37295091  0.26867078  0.50986281  1
  O  O190  1  0.36450669  0.74573473  0.01483018  1
  O  O191  1  0.38391804  0.76866724  0.51085533  1
  O  O192  1  0.86608709  0.25975892  0.00562988  1
  O  O193  1  0.87807881  0.23822989  0.52245243  1
  O  O194  1  0.86340743  0.75899718  -0.00499635  1
  O  O195  1  0.87664117  0.75191452  0.51323286  1
  O  O196  1  0.14944669  0.24344797  0.52488936  1
  O  O197  1  0.12590279  0.25683634  0.98934707  1
  O  O198  1  0.11563775  0.74712693  0.48405827  1
  O  O199  1  0.13654176  0.74898043  1.00018014  1
  O  O200  1  0.62127776  0.24870906  0.48915880  1
  O  O201  1  0.64067418  0.23830446  1.00860163  1
  O  O202  1  0.62323421  0.75020365  0.50181961  1
  O  O203  1  0.63316664  0.73741365  0.99494610  1
  O  O204  1  0.50982319  0.23588555  0.14111764  1
  O  O205  1  0.49937063  0.26329516  0.63355922  1
  O  O206  1  0.49259702  0.73672323  0.13289905  1
  O  O207  1  0.48275820  0.79290015  0.64375723  1
  O  O208  1  0.99777856  0.26152547  0.14185391  1
  O  O209  1  0.99029638  0.24081383  0.64317661  1
  O  O210  1  1.00414900  0.75172718  0.14178135  1
  O  O211  1  0.99529780  0.74012260  0.63362913  1
  O  O212  1  -0.01585289  0.26418303  0.35849737  1
  O  O213  1  -0.00501113  0.25136544  0.87095840  1
  O  O214  1  0.00350374  0.75041569  0.37049566  1
  O  O215  1  -0.00307691  0.74401810  0.85711368  1
  O  O216  1  0.51675494  0.24192200  0.36462898  1
  O  O217  1  0.50099681  0.26152952  0.86779323  1
  O  O218  1  0.49022417  0.74072453  0.35851405  1
  O  O219  1  0.51364272  0.74025427  0.87237132  1
  O  O220  1  0.28174392  0.16194751  0.40144609  1
  O  O221  1  0.24754652  0.08506675  0.97200388  1
  O  O222  1  0.24532450  0.61905019  0.48472147  1
  O  O223  1  0.24142439  0.63070937  0.99668435  1
  O  O224  1  0.74493313  0.12479708  0.48984029  1
  O  O225  1  0.75198584  0.13347013  0.99596653  1
  O  O226  1  0.73777542  0.63483163  0.49132400  1
  O  O227  1  0.74549783  0.63132222  0.99435718  1
  O  O228  1  0.26524697  0.37444229  0.00913283  1
  O  O229  1  0.20315172  0.28956287  0.50060264  1
  O  O230  1  0.25908404  0.86418581  0.01331275  1
  O  O231  1  0.27423431  0.86986750  0.45324405  1
  O  O232  1  0.75809412  0.36644808  0.00530341  1
  O  O233  1  0.74742379  0.37105687  0.50717421  1
  O  O234  1  0.76052609  0.87030492  0.00661098  1
  O  O235  1  0.76512420  0.87597304  0.50364979  1
  O  O236  1  0.14184920  0.50575604  0.24284302  1
  O  O237  1  0.13042827  0.49210498  0.74889913  1
  O  O238  1  0.13325424  1.01070444  0.22785658  1
  O  O239  1  0.13048419  0.98361466  0.74386292  1
  O  O240  1  0.61575597  0.48631688  0.24375177  1
  O  O241  1  0.62138258  0.48322370  0.74469121  1
  O  O242  1  0.64376999  1.00519201  0.23561020  1
  O  O243  1  0.62503302  1.01470454  0.74483914  1
  O  O244  1  0.36041024  -0.00628066  0.25101605  1
  O  O245  1  0.35103017  -0.00803337  0.71780838  1
  O  O246  1  0.36801371  0.50717806  0.25636273  1
  O  O247  1  0.35560368  0.48990376  0.76591628  1
  O  O248  1  0.86694142  0.01404729  0.24226838  1
  O  O249  1  0.87408782  0.01695042  0.75389260  1
  O  O250  1  0.87791894  0.57158021  0.15655071  1
  O  O251  1  0.87734266  0.51354023  0.74798119  1
  O  O252  1  0.12842394  0.34991968  0.38391490  1
  O  O253  1  0.10920557  0.38361868  0.87116120  1
  O  O254  1  0.11023576  0.86138744  0.38199531  1
  O  O255  1  0.13559937  0.86932240  0.85901802  1
  O  O256  1  0.63380134  0.36164643  0.36813243  1
  O  O257  1  0.61142451  0.38506724  0.87380148  1
  O  O258  1  0.60555836  0.91308303  0.37068610  1
  O  O259  1  0.62575341  0.85943055  0.88183571  1
  O  O260  1  0.39454541  0.12045010  0.11963573  1
  O  O261  1  0.38663895  0.15637941  0.62113837  1
  O  O262  1  0.38039203  0.62705751  0.13082737  1
  O  O263  1  0.37713389  0.64554858  0.60451151  1
  O  O264  1  0.87373796  0.12798058  0.12662545  1
  O  O265  1  0.87765781  0.13278393  0.64367228  1
  O  O266  1  0.95214573  0.55552144  0.12881696  1
  O  O267  1  0.88180558  0.63065099  0.63465318  1
  O  O268  1  0.25356750  0.26564448  0.13251108  1
  O  O269  1  0.26565829  0.25600371  0.64566031  1
  O  O270  1  0.25315460  0.75653292  0.12439661  1
  O  O271  1  0.25259677  0.74480360  0.61690903  1
  O  O272  1  0.74536689  0.26375563  0.11609193  1
  O  O273  1  0.76541986  0.26282874  0.63736592  1
  O  O274  1  0.74050958  0.76012113  0.11394710  1
  O  O275  1  0.75838070  0.76597540  0.62258431  1
  O  O276  1  0.24511290  0.22258686  0.36591140  1
  O  O277  1  0.24854376  0.21693920  0.86516079  1
  O  O278  1  0.23206162  0.73151148  0.36383523  1
  O  O279  1  0.25741922  0.73767751  0.88659020  1
  O  O280  1  0.74157154  0.23918149  0.37109031  1
  O  O281  1  0.75200710  0.24402536  0.89319211  1
  O  O282  1  0.75088948  0.73549663  0.37473216  1
  O  O283  1  0.73913974  0.73907155  0.88428141  1
  O  O284  1  0.00881555  0.10582479  -0.01224896  1
  O  O285  1  -0.00786210  0.12892414  0.52739088  1
  O  O286  1  0.01442058  0.63160626  -0.00291748  1
  O  O287  1  -0.00222757  0.63282395  0.51530756  1
  O  O288  1  0.52001454  0.13749904  0.02105704  1
  O  O289  1  0.51718964  0.12796275  0.49619568  1
  O  O290  1  0.50861090  0.63064061  0.01136067  1
  O  O291  1  0.51458938  0.62915347  0.49647145  1
  O  O292  1  0.53599785  0.42631138  0.52296173  1
  O  O293  1  0.49308564  0.36637618  0.98907844  1
  O  O294  1  0.49103454  0.88622281  0.50094503  1
  O  O295  1  0.48538873  0.86040695  1.00857097  1
  O  O296  1  1.00360793  0.36008352  0.48823821  1
  O  O297  1  0.98800446  0.37974252  0.99464563  1
  O  O298  1  0.98754044  0.87471125  0.49368186  1
  O  O299  1  0.98588781  0.87148901  0.99649957  1
  O  O300  1  0.47835767  0.50062958  0.37083322  1
  O  O301  1  0.48408186  0.49380625  0.86972767  1
  O  O302  1  0.54514830  0.96770636  0.36916121  1
  O  O303  1  0.39511008  1.00127656  0.78150712  1
  O  O304  1  1.03369499  0.47377449  0.37648075  1
  O  O305  1  0.99514769  0.49696859  0.87259253  1
  O  O306  1  1.00925200  0.98469739  0.36460695  1
  O  O307  1  1.00811100  0.99334120  0.87812607  1
  O  O308  1  0.01278631  -0.00543883  0.12351857  1
  O  O309  1  -0.00079184  0.01222357  0.63513735  1
  O  O310  1  -0.00921820  0.49840161  0.16764941  1
  O  O311  1  0.00927514  0.50996199  0.62033019  1
  O  O312  1  0.51790391  0.01194547  0.13731013  1
  O  O313  1  0.51831732  -0.00716694  0.63315020  1
  O  O314  1  0.50725573  0.50890090  0.13066824  1
  O  O315  1  0.48977792  0.54014781  0.66535715  1
  O  O316  1  0.25409652  0.38569602  0.23682871  1
  O  O317  1  0.23213669  0.38527732  0.76871646  1
  O  O318  1  0.25117625  0.87192489  0.24114276  1
  O  O319  1  0.24587715  0.86804768  0.74743057  1
  O  O320  1  0.74071052  0.36650545  0.23790167  1
  O  O321  1  0.74001878  0.37469471  0.77327139  1
  O  O322  1  0.74946522  0.88318030  0.24628895  1
  O  O323  1  0.76088306  0.87749983  0.73596033  1
  O  O324  1  0.26098020  0.11474888  0.23171741  1
  O  O325  1  0.21235666  0.16163873  0.82310472  1
  O  O326  1  0.25878312  0.61429180  0.24575434  1
  O  O327  1  0.23889682  0.61191564  0.76438693  1
  O  O328  1  0.76379202  0.12339785  0.25752789  1
  O  O329  1  0.75739705  0.13449950  0.76810125  1
  O  O330  1  0.73602958  0.62099790  0.26239313  1
  O  O331  1  0.75940140  0.62833972  0.75747623  1
  O  O332  1  0.35698475  0.14684196  0.37981908  1
  O  O333  1  0.45999982  0.07950065  0.88606256  1
  O  O334  1  0.35883191  0.62197533  0.36820642  1
  O  O335  1  0.36679163  0.61114842  0.88511170  1
  O  O336  1  0.86683646  0.13239961  0.38166097  1
  O  O337  1  0.86373031  0.12891243  0.87225815  1
  O  O338  1  0.85887485  0.61536077  0.37226465  1
  O  O339  1  0.86205634  0.62995805  0.86387803  1
  O  O340  1  0.14054166  0.37745090  0.11376536  1
  O  O341  1  0.11022230  0.38867112  0.64688763  1
  O  O342  1  0.13829474  0.88249661  0.12250608  1
  O  O343  1  0.12321329  0.88647924  0.63645607  1
  O  O344  1  0.62984181  0.37902928  0.13062375  1
  O  O345  1  0.65141004  0.37142096  0.64113782  1
  O  O346  1  0.63348140  0.88819319  0.12340269  1
  O  O347  1  0.64054230  0.89174195  0.62291524  1
  O  O348  1  0.11337604  0.22133373  0.24708538  1
  O  O349  1  0.11458057  0.26715439  0.74440870  1
  O  O350  1  0.10801446  0.74764117  0.26683248  1
  O  O351  1  0.11215387  0.76064665  0.74569532  1
  O  O352  1  0.62184555  0.25600967  0.26088417  1
  O  O353  1  0.61672630  0.26904769  0.75053142  1
  O  O354  1  0.61084898  0.75258628  0.24875871  1
  O  O355  1  0.63042072  0.74822942  0.76234878  1
  O  O356  1  0.39354503  0.25402020  0.25682796  1
  O  O357  1  0.39499743  0.25052637  0.75259802  1
  O  O358  1  0.37966901  0.73851035  0.24102624  1
  O  O359  1  0.36944117  0.75041555  0.72814824  1
  O  O360  1  0.87191658  0.23943068  0.24312886  1
  O  O361  1  0.88333975  0.24243740  0.75013488  1
  O  O362  1  0.88484590  0.75186239  0.24838252  1
  O  O363  1  0.88338146  0.74860940  0.73831900  1
  O  O364  1  0.36331372  0.49768400  0.48603994  1
  O  O365  1  0.37340987  0.48929013  0.98929366  1
  O  O366  1  0.36978776  0.99229092  0.51162651  1
  O  O367  1  0.38241336  0.98155041  1.01250652  1
  O  O368  1  0.88306217  0.50945185  0.49700112  1
  O  O369  1  0.86777149  0.48866992  1.00029010  1
  O  O370  1  0.87654898  0.99536783  0.50331492  1
  O  O371  1  0.89073613  0.98623157  0.99938668  1
  O  O372  1  0.10722459  -0.01927661  0.00525853  1
  O  O373  1  0.12603532  -0.00856727  0.51870490  1
  O  O374  1  0.12584948  0.51191802  -0.00176188  1
  O  O375  1  0.14172840  0.48602596  0.52451770  1
  O  O376  1  0.63433126  0.01269431  0.01479822  1
  O  O377  1  0.62780280  0.01493323  0.51052842  1
  O  O378  1  0.62696677  0.51203889  0.01020872  1
  O  O379  1  0.60258844  0.47735852  0.52025083  1
  O  O380  1  0.38141371  0.37118021  0.10806840  1
  O  O381  1  0.37861712  0.36532493  0.63477810  1
  O  O382  1  0.36520950  0.86345742  0.12226880  1
  O  O383  1  0.35863589  0.86793847  0.60390214  1
  O  O384  1  0.86073048  0.38312428  0.12072986  1
  O  O385  1  0.87104607  0.36487780  0.62138664  1
  O  O386  1  0.86530929  0.87861244  0.11934064  1
  O  O387  1  0.86964497  0.87336249  0.61390585  1
  O  O388  1  0.08528498  0.13460294  0.39738190  1
  O  O389  1  0.13765288  0.13633535  0.86070845  1
  O  O390  1  0.13098884  0.62565409  0.37325965  1
  O  O391  1  0.13354202  0.63180441  0.88530004  1
  O  O392  1  0.63621238  0.13528309  0.38685971  1
  O  O393  1  0.63693770  0.12011584  0.89502353  1
  O  O394  1  0.63171294  0.61616781  0.39279418  1
  O  O395  1  0.63290556  0.62852679  0.87943879  1
