# generated using pymatgen
data_V35Zn35O128
_symmetry_space_group_name_H-M   'P 1'
_cell_length_a   16.93533766
_cell_length_b   16.90575185
_cell_length_c   16.85363628
_cell_angle_alpha   89.81848870
_cell_angle_beta   89.86695509
_cell_angle_gamma   89.74928066
_symmetry_Int_Tables_number   1
_chemical_formula_structural   V35Zn35O128
_chemical_formula_sum   'V70 Zn70 O256'
_cell_volume   4825.19059979
_cell_formula_units_Z   2
loop_
 _symmetry_equiv_pos_site_id
 _symmetry_equiv_pos_as_xyz
  1  'x, y, z'
loop_
 _atom_site_type_symbol
 _atom_site_label
 _atom_site_symmetry_multiplicity
 _atom_site_fract_x
 _atom_site_fract_y
 _atom_site_fract_z
 _atom_site_occupancy
  V  V0  1  0.50888660  0.50849817  0.00241339  1
  V  V1  1  0.36054345  0.35538601  -0.02152850  1
  V  V2  1  0.89349431  0.75090674  0.12026656  1
  V  V3  1  0.88285979  -0.00059239  0.40108864  1
  V  V4  1  0.24630169  -0.00382675  0.75477385  1
  V  V5  1  0.87818374  0.88555703  -0.00840112  1
  V  V6  1  0.87921039  0.11607422  0.25040743  1
  V  V7  1  0.01781127  0.85401588  0.37601751  1
  V  V8  1  0.12998244  -0.00648672  0.13293304  1
  V  V9  1  0.01046109  0.78637563  0.75222245  1
  V  V10  1  0.74803086  0.87676792  0.13590731  1
  V  V11  1  0.50406796  0.62251770  0.60088624  1
  V  V12  1  0.36825211  0.51017931  0.88215203  1
  V  V13  1  0.24980124  0.87509393  0.61897491  1
  V  V14  1  0.54568609  0.32239279  0.91936847  1
  V  V15  1  0.50349901  0.10499118  0.61222245  1
  V  V16  1  0.87583162  0.02322503  0.88013363  1
  V  V17  1  0.37483797  0.12371834  0.74086472  1
  V  V18  1  0.24102628  0.47456287  0.75435008  1
  V  V19  1  0.74983620  0.63312922  0.37944303  1
  V  V20  1  0.62884579  0.73680091  0.87583034  1
  V  V21  1  0.25644582  0.35739409  0.11400811  1
  V  V22  1  0.87355854  0.25783403  0.12388783  1
  V  V23  1  -0.00083165  0.13647936  0.64216346  1
  V  V24  1  0.75860344  0.74525320  0.51866624  1
  V  V25  1  0.62274335  0.49832073  0.60658338  1
  V  V26  1  0.74189146  0.38232951  0.12326083  1
  V  V27  1  0.25346216  0.35704269  0.60994914  1
  V  V28  1  0.12316712  0.36918614  0.23967644  1
  V  V29  1  0.63321300  0.11126306  0.50137723  1
  V  V30  1  0.12007888  -0.00279510  0.62495133  1
  V  V31  1  0.76517078  0.89356947  0.62823478  1
  V  V32  1  0.62457271  0.76868777  0.37090013  1
  V  V33  1  0.62412199  -0.00809600  0.15328179  1
  V  V34  1  0.52063434  0.00550436  -0.00159661  1
  V  V35  1  0.27399063  0.87894008  0.13999670  1
  V  V36  1  0.12068919  0.50855928  0.11643476  1
  V  V37  1  0.38609887  0.88178684  0.50427005  1
  V  V38  1  0.50467801  0.26172148  0.24081836  1
  V  V39  1  0.26064505  0.11322649  0.38055931  1
  V  V40  1  0.50122398  0.74431469  0.74195945  1
  V  V41  1  0.15211222  0.13157546  -0.00897388  1
  V  V42  1  0.26402174  0.75787440  -0.00600729  1
  V  V43  1  0.89426431  0.62619772  0.24104280  1
  V  V44  1  0.74463766  0.01854671  0.76334685  1
  V  V45  1  0.74922293  0.13162271  0.36721171  1
  V  V46  1  0.88608654  0.50161799  0.38585796  1
  V  V47  1  0.37482497  -0.00241959  0.88079793  1
  V  V48  1  -0.00470012  0.37185633  0.38664313  1
  V  V49  1  0.88593918  0.37474100  -0.00925369  1
  V  V50  1  0.50156847  0.87148317  0.87707281  1
  V  V51  1  0.12149871  0.12771611  0.50446357  1
  V  V52  1  0.62923301  0.87394694  0.74095898  1
  V  V53  1  0.11914342  0.50490869  0.62790876  1
  V  V54  1  0.37936349  0.63456753  0.25276130  1
  V  V55  1  0.74530890  0.50158914  0.24540349  1
  V  V56  1  0.88301199  0.63517409  0.74857320  1
  V  V57  1  0.31337487  0.69575032  0.59672276  1
  V  V58  1  0.13269612  0.24764353  0.38135884  1
  V  V59  1  0.75099064  0.49608845  0.75250284  1
  V  V60  1  0.62192792  0.37599615  0.73890110  1
  V  V61  1  0.74695662  0.74302512  -0.00177928  1
  V  V62  1  0.49966088  0.25042014  0.72956687  1
  V  V63  1  0.37427524  0.62524086  0.74965403  1
  V  V64  1  0.87500096  0.26348909  0.63327063  1
  V  V65  1  0.37818089  0.12366739  0.24073840  1
  V  V66  1  0.00125299  0.51016163  -0.01247136  1
  V  V67  1  0.53266289  0.37644606  0.37895869  1
  V  V68  1  0.00079814  0.11892830  0.10942984  1
  V  V69  1  0.75502517  0.26036752  0.50404089  1
  Zn  Zn70  1  -0.00137193  0.24750031  0.25102175  1
  Zn  Zn71  1  0.38647978  0.74164752  0.12245182  1
  Zn  Zn72  1  0.74991956  0.59326600  0.88963011  1
  Zn  Zn73  1  0.11995206  0.74536479  0.88107297  1
  Zn  Zn74  1  0.39324148  0.52253966  0.38459521  1
  Zn  Zn75  1  0.25213107  0.50192209  0.24596840  1
  Zn  Zn76  1  0.18594412  0.17819260  0.19201434  1
  Zn  Zn77  1  0.18979444  0.18877061  0.69599636  1
  Zn  Zn78  1  0.21740934  0.66929197  0.14871547  1
  Zn  Zn79  1  0.16442648  0.67968848  0.72508291  1
  Zn  Zn80  1  0.67660552  0.19529076  0.14233536  1
  Zn  Zn81  1  0.68316681  0.19173131  0.67844379  1
  Zn  Zn82  1  0.71286332  0.70821996  0.20743390  1
  Zn  Zn83  1  0.68319096  0.67569817  0.69038978  1
  Zn  Zn84  1  0.30533623  0.29935708  0.29160757  1
  Zn  Zn85  1  0.38293797  0.38586285  0.74165348  1
  Zn  Zn86  1  0.32738492  0.81991328  0.30789567  1
  Zn  Zn87  1  0.31617629  0.81464590  0.80741468  1
  Zn  Zn88  1  0.81170592  0.31113985  0.30851180  1
  Zn  Zn89  1  0.81457037  0.21154381  0.82556643  1
  Zn  Zn90  1  0.85130016  0.83006040  0.30317388  1
  Zn  Zn91  1  0.81789821  0.81176291  0.81172577  1
  Zn  Zn92  1  0.16929996  0.42789748  0.44648695  1
  Zn  Zn93  1  0.18378820  0.43452269  0.93418090  1
  Zn  Zn94  1  0.18297466  0.93708813  0.43876888  1
  Zn  Zn95  1  0.18939000  0.93739294  0.95498119  1
  Zn  Zn96  1  0.70446724  0.43981390  0.43338784  1
  Zn  Zn97  1  0.73377731  0.37250579  0.90231311  1
  Zn  Zn98  1  0.71877130  0.93276431  0.42976593  1
  Zn  Zn99  1  0.69195059  0.92717902  0.93559907  1
  Zn  Zn100  1  0.31297028  0.06108954  0.06327609  1
  Zn  Zn101  1  0.31163204  0.06024315  0.55657659  1
  Zn  Zn102  1  0.31241716  0.56066418  0.06916194  1
  Zn  Zn103  1  0.26656556  0.53023382  0.53360581  1
  Zn  Zn104  1  0.79891752  0.06939969  0.06310062  1
  Zn  Zn105  1  0.81544967  0.07619515  0.56912212  1
  Zn  Zn106  1  0.82290314  0.56045914  0.06201726  1
  Zn  Zn107  1  0.80753506  0.55735237  0.56900276  1
  Zn  Zn108  1  0.46057785  0.47809838  0.21462925  1
  Zn  Zn109  1  0.43124556  0.43621053  0.55213115  1
  Zn  Zn110  1  0.43233188  0.96768431  0.18054775  1
  Zn  Zn111  1  0.43793241  0.93311176  0.68743896  1
  Zn  Zn112  1  0.94429749  0.44133320  0.18971419  1
  Zn  Zn113  1  0.93044248  0.45073871  0.67758838  1
  Zn  Zn114  1  0.94556781  0.93570203  0.19036615  1
  Zn  Zn115  1  0.93436101  0.95643985  0.69947481  1
  Zn  Zn116  1  0.06143494  0.05628429  0.31330732  1
  Zn  Zn117  1  0.06283372  0.07054056  0.82303900  1
  Zn  Zn118  1  0.06682757  0.55480755  0.30548969  1
  Zn  Zn119  1  0.06706749  0.56450207  0.81657887  1
  Zn  Zn120  1  0.59461082  0.10658010  0.27274332  1
  Zn  Zn121  1  0.56576556  0.06440604  0.80903892  1
  Zn  Zn122  1  0.56518732  0.57020098  0.32190697  1
  Zn  Zn123  1  0.55706227  0.55432868  0.81495863  1
  Zn  Zn124  1  0.46856960  0.16919626  0.40169043  1
  Zn  Zn125  1  0.44531167  0.17406261  0.93033097  1
  Zn  Zn126  1  0.42536869  0.72053205  0.42902676  1
  Zn  Zn127  1  0.43742547  0.68642666  0.93815009  1
  Zn  Zn128  1  0.93827141  0.18764314  0.44501533  1
  Zn  Zn129  1  0.68014007  0.18398811  0.94880827  1
  Zn  Zn130  1  0.93215067  0.69883647  0.42679626  1
  Zn  Zn131  1  0.93081876  0.68390676  0.92113810  1
  Zn  Zn132  1  0.05994894  0.30322926  0.05432725  1
  Zn  Zn133  1  0.06645758  0.31937892  0.57441141  1
  Zn  Zn134  1  0.07329107  0.82969609  0.03772930  1
  Zn  Zn135  1  -0.05689762  0.81672914  0.56526195  1
  Zn  Zn136  1  0.53161092  0.36323812  0.09642748  1
  Zn  Zn137  1  0.56615642  0.30345396  0.55328895  1
  Zn  Zn138  1  0.57094846  0.82191938  0.05632651  1
  Zn  Zn139  1  0.57544169  0.80862704  0.55377139  1
  O  O140  1  0.11249601  0.12519238  0.11799372  1
  O  O141  1  0.12104426  0.12525115  0.62330364  1
  O  O142  1  0.12322865  0.60702946  0.13074218  1
  O  O143  1  0.12337792  0.60366044  0.64968750  1
  O  O144  1  0.61831963  0.09429592  0.15093178  1
  O  O145  1  0.61598847  0.12097261  0.61213280  1
  O  O146  1  0.55743506  0.67662890  0.14031071  1
  O  O147  1  0.61289411  0.60979643  0.62570343  1
  O  O148  1  0.36257440  0.34133039  0.40039842  1
  O  O149  1  0.36507290  0.38921787  0.87784025  1
  O  O150  1  0.37333664  0.83572160  0.40824568  1
  O  O151  1  0.39234759  0.88857949  0.86015923  1
  O  O152  1  0.88746250  0.38786115  0.36946378  1
  O  O153  1  0.86444217  0.36782068  0.89514891  1
  O  O154  1  0.84175771  0.90335881  0.38980928  1
  O  O155  1  0.86605798  0.88404428  0.88869589  1
  O  O156  1  0.24399978  0.01519496  0.37689336  1
  O  O157  1  0.26503201  -0.01085074  0.86590402  1
  O  O158  1  0.21061428  0.51875128  0.37226217  1
  O  O159  1  0.25252131  0.49778197  0.86385235  1
  O  O160  1  0.76802045  0.02773210  0.38218230  1
  O  O161  1  0.74953500  0.00119988  0.86708060  1
  O  O162  1  0.76931657  0.50869828  0.36510168  1
  O  O163  1  0.73362938  0.48184524  0.85737370  1
  O  O164  1  0.23362054  0.48320363  0.11791142  1
  O  O165  1  0.24530417  0.49053864  0.64645101  1
  O  O166  1  0.24644763  0.98623400  0.12426977  1
  O  O167  1  0.24268508  0.99853814  0.63523298  1
  O  O168  1  0.75961578  0.49702383  0.13681774  1
  O  O169  1  0.72919956  0.49946550  0.63623660  1
  O  O170  1  0.73732017  0.98486895  0.12787177  1
  O  O171  1  0.75633784  0.99706101  0.63965120  1
  O  O172  1  0.01158687  0.37255033  0.25810953  1
  O  O173  1  0.00827517  0.37301616  0.76131166  1
  O  O174  1  -0.03743832  0.86978290  0.28153053  1
  O  O175  1  -0.00848869  0.88420000  0.76524619  1
  O  O176  1  0.50339708  0.37005908  0.26093477  1
  O  O177  1  0.49344944  0.35449834  0.74050340  1
  O  O178  1  0.49410971  0.93390936  0.34982176  1
  O  O179  1  0.51062684  0.86552303  0.75139043  1
  O  O180  1  0.48563424  0.14193446  0.28025079  1
  O  O181  1  0.50025494  0.12529677  0.73000954  1
  O  O182  1  0.48278541  0.59485668  0.24853159  1
  O  O183  1  0.49108488  0.62862157  0.74933151  1
  O  O184  1  0.98728787  0.12552756  0.24749053  1
  O  O185  1  1.01507935  0.13706388  0.74132004  1
  O  O186  1  0.99297560  0.62425618  0.25243671  1
  O  O187  1  0.97874258  0.60474699  0.75305944  1
  O  O188  1  0.37481929  0.25788041  -0.02646547  1
  O  O189  1  0.36972917  0.28836030  0.45206660  1
  O  O190  1  0.37435584  0.75251596  0.00666390  1
  O  O191  1  0.37106885  0.75310195  0.53543541  1
  O  O192  1  0.87373818  0.26299972  0.02096038  1
  O  O193  1  0.86543518  0.23882208  0.51666084  1
  O  O194  1  0.86782756  0.75897163  0.00545302  1
  O  O195  1  0.86475347  0.75191692  0.50269845  1
  O  O196  1  0.12036357  0.24722748  0.48635739  1
  O  O197  1  0.12046609  0.22905024  0.99714121  1
  O  O198  1  0.08460832  0.67106371  0.50850196  1
  O  O199  1  0.14651621  0.74902675  0.99945284  1
  O  O200  1  0.64751279  0.23831401  0.50763187  1
  O  O201  1  0.59980729  0.27664821  0.98911951  1
  O  O202  1  0.65422463  0.75286014  0.48807935  1
  O  O203  1  0.63947209  0.75152202  0.99250480  1
  O  O204  1  0.49033601  0.26778035  0.14023121  1
  O  O205  1  0.49806555  0.23677444  0.62637369  1
  O  O206  1  0.51719857  0.73919546  0.12496031  1
  O  O207  1  0.52040963  0.73448776  0.63575096  1
  O  O208  1  0.98924869  0.23678280  0.12788133  1
  O  O209  1  0.99208901  0.24453196  0.62263875  1
  O  O210  1  0.98953470  0.76043002  0.11124545  1
  O  O211  1  0.99845493  0.76744927  0.65064460  1
  O  O212  1  0.00205524  0.26155101  0.37486454  1
  O  O213  1  -0.01634117  0.32165718  0.80669356  1
  O  O214  1  0.01516468  0.75021451  0.37233310  1
  O  O215  1  -0.00009329  0.74365487  0.85524582  1
  O  O216  1  0.50879333  0.27130410  0.36609536  1
  O  O217  1  0.50013091  0.25085607  0.86027941  1
  O  O218  1  0.52712187  0.75898416  0.39118048  1
  O  O219  1  0.50984515  0.75311918  0.86788715  1
  O  O220  1  0.23591664  0.12449451  0.49168201  1
  O  O221  1  0.25249039  0.13557958  1.00446226  1
  O  O222  1  0.25654730  0.64590574  0.53449759  1
  O  O223  1  0.25338494  0.65446603  1.02832162  1
  O  O224  1  0.74408373  0.13196991  0.49645663  1
  O  O225  1  0.72483624  0.15092146  1.04600325  1
  O  O226  1  0.76317808  0.63404180  0.48993084  1
  O  O227  1  0.76003018  0.63813115  1.00010280  1
  O  O228  1  0.25125548  0.36475043  0.00011128  1
  O  O229  1  0.24721853  0.37036797  0.50915047  1
  O  O230  1  0.25868636  0.86682344  0.01871639  1
  O  O231  1  0.25199685  0.87978178  0.51520678  1
  O  O232  1  0.76875159  0.38747973  0.02085730  1
  O  O233  1  0.75478680  0.35993226  0.49775521  1
  O  O234  1  0.75729639  0.86369755  0.01077491  1
  O  O235  1  0.75152756  0.86685675  0.52684841  1
  O  O236  1  0.12609945  0.48459720  0.23333251  1
  O  O237  1  0.13734081  0.48698344  0.75172263  1
  O  O238  1  0.13182548  1.01803519  0.23250524  1
  O  O239  1  0.14283966  1.01180981  0.74665117  1
  O  O240  1  0.64777700  0.51334910  0.25316112  1
  O  O241  1  0.61648297  0.48713169  0.74071289  1
  O  O242  1  0.61304334  0.98204325  0.25139206  1
  O  O243  1  0.63809289  0.98726384  0.75556469  1
  O  O244  1  0.39002007  0.02306421  0.26644887  1
  O  O245  1  0.37008230  0.00521616  0.75272250  1
  O  O246  1  0.36360822  0.50072580  0.27365759  1
  O  O247  1  0.35971819  0.50805493  0.76257910  1
  O  O248  1  0.87071250  0.01662757  0.24264268  1
  O  O249  1  0.85464343  0.00502197  0.76775620  1
  O  O250  1  0.87620110  0.51524475  0.25169651  1
  O  O251  1  0.85114040  0.48407848  0.74875654  1
  O  O252  1  0.11629025  0.36428334  0.36661427  1
  O  O253  1  0.12922940  0.34596169  0.86940760  1
  O  O254  1  0.11477855  0.88351517  0.36853457  1
  O  O255  1  0.11401605  0.85687559  0.92631499  1
  O  O256  1  0.63181800  0.37769194  0.37214431  1
  O  O257  1  0.60828946  0.37534850  0.85525392  1
  O  O258  1  0.64635563  0.86706420  0.37565848  1
  O  O259  1  0.61997921  0.86234927  0.86367292  1
  O  O260  1  0.37982352  0.11549949  0.14021447  1
  O  O261  1  0.38977346  0.11418956  0.62880409  1
  O  O262  1  0.37941641  0.62142143  0.14042570  1
  O  O263  1  0.39605060  0.62690164  0.62995573  1
  O  O264  1  0.87978127  0.13270327  0.13366152  1
  O  O265  1  0.89709152  0.12522520  0.63196592  1
  O  O266  1  0.88002390  0.63671366  0.13119443  1
  O  O267  1  0.86252369  0.61234748  0.64930508  1
  O  O268  1  0.24609767  0.25910254  0.13015000  1
  O  O269  1  0.24796006  0.25779167  0.62702563  1
  O  O270  1  0.26019300  0.77165394  0.12679228  1
  O  O271  1  0.24277536  0.77130686  0.63614828  1
  O  O272  1  0.76370033  0.27438377  0.14236792  1
  O  O273  1  0.76397576  0.24437762  0.61682321  1
  O  O274  1  0.75558103  0.75547735  0.11266673  1
  O  O275  1  0.74924026  0.74197835  0.61939664  1
  O  O276  1  0.23390529  0.24519830  0.37226560  1
  O  O277  1  0.17168719  0.28749755  0.83841022  1
  O  O278  1  0.22644806  0.74550083  0.37410110  1
  O  O279  1  0.26186099  0.76117956  0.89078535  1
  O  O280  1  0.76878922  0.23941251  0.39075974  1
  O  O281  1  0.73513595  0.26069995  0.88400439  1
  O  O282  1  0.75965823  0.73598384  0.37510494  1
  O  O283  1  0.74439279  0.75565308  0.88817045  1
  O  O284  1  -0.00783782  0.12006093  0.01368071  1
  O  O285  1  0.01597951  0.12998914  0.51273750  1
  O  O286  1  -0.01036228  0.60984205  -0.00898032  1
  O  O287  1  0.02089190  0.63532701  0.50575476  1
  O  O288  1  0.49600113  0.10246811  0.00493845  1
  O  O289  1  0.51737600  0.12616001  0.50156217  1
  O  O290  1  0.49523195  0.60937245  0.00026611  1
  O  O291  1  0.49784236  0.64191490  0.50541873  1
  O  O292  1  0.50679060  0.37353450  0.48527719  1
  O  O293  1  0.47829989  0.37952113  0.98458957  1
  O  O294  1  0.48486842  0.86946236  0.52177832  1
  O  O295  1  0.50685578  0.88186991  0.98386679  1
  O  O296  1  1.00945273  0.37570590  0.48485187  1
  O  O297  1  0.99043296  0.37488716  0.99710027  1
  O  O298  1  0.98745517  0.86854425  0.47340453  1
  O  O299  1  0.97500883  0.88540557  1.00792841  1
  O  O300  1  0.50518229  0.48083939  0.36976927  1
  O  O301  1  0.47669377  0.50160782  0.88246467  1
  O  O302  1  0.51441539  0.98968919  0.39094573  1
  O  O303  1  0.49802889  0.99098225  0.88148042  1
  O  O304  1  0.99357579  0.49026146  0.37201460  1
  O  O305  1  1.01417963  0.49197403  0.88876234  1
  O  O306  1  0.98275188  0.99785678  0.37278650  1
  O  O307  1  0.97495993  1.01503635  0.87037181  1
  O  O308  1  0.00959503  0.01100826  0.13097295  1
  O  O309  1  0.01613177  0.01480530  0.63958846  1
  O  O310  1  0.01489277  0.49221432  0.11388122  1
  O  O311  1  0.02040745  0.48303348  0.62483538  1
  O  O312  1  0.51985404  -0.02313451  0.10957879  1
  O  O313  1  0.50420892  0.00649915  0.62263282  1
  O  O314  1  0.49577894  0.47455523  0.10501166  1
  O  O315  1  0.50798722  0.51251724  0.60631490  1
  O  O316  1  0.24089590  0.37521580  0.23563733  1
  O  O317  1  0.26131837  0.37569081  0.75008446  1
  O  O318  1  0.25712070  0.87680412  0.24133320  1
  O  O319  1  0.25698928  0.89159329  0.74074761  1
  O  O320  1  0.75992712  0.39492983  0.24504590  1
  O  O321  1  0.72248976  0.37819961  0.74234015  1
  O  O322  1  0.76123674  0.86098977  0.23359425  1
  O  O323  1  0.74754977  0.87517377  0.73991732  1
  O  O324  1  0.26820980  0.13521219  0.26600041  1
  O  O325  1  0.26865111  0.11379438  0.74331742  1
  O  O326  1  0.26759729  0.62110638  0.24178074  1
  O  O327  1  0.27852649  0.64766335  0.71351641  1
  O  O328  1  0.76296836  0.13728911  0.26394438  1
  O  O329  1  0.73737796  0.11915982  0.75318220  1
  O  O330  1  0.76661567  0.61814858  0.25962898  1
  O  O331  1  0.74583118  0.60360786  0.75588214  1
  O  O332  1  0.35981624  0.12807359  0.39285357  1
  O  O333  1  0.38924653  0.10453666  0.85513831  1
  O  O334  1  0.37945481  0.63910588  0.36293831  1
  O  O335  1  0.36961919  0.61757032  0.86634172  1
  O  O336  1  0.87755362  0.11937554  0.36680706  1
  O  O337  1  0.85827195  0.12112586  0.88401994  1
  O  O338  1  0.87714141  0.61696600  0.36439356  1
  O  O339  1  0.85794474  0.62159441  0.85690451  1
  O  O340  1  0.12879309  0.36781883  0.12892871  1
  O  O341  1  0.14407175  0.38144629  0.62883029  1
  O  O342  1  0.11977108  0.89240686  0.12686479  1
  O  O343  1  0.13564036  0.89661611  0.62710082  1
  O  O344  1  0.64426326  0.37681762  0.12254564  1
  O  O345  1  0.60786295  0.38757880  0.62923641  1
  O  O346  1  0.64038346  0.87446009  0.12822728  1
  O  O347  1  0.63863332  0.86863099  0.63655258  1
  O  O348  1  0.12061310  0.25267759  0.26197615  1
  O  O349  1  0.13122526  0.24833171  0.78217319  1
  O  O350  1  0.17686101  0.71690109  0.32911474  1
  O  O351  1  0.11602962  0.77939313  0.75729469  1
  O  O352  1  0.60609349  0.22757969  0.23411702  1
  O  O353  1  0.60990431  0.26156240  0.73545316  1
  O  O354  1  0.63039844  0.74431962  0.27073751  1
  O  O355  1  0.62191360  0.75303122  0.75726614  1
  O  O356  1  0.38961099  0.23847439  0.25463792  1
  O  O357  1  0.39031556  0.22688773  0.74995668  1
  O  O358  1  0.38607098  0.74034272  0.24448632  1
  O  O359  1  0.39326250  0.74513795  0.75281819  1
  O  O360  1  0.87886655  0.24127056  0.24312618  1
  O  O361  1  0.86782705  0.24701171  0.73347825  1
  O  O362  1  0.87351913  0.73722512  0.23292490  1
  O  O363  1  0.88405615  0.74123472  0.75100624  1
  O  O364  1  0.36252564  0.49962974  0.48841617  1
  O  O365  1  0.36370801  0.49689286  0.98674961  1
  O  O366  1  0.37263896  0.98150857  0.49483043  1
  O  O367  1  0.37993759  1.00114697  0.98299960  1
  O  O368  1  0.87399647  0.50727035  0.48460137  1
  O  O369  1  0.89162827  0.48700690  1.00670949  1
  O  O370  1  0.88236517  1.01280207  0.50024734  1
  O  O371  1  0.85584945  0.99544554  0.99156531  1
  O  O372  1  0.13656715  0.01910127  0.02066129  1
  O  O373  1  0.12882257  0.01078411  0.51866865  1
  O  O374  1  0.11532424  0.49342262  0.00661359  1
  O  O375  1  0.14867912  0.50843021  0.52470435  1
  O  O376  1  0.62143619  -0.00119928  -0.00353148  1
  O  O377  1  0.64315563  0.01332371  0.49396090  1
  O  O378  1  0.60279967  0.49154070  -0.01492053  1
  O  O379  1  0.63907801  0.49745004  0.50865257  1
  O  O380  1  0.35714888  0.37067908  0.09859995  1
  O  O381  1  0.36003526  0.37904625  0.62556155  1
  O  O382  1  0.37787582  0.87829341  0.13659123  1
  O  O383  1  0.35835298  0.88323858  0.62021307  1
  O  O384  1  0.88045025  0.36501933  0.13012394  1
  O  O385  1  0.88227780  0.36250212  0.62355761  1
  O  O386  1  0.86702728  0.86647239  0.11879443  1
  O  O387  1  0.86807875  0.88508528  0.63122566  1
  O  O388  1  0.12564534  0.13510433  0.38030719  1
  O  O389  1  0.13905613  0.11142109  0.89176460  1
  O  O390  1  0.15664956  0.57874354  0.37568613  1
  O  O391  1  0.14460169  0.64206189  0.83505170  1
  O  O392  1  0.64301267  0.12779215  0.38082887  1
  O  O393  1  0.60561573  0.13039028  0.88633408  1
  O  O394  1  0.64836996  0.62601050  0.37816098  1
  O  O395  1  0.62926901  0.63392889  0.86878013  1
