# generated using pymatgen
data_V35Zn35O128
_symmetry_space_group_name_H-M   'P 1'
_cell_length_a   17.03493834
_cell_length_b   16.99831880
_cell_length_c   16.92072278
_cell_angle_alpha   89.52241681
_cell_angle_beta   89.91527126
_cell_angle_gamma   89.35791944
_symmetry_Int_Tables_number   1
_chemical_formula_structural   V35Zn35O128
_chemical_formula_sum   'V70 Zn70 O256'
_cell_volume   4899.17182459
_cell_formula_units_Z   2
loop_
 _symmetry_equiv_pos_site_id
 _symmetry_equiv_pos_as_xyz
  1  'x, y, z'
loop_
 _atom_site_type_symbol
 _atom_site_label
 _atom_site_symmetry_multiplicity
 _atom_site_fract_x
 _atom_site_fract_y
 _atom_site_fract_z
 _atom_site_occupancy
  V  V0  1  0.50105764  0.23393431  0.76906870  1
  V  V1  1  0.59012649  0.26609787  0.39999262  1
  V  V2  1  0.37779457  -0.00700968  0.83858520  1
  V  V3  1  0.64128169  0.28707060  0.87741698  1
  V  V4  1  0.12605956  0.00356415  0.12371947  1
  V  V5  1  0.24616305  0.85442452  0.62843164  1
  V  V6  1  0.12106242  0.62939941  -0.02586149  1
  V  V7  1  0.74260637  0.12475821  0.88752526  1
  V  V8  1  0.61312111  0.11926063  0.50813273  1
  V  V9  1  0.86949909  0.60850203  0.27508931  1
  V  V10  1  0.33858448  0.62787063  0.78608683  1
  V  V11  1  0.38081203  0.88695326  -0.00612384  1
  V  V12  1  0.37960965  0.87073535  0.50709981  1
  V  V13  1  0.49889434  0.74906199  0.24950591  1
  V  V14  1  0.12080385  0.86760303  0.75811963  1
  V  V15  1  -0.00052029  0.24217903  0.24686354  1
  V  V16  1  0.75306991  0.01214807  0.25569879  1
  V  V17  1  0.76734985  0.75776365  0.49306069  1
  V  V18  1  0.37712548  0.74575488  0.12893249  1
  V  V19  1  0.00259818  0.11166575  0.61823996  1
  V  V20  1  0.36811443  0.62202265  0.27073915  1
  V  V21  1  0.63348323  0.47109166  0.64498180  1
  V  V22  1  0.49526252  -0.00649222  0.50890063  1
  V  V23  1  0.73715996  0.25157855  0.50758868  1
  V  V24  1  0.00143462  -0.00300093  0.00196931  1
  V  V25  1  0.24097286  0.87559022  0.11959328  1
  V  V26  1  0.74610426  0.13171667  0.37631447  1
  V  V27  1  0.12769126  0.63882092  0.46980724  1
  V  V28  1  0.12686874  0.37927489  0.25493142  1
  V  V29  1  0.46811138  0.40506176  0.84595851  1
  V  V30  1  0.87820552  -0.00807814  0.88092996  1
  V  V31  1  0.86856555  0.86614116  0.00641925  1
  V  V32  1  -0.01400009  0.87523174  0.36451411  1
  V  V33  1  0.87083157  0.24055597  0.61534648  1
  V  V34  1  -0.01051946  0.50928642  0.00211597  1
  V  V35  1  0.62220548  0.62307994  0.05385882  1
  V  V36  1  0.51724933  0.85853451  0.86607472  1
  V  V37  1  0.88830316  0.76309869  0.63144707  1
  V  V38  1  0.35087048  0.24937061  0.10584865  1
  V  V39  1  0.36904614  0.39635020  -0.00330249  1
  V  V40  1  0.14924564  0.22412919  0.36364112  1
  V  V41  1  0.61021026  0.02859265  0.11589135  1
  V  V42  1  0.87871203  0.60550630  0.75079147  1
  V  V43  1  0.54987017  0.64389132  0.61188580  1
  V  V44  1  0.20208616  0.45713880  0.74670741  1
  V  V45  1  0.76621874  0.37277371  0.64962177  1
  V  V46  1  0.75367601  -0.01002188  0.75392438  1
  V  V47  1  0.24164304  0.40490825  0.12637142  1
  V  V48  1  0.59356224  0.57803552  0.42527835  1
  V  V49  1  0.87888891  0.11843490  0.75167084  1
  V  V50  1  0.24623236  0.74676420  -0.01463575  1
  V  V51  1  0.01286709  0.63566525  0.14691643  1
  V  V52  1  0.48566728  0.25092724  0.24020617  1
  V  V53  1  0.61956409  0.00043606  0.64531187  1
  V  V54  1  0.23868419  0.10805175  0.86361845  1
  V  V55  1  -0.01528025  0.12798510  0.12223934  1
  V  V56  1  0.86997396  0.74725471  0.14512600  1
  V  V57  1  0.61847545  0.76434423  0.38563646  1
  V  V58  1  0.50134000  0.50168400  0.03491389  1
  V  V59  1  0.71737799  0.64407626  0.83372083  1
  V  V60  1  0.01308185  0.25308335  0.74027160  1
  V  V61  1  0.37276547  0.72700812  0.62274643  1
  V  V62  1  0.13634732  0.00175762  0.62070006  1
  V  V63  1  0.61012037  0.88891911  0.25036599  1
  V  V64  1  -0.01388750  -0.00445378  0.49162011  1
  V  V65  1  0.00599937  0.61686383  0.61263466  1
  V  V66  1  0.75507628  0.88021431  0.62201080  1
  V  V67  1  0.16380975  0.88652903  0.28978298  1
  V  V68  1  0.71275387  0.40969106  0.22467551  1
  V  V69  1  0.12281253  0.26831815  0.89605000  1
  Zn  Zn70  1  0.36255211  0.11337638  0.23888335  1
  Zn  Zn71  1  0.74066376  0.74107298  0.00316343  1
  Zn  Zn72  1  0.74232776  0.87717800  0.12904478  1
  Zn  Zn73  1  0.01038985  0.86064150  0.88653619  1
  Zn  Zn74  1  0.94243344  0.42942705  0.47422266  1
  Zn  Zn75  1  0.00962058  0.73223480  0.77348448  1
  Zn  Zn76  1  0.19121493  0.18114158  0.18393873  1
  Zn  Zn77  1  0.19797254  0.18430728  0.68259348  1
  Zn  Zn78  1  0.19327189  0.70146112  0.21117583  1
  Zn  Zn79  1  0.18001806  0.67994579  0.68923193  1
  Zn  Zn80  1  0.66734536  0.20861886  0.20644124  1
  Zn  Zn81  1  0.68278542  0.18206566  0.70219540  1
  Zn  Zn82  1  0.69626669  0.69104636  0.21105300  1
  Zn  Zn83  1  0.71669131  0.66181107  0.63795034  1
  Zn  Zn84  1  0.31861674  0.31070435  0.29542536  1
  Zn  Zn85  1  0.30359958  0.29812801  0.80806935  1
  Zn  Zn86  1  0.33942548  0.94964956  0.32694409  1
  Zn  Zn87  1  0.31815768  0.80796125  0.80466702  1
  Zn  Zn88  1  0.87033210  0.39422532  0.30041676  1
  Zn  Zn89  1  0.82681432  0.29851906  0.81872412  1
  Zn  Zn90  1  0.80725916  0.83223951  0.31676700  1
  Zn  Zn91  1  0.81524903  0.80347597  0.81811184  1
  Zn  Zn92  1  0.12077213  0.40433241  0.46206407  1
  Zn  Zn93  1  0.18186784  0.45414200  0.93557892  1
  Zn  Zn94  1  0.19286322  0.94133755  0.45013999  1
  Zn  Zn95  1  0.19448091  0.93926697  0.93676288  1
  Zn  Zn96  1  0.75525886  0.44942133  0.42865246  1
  Zn  Zn97  1  0.69315632  0.47019292  0.94852207  1
  Zn  Zn98  1  0.68381563  0.94259275  0.44072020  1
  Zn  Zn99  1  0.68621206  0.94158030  0.94302122  1
  Zn  Zn100  1  0.29885304  0.07804341  0.06158803  1
  Zn  Zn101  1  0.34286678  0.03632902  0.63632411  1
  Zn  Zn102  1  0.30553023  0.57324180  0.06409472  1
  Zn  Zn103  1  0.28262450  0.54375744  0.57073167  1
  Zn  Zn104  1  0.80547630  0.06028106  0.07022111  1
  Zn  Zn105  1  0.80910412  0.06510490  0.55979984  1
  Zn  Zn106  1  0.81064516  0.55239953  0.08953704  1
  Zn  Zn107  1  0.83033033  0.57106611  0.54970647  1
  Zn  Zn108  1  0.42057137  0.42832944  0.20159265  1
  Zn  Zn109  1  0.44073666  0.48829664  0.66366669  1
  Zn  Zn110  1  0.43525730  0.93846891  0.17123106  1
  Zn  Zn111  1  0.45085823  0.90452687  0.68685808  1
  Zn  Zn112  1  0.95780705  0.43000485  0.15617702  1
  Zn  Zn113  1  1.02920779  0.42247052  0.65002444  1
  Zn  Zn114  1  0.93294281  0.94017063  0.18815832  1
  Zn  Zn115  1  0.94551748  0.93482703  0.69014812  1
  Zn  Zn116  1  0.06301859  0.05810689  0.30830593  1
  Zn  Zn117  1  0.06460938  0.04896572  0.80533819  1
  Zn  Zn118  1  0.05732828  0.56288720  0.31549686  1
  Zn  Zn119  1  0.04875331  0.54294973  0.80635167  1
  Zn  Zn120  1  0.51361323  0.04705193  0.30479319  1
  Zn  Zn121  1  0.53278766  0.07867885  0.88331949  1
  Zn  Zn122  1  0.55402246  0.54492117  0.23471051  1
  Zn  Zn123  1  0.55452498  0.56806763  0.79445042  1
  Zn  Zn124  1  0.42715232  0.17396434  0.47085531  1
  Zn  Zn125  1  0.39332582  0.18807933  0.92984615  1
  Zn  Zn126  1  0.44154880  0.69278477  0.44264807  1
  Zn  Zn127  1  0.44455636  0.68412078  0.95143369  1
  Zn  Zn128  1  0.91005196  0.24074298  0.39820386  1
  Zn  Zn129  1  0.95631007  0.17655246  0.92497492  1
  Zn  Zn130  1  0.94718591  0.69993820  0.43421597  1
  Zn  Zn131  1  0.92743128  0.67951678  0.94358909  1
  Zn  Zn132  1  0.06075567  0.31869045  0.06535820  1
  Zn  Zn133  1  0.04896350  0.26703844  0.53417754  1
  Zn  Zn134  1  0.05859588  0.80515848  0.06434560  1
  Zn  Zn135  1  0.06735966  0.81261598  0.54587855  1
  Zn  Zn136  1  0.55030013  0.19635573  0.04602491  1
  Zn  Zn137  1  0.55754590  0.31869434  0.59593446  1
  Zn  Zn138  1  0.56096926  0.81826660  0.06366238  1
  Zn  Zn139  1  0.57161463  0.81429587  0.58443104  1
  O  O140  1  0.11817511  0.10360864  0.11786521  1
  O  O141  1  0.11968816  0.10653977  0.63418528  1
  O  O142  1  0.11140142  0.65224038  0.14932836  1
  O  O143  1  0.10532854  0.62337787  0.62790588  1
  O  O144  1  0.61701928  0.13432407  0.12605229  1
  O  O145  1  0.63611332  0.10682491  0.62432522  1
  O  O146  1  0.61686776  0.61989511  0.15562202  1
  O  O147  1  0.63485896  0.57467596  0.60614849  1
  O  O148  1  0.33855042  0.41140431  0.39478228  1
  O  O149  1  0.36786763  0.39695477  0.88960004  1
  O  O150  1  0.38849970  0.88160006  0.41010500  1
  O  O151  1  0.37414440  0.87771949  0.87955511  1
  O  O152  1  0.91073971  0.35273757  0.39572088  1
  O  O153  1  0.89156028  0.33362603  0.91018867  1
  O  O154  1  0.88537783  0.88716744  0.37332066  1
  O  O155  1  0.86931131  0.88208122  0.88755898  1
  O  O156  1  0.27083033  0.02615197  0.39826653  1
  O  O157  1  0.26455849  -0.00074297  0.86706463  1
  O  O158  1  0.29717743  0.47087966  0.40481219  1
  O  O159  1  0.22565141  0.49471714  0.83794921  1
  O  O160  1  0.73826450  0.01787352  0.36845606  1
  O  O161  1  0.76296748  0.00407571  0.87288450  1
  O  O162  1  0.75376177  0.40968062  0.32151735  1
  O  O163  1  0.72575306  0.55920339  0.88524619  1
  O  O164  1  0.24557683  0.50292491  0.13345481  1
  O  O165  1  0.23223022  0.50816733  0.66502784  1
  O  O166  1  0.22697084  0.98597118  0.08746457  1
  O  O167  1  0.23760541  0.99219924  0.62642005  1
  O  O168  1  0.76619842  0.47320723  0.15764563  1
  O  O169  1  0.74911486  0.47323204  0.62433595  1
  O  O170  1  0.72826363  1.01362548  0.14490779  1
  O  O171  1  0.75279787  0.99408169  0.63555399  1
  O  O172  1  0.02243629  0.35269541  0.22558948  1
  O  O173  1  -0.01191621  0.34848104  0.73285223  1
  O  O174  1  -0.00034423  0.89120788  0.26271157  1
  O  O175  1  0.01247280  0.87019517  0.75767102  1
  O  O176  1  0.43969524  0.34120729  0.27658298  1
  O  O177  1  0.44860027  0.40581374  0.74894252  1
  O  O178  1  0.50775224  0.86949484  0.24679916  1
  O  O179  1  0.51092532  0.85167582  0.76426565  1
  O  O180  1  0.47096570  0.14963302  0.27054805  1
  O  O181  1  0.51028871  0.13579916  0.77721906  1
  O  O182  1  0.48970938  0.64652677  0.24848820  1
  O  O183  1  0.50521383  0.59155818  0.68765399  1
  O  O184  1  1.00631731  0.12613695  0.22897814  1
  O  O185  1  0.99358742  0.11869261  0.74051111  1
  O  O186  1  0.98848863  0.63170815  0.24931177  1
  O  O187  1  0.99173077  0.62307205  0.73418718  1
  O  O188  1  0.38061746  0.28911736  0.00270142  1
  O  O189  1  0.33720382  0.17363035  0.54664458  1
  O  O190  1  0.36255991  0.75361009  0.01127118  1
  O  O191  1  0.37794839  0.76258450  0.51083395  1
  O  O192  1  0.90751361  0.27939107  -0.03600916  1
  O  O193  1  0.85653085  0.22768595  0.51167547  1
  O  O194  1  0.86408567  0.75447359  0.01341156  1
  O  O195  1  0.86953353  0.75697107  0.50700492  1
  O  O196  1  0.12612378  0.23431532  0.46461208  1
  O  O197  1  0.10983820  0.24478123  0.99262903  1
  O  O198  1  0.13469943  0.73690388  0.49713656  1
  O  O199  1  0.13704155  0.74448648  0.99990546  1
  O  O200  1  0.61849368  0.24015212  0.51696519  1
  O  O201  1  0.62125402  0.25542391  0.96993135  1
  O  O202  1  0.62813377  0.77241771  0.48667195  1
  O  O203  1  0.62225084  0.72607881  1.02636569  1
  O  O204  1  0.50514803  0.25917547  0.14105394  1
  O  O205  1  0.49527941  0.25815439  0.67031263  1
  O  O206  1  0.48333512  0.76296589  0.13224155  1
  O  O207  1  0.47763198  0.73229481  0.61591192  1
  O  O208  1  1.00554939  0.23058753  0.12322454  1
  O  O209  1  0.98888671  0.22961998  0.62504806  1
  O  O210  1  0.98055113  0.74324671  0.12338348  1
  O  O211  1  0.99013102  0.75269955  0.61714902  1
  O  O212  1  0.02024936  0.22771367  0.34885773  1
  O  O213  1  0.02695318  0.23231853  0.84984391  1
  O  O214  1  0.00325796  0.77717487  0.37587814  1
  O  O215  1  -0.01430830  0.75275265  0.88060457  1
  O  O216  1  0.49129612  0.24949459  0.42071344  1
  O  O217  1  0.53039384  0.31826938  0.85377982  1
  O  O218  1  0.51425040  0.75599755  0.37049297  1
  O  O219  1  0.50084189  0.76256369  0.89316046  1
  O  O220  1  0.29233637  0.09769889  0.42439438  1
  O  O221  1  0.28346731  0.13510107  0.95581685  1
  O  O222  1  0.21524357  0.59382281  0.49674175  1
  O  O223  1  0.23564832  0.63840397  0.99936577  1
  O  O224  1  0.73438627  0.12556822  0.49501357  1
  O  O225  1  0.76421524  0.12359238  0.98521819  1
  O  O226  1  0.74898012  0.65851963  0.52013384  1
  O  O227  1  0.72453868  0.61470930  1.03740113  1
  O  O228  1  0.26137550  0.40645743  0.00952612  1
  O  O229  1  0.21713870  0.37278686  0.52637021  1
  O  O230  1  0.25840880  0.86221893  0.00058769  1
  O  O231  1  0.26855666  0.88279319  0.52264037  1
  O  O232  1  0.78738549  0.42032436  0.00318476  1
  O  O233  1  0.74507104  0.34961578  0.49997060  1
  O  O234  1  0.75747199  0.87403319  0.00824374  1
  O  O235  1  0.74827354  0.87229946  0.51159882  1
  O  O236  1  0.10989722  0.47718957  0.25927597  1
  O  O237  1  0.09555481  0.46337673  0.73736799  1
  O  O238  1  0.12771388  0.98383285  0.22926291  1
  O  O239  1  0.11753863  0.97747352  0.73078247  1
  O  O240  1  0.62374625  0.45401695  0.23283815  1
  O  O241  1  0.62416230  0.48560350  0.74157393  1
  O  O242  1  0.60922136  0.99641241  0.24871277  1
  O  O243  1  0.64389410  1.00373214  0.74645531  1
  O  O244  1  0.40751562  0.00472885  0.25975805  1
  O  O245  1  0.37512290  -0.01741871  0.73506738  1
  O  O246  1  0.38873373  0.52410619  0.25315447  1
  O  O247  1  0.37090148  0.54648916  0.73922757  1
  O  O248  1  0.85004557  0.00824265  0.24387250  1
  O  O249  1  0.87477205  0.00074296  0.76079526  1
  O  O250  1  0.89507784  0.51142557  0.28156573  1
  O  O251  1  0.87971824  0.51043008  0.74255135  1
  O  O252  1  0.12808617  0.35526350  0.35671283  1
  O  O253  1  0.12039367  0.36730304  0.89261817  1
  O  O254  1  0.10336363  0.90537087  0.37206262  1
  O  O255  1  0.12896979  0.87991081  0.86068741  1
  O  O256  1  0.59879494  0.36035769  0.40786496  1
  O  O257  1  0.67389244  0.38005528  0.88194885  1
  O  O258  1  0.62732596  0.87470875  0.36180887  1
  O  O259  1  0.61355200  0.87717682  0.88903269  1
  O  O260  1  0.38357794  0.15697515  0.08162978  1
  O  O261  1  0.34527385  0.15237388  0.62207654  1
  O  O262  1  0.37062051  0.64508323  0.12787832  1
  O  O263  1  0.35566162  0.63333135  0.59868101  1
  O  O264  1  0.88601003  0.12145939  0.12323656  1
  O  O265  1  0.88110192  0.12057522  0.63530458  1
  O  O266  1  0.87725733  0.63927971  0.14832014  1
  O  O267  1  0.88332453  0.64125949  0.62735290  1
  O  O268  1  0.25150485  0.25401734  0.10225307  1
  O  O269  1  0.24126454  0.26422044  0.60049487  1
  O  O270  1  0.25934897  0.76455526  0.12236998  1
  O  O271  1  0.25241857  0.75134954  0.62319188  1
  O  O272  1  0.81409859  0.30498620  0.06595587  1
  O  O273  1  0.75607334  0.24456105  0.62757597  1
  O  O274  1  0.76035904  0.75439828  0.13131137  1
  O  O275  1  0.76936443  0.76818552  0.61866831  1
  O  O276  1  0.24800231  0.24778941  0.35800524  1
  O  O277  1  0.21754187  0.23951840  0.86426716  1
  O  O278  1  0.24445411  0.89291288  0.35454876  1
  O  O279  1  0.25464681  0.75567941  0.88815757  1
  O  O280  1  0.70998831  0.23380763  0.39254039  1
  O  O281  1  0.74383798  0.23230779  0.86602714  1
  O  O282  1  0.74593266  0.76699398  0.39030367  1
  O  O283  1  0.74985674  0.73220498  0.88272320  1
  O  O284  1  -0.00608359  0.10834188  0.00911319  1
  O  O285  1  0.00116760  0.11269784  0.51653133  1
  O  O286  1  0.01711699  0.63202985  0.01198566  1
  O  O287  1  0.01234895  0.64048788  0.50744891  1
  O  O288  1  0.49393766  0.14749381  -0.03664080  1
  O  O289  1  0.50088794  0.10186648  0.52643726  1
  O  O290  1  0.51047615  0.61218705  0.01621191  1
  O  O291  1  0.52555674  0.62611374  0.50334787  1
  O  O292  1  0.42162633  0.34747691  0.52756286  1
  O  O293  1  0.48468903  0.40572405  0.99505279  1
  O  O294  1  0.49171730  0.88207115  0.53262805  1
  O  O295  1  0.48324940  0.87478304  0.99605189  1
  O  O296  1  1.03211081  0.37971375  0.53895830  1
  O  O297  1  0.99403266  0.41047242  1.04111958  1
  O  O298  1  1.00279748  0.89113248  0.48956828  1
  O  O299  1  0.98509272  0.87888570  1.00471299  1
  O  O300  1  0.53924719  0.53632924  0.35541921  1
  O  O301  1  0.50951874  0.49485860  0.86709837  1
  O  O302  1  0.49785480  0.99516707  0.40973869  1
  O  O303  1  0.48156298  0.97555964  0.86452166  1
  O  O304  1  1.02093502  0.50775529  0.41456782  1
  O  O305  1  1.00186913  0.50129073  0.90239390  1
  O  O306  1  0.99672987  1.01116876  0.38955601  1
  O  O307  1  0.98957662  0.99332603  0.88354455  1
  O  O308  1  0.00559299  0.00456266  0.11975812  1
  O  O309  1  0.00812543  -0.00254320  0.61654028  1
  O  O310  1  0.00184856  0.53399542  0.12527276  1
  O  O311  1  -0.01700470  0.52029596  0.60871942  1
  O  O312  1  0.51268747  0.00901346  0.12339520  1
  O  O313  1  0.51900117  -0.00908250  0.64237719  1
  O  O314  1  0.49879254  0.48937272  0.13593975  1
  O  O315  1  0.54032581  0.44209969  0.60744264  1
  O  O316  1  0.24073767  0.37700605  0.23433252  1
  O  O317  1  0.24327175  0.36353660  0.74117493  1
  O  O318  1  0.26094196  0.90015348  0.21450850  1
  O  O319  1  0.23884167  0.86497003  0.73664717  1
  O  O320  1  0.69993325  0.31462375  0.19077263  1
  O  O321  1  0.77728931  0.37188020  0.74820611  1
  O  O322  1  0.73453630  0.90042670  0.25218878  1
  O  O323  1  0.76281008  0.88496009  0.74629555  1
  O  O324  1  0.26980877  0.10125842  0.17898348  1
  O  O325  1  0.25647972  0.13129669  0.76310683  1
  O  O326  1  0.26966815  0.63278521  0.25399349  1
  O  O327  1  0.23919418  0.63949846  0.77536110  1
  O  O328  1  0.72415970  0.12344563  0.26753311  1
  O  O329  1  0.76439756  0.11116051  0.75962697  1
  O  O330  1  0.76940323  0.61758610  0.25693149  1
  O  O331  1  0.76588945  0.63265319  0.73777079  1
  O  O332  1  0.35811510  0.12481501  0.38558776  1
  O  O333  1  0.38028600  0.09013924  0.85063836  1
  O  O334  1  0.37984804  0.63583994  0.36993301  1
  O  O335  1  0.37519659  0.63099143  0.88048674  1
  O  O336  1  0.84264065  0.14802255  0.37462085  1
  O  O337  1  0.87576683  0.11249824  0.86793619  1
  O  O338  1  0.87842683  0.64274786  0.36921326  1
  O  O339  1  0.87911908  0.62565110  0.85045291  1
  O  O340  1  0.14202453  0.37762724  0.12513271  1
  O  O341  1  0.19364712  0.32598883  0.58786022  1
  O  O342  1  0.13616644  0.87313977  0.11843988  1
  O  O343  1  0.13776185  0.87482121  0.62336385  1
  O  O344  1  0.76339541  0.34523685  0.02910740  1
  O  O345  1  0.65874451  0.36085538  0.63990808  1
  O  O346  1  0.62399854  0.88541433  0.13918357  1
  O  O347  1  0.64380518  0.89140632  0.63142073  1
  O  O348  1  0.12885941  0.25143288  0.24727088  1
  O  O349  1  0.11014044  0.25116503  0.71842175  1
  O  O350  1  0.15112997  0.79174306  0.26558777  1
  O  O351  1  0.11803619  0.76392928  0.74134259  1
  O  O352  1  0.58282073  0.25145431  0.28737515  1
  O  O353  1  0.61855296  0.24307205  0.77579968  1
  O  O354  1  0.61969990  0.76780532  0.25805082  1
  O  O355  1  0.61387973  0.71688928  0.64325022  1
  O  O356  1  0.36440939  0.23741008  0.21383064  1
  O  O357  1  0.40316395  0.24748692  0.81830331  1
  O  O358  1  0.38122307  0.75075093  0.23796146  1
  O  O359  1  0.36873236  0.72382840  0.73587734  1
  O  O360  1  0.90280756  0.25450593  0.25290509  1
  O  O361  1  0.88658905  0.23035407  0.74323226  1
  O  O362  1  0.86758364  0.76148371  0.24441117  1
  O  O363  1  0.88288745  0.75156334  0.73571992  1
  O  O364  1  0.37958643  0.47463584  0.56451226  1
  O  O365  1  0.38732333  0.50517476  1.01883051  1
  O  O366  1  0.39080704  0.98821081  0.53805270  1
  O  O367  1  0.36593973  0.98455052  0.99868276  1
  O  O368  1  0.84748323  0.49138317  0.47889873  1
  O  O369  1  0.89272910  0.54004957  1.00949878  1
  O  O370  1  0.88787513  1.00272322  0.50673355  1
  O  O371  1  0.87884868  0.98841101  0.99885137  1
  O  O372  1  0.10543153  -0.01812010  0.00434496  1
  O  O373  1  0.11800608  -0.00324683  0.51714880  1
  O  O374  1  0.12142315  0.52775126  0.00234332  1
  O  O375  1  0.09127959  0.51755085  0.46217353  1
  O  O376  1  0.63113574  0.00867563  0.01953853  1
  O  O377  1  0.61396808  -0.00022147  0.51920888  1
  O  O378  1  0.61103059  0.51174439  0.02022947  1
  O  O379  1  0.66336521  0.51354586  0.45643447  1
  O  O380  1  0.35517964  0.37431008  0.11954235  1
  O  O381  1  0.36671267  0.38389476  0.56158439  1
  O  O382  1  0.36639820  0.87137757  0.10798877  1
  O  O383  1  0.36270250  0.85074581  0.63248879  1
  O  O384  1  0.85859248  0.38725210  0.18495590  1
  O  O385  1  0.86665998  0.34802925  0.61801969  1
  O  O386  1  0.86995850  0.86836069  0.12198253  1
  O  O387  1  0.87357238  0.86953683  0.62792561  1
  O  O388  1  0.14636035  0.12484165  0.34437443  1
  O  O389  1  0.13853497  0.09823904  0.87554374  1
  O  O390  1  0.12203772  0.64059324  0.36870668  1
  O  O391  1  0.10900729  0.62594372  0.87657356  1
  O  O392  1  0.61024932  0.12367867  0.40512901  1
  O  O393  1  0.64680831  0.10497141  0.88119759  1
  O  O394  1  0.63949806  0.65763424  0.37370680  1
  O  O395  1  0.61980328  0.65619333  0.81426684  1
