# generated using pymatgen
data_V35Zn35O128
_symmetry_space_group_name_H-M   'P 1'
_cell_length_a   16.85232408
_cell_length_b   16.85484332
_cell_length_c   16.81374562
_cell_angle_alpha   89.94746245
_cell_angle_beta   90.04515467
_cell_angle_gamma   90.02635738
_symmetry_Int_Tables_number   1
_chemical_formula_structural   V35Zn35O128
_chemical_formula_sum   'V70 Zn70 O256'
_cell_volume   4775.82749344
_cell_formula_units_Z   2
loop_
 _symmetry_equiv_pos_site_id
 _symmetry_equiv_pos_as_xyz
  1  'x, y, z'
loop_
 _atom_site_type_symbol
 _atom_site_label
 _atom_site_symmetry_multiplicity
 _atom_site_fract_x
 _atom_site_fract_y
 _atom_site_fract_z
 _atom_site_occupancy
  V  V0  1  0.50216110  0.38704408  0.86551176  1
  V  V1  1  0.75536436  0.75967317  0.51922296  1
  V  V2  1  0.00763771  0.26257044  0.75926579  1
  V  V3  1  0.61733385  0.61600306  0.50054645  1
  V  V4  1  0.13091980  0.62246219  0.00335599  1
  V  V5  1  0.75374586  0.74588121  0.01356197  1
  V  V6  1  0.87415476  0.24688731  0.12270245  1
  V  V7  1  0.13580587  0.38007982  0.24697905  1
  V  V8  1  0.75004014  0.11547851  0.38046695  1
  V  V9  1  0.63061228  0.25270318  0.39328626  1
  V  V10  1  0.86341488  0.26066664  0.61254424  1
  V  V11  1  0.87592652  -0.00072438  0.88120896  1
  V  V12  1  0.00944614  0.24865985  0.25695508  1
  V  V13  1  0.48891873  0.88738741  0.38163213  1
  V  V14  1  0.75209892  0.62015959  0.87827213  1
  V  V15  1  0.01890543  0.61975634  0.62608829  1
  V  V16  1  0.24999283  0.75976172  0.49622449  1
  V  V17  1  0.26885187  0.50122429  0.24055495  1
  V  V18  1  0.61755800  0.76015484  0.86872440  1
  V  V19  1  0.61873490  0.12686698  0.01648391  1
  V  V20  1  0.13029067  0.13512613  -0.00674150  1
  V  V21  1  0.35782203  0.62643354  0.74801715  1
  V  V22  1  0.12666729  0.74874142  0.87408885  1
  V  V23  1  0.50523559  0.73432073  0.24763258  1
  V  V24  1  0.00299865  0.48282873  0.49764795  1
  V  V25  1  0.50215657  0.61281166  0.63089475  1
  V  V26  1  0.63365504  0.25549549  0.87436656  1
  V  V27  1  -0.00377535  0.87624344  0.87956865  1
  V  V28  1  0.25611420  0.13382957  0.86525407  1
  V  V29  1  0.38080980  0.75892769  0.61915792  1
  V  V30  1  0.24003524  0.39361972  0.63297827  1
  V  V31  1  0.37428784  0.39793520  0.49720409  1
  V  V32  1  0.12111654  0.88191110  0.72732697  1
  V  V33  1  0.75042602  0.12835385  0.88185689  1
  V  V34  1  0.27739813  0.61947887  0.36824220  1
  V  V35  1  0.74827788  0.89139554  0.13344327  1
  V  V36  1  0.13554437  -0.00916807  0.11839034  1
  V  V37  1  0.76097377  0.62745092  0.37504588  1
  V  V38  1  0.36689751  0.24994576  0.62334449  1
  V  V39  1  0.75551382  0.38435161  0.12996126  1
  V  V40  1  0.89392461  0.00341932  0.38457476  1
  V  V41  1  0.12396510  0.62539606  0.47500781  1
  V  V42  1  0.50561811  0.39287770  0.38016491  1
  V  V43  1  0.86658663  0.62259597  0.74237682  1
  V  V44  1  0.25494657  0.77105261  -0.00121104  1
  V  V45  1  0.26193837  0.00714245  0.25842131  1
  V  V46  1  0.62660380  0.49848043  0.13227501  1
  V  V47  1  0.37667140  0.75282302  0.13414911  1
  V  V48  1  0.61422204  0.61746464  0.00210891  1
  V  V49  1  0.87508768  0.87180471  0.00827629  1
  V  V50  1  0.00239880  0.11827891  0.12279884  1
  V  V51  1  0.50230519  -0.01772112  0.00998760  1
  V  V52  1  0.12852273  0.86141706  0.25364336  1
  V  V53  1  0.62210821  -0.00221772  0.61704644  1
  V  V54  1  -0.00787872  0.74876378  0.74511506  1
  V  V55  1  0.44888272  0.44834520  0.04283264  1
  V  V56  1  0.61907754  0.89491128  0.24700223  1
  V  V57  1  0.87486769  0.12796090  0.74717757  1
  V  V58  1  0.74045837  -0.01246117  0.74952175  1
  V  V59  1  0.12912990  0.11404246  0.49262158  1
  V  V60  1  0.00389374  0.11418051  0.61985125  1
  V  V61  1  0.50344472  0.12450535  0.60967334  1
  V  V62  1  -0.00851857  0.63808220  0.12801040  1
  V  V63  1  0.49454234  0.23467346  0.75845052  1
  V  V64  1  0.00102815  0.48934116  0.00900225  1
  V  V65  1  0.67981172  0.43530454  0.67933538  1
  V  V66  1  0.87425078  0.47338104  0.37588688  1
  V  V67  1  0.50268414  0.24546044  0.24634846  1
  V  V68  1  0.36369803  0.50246663  0.86780552  1
  V  V69  1  0.88027079  0.49199084  0.87116192  1
  Zn  Zn70  1  0.00341518  0.86864321  0.36844281  1
  Zn  Zn71  1  0.38222254  0.00303198  0.88284927  1
  Zn  Zn72  1  0.15339415  0.24587045  0.38728844  1
  Zn  Zn73  1  0.86879028  0.36291256  -0.01157110  1
  Zn  Zn74  1  0.87028312  0.60928370  0.24234047  1
  Zn  Zn75  1  0.62552880  0.75305659  0.37801115  1
  Zn  Zn76  1  0.19089656  0.18438909  0.18793151  1
  Zn  Zn77  1  0.18346299  0.18431222  0.69099101  1
  Zn  Zn78  1  0.19325566  0.68115792  0.18177308  1
  Zn  Zn79  1  0.18815768  0.70332650  0.68376982  1
  Zn  Zn80  1  0.68712574  0.19617797  0.20540053  1
  Zn  Zn81  1  0.68490655  0.18736835  0.68768950  1
  Zn  Zn82  1  0.68656067  0.68288968  0.19089862  1
  Zn  Zn83  1  0.68206701  0.68537008  0.68733364  1
  Zn  Zn84  1  0.31541025  0.31016049  0.31901931  1
  Zn  Zn85  1  0.31134644  0.31608756  0.81390943  1
  Zn  Zn86  1  0.30838495  0.81889797  0.31181539  1
  Zn  Zn87  1  0.30554310  0.81325656  0.79774960  1
  Zn  Zn88  1  0.80675388  0.28729985  0.30526000  1
  Zn  Zn89  1  0.81056142  0.31662314  0.79584554  1
  Zn  Zn90  1  0.80257549  0.82169781  0.32379473  1
  Zn  Zn91  1  0.80635174  0.80666352  0.81636508  1
  Zn  Zn92  1  0.19281830  0.43566503  0.43276792  1
  Zn  Zn93  1  0.18654937  0.43525750  0.94488481  1
  Zn  Zn94  1  0.18083426  0.94243603  0.43356927  1
  Zn  Zn95  1  0.17823122  0.94490146  0.92256416  1
  Zn  Zn96  1  0.69294782  0.43787228  0.44877220  1
  Zn  Zn97  1  0.69269617  0.43329588  0.94339969  1
  Zn  Zn98  1  0.68816468  0.93711848  0.43403738  1
  Zn  Zn99  1  0.68447750  0.94034586  0.94468012  1
  Zn  Zn100  1  0.29045823  0.02680744  0.02344775  1
  Zn  Zn101  1  0.31929677  0.08552305  0.55730544  1
  Zn  Zn102  1  0.31773263  0.57523663  0.06291567  1
  Zn  Zn103  1  0.30593835  0.56673269  0.56467848  1
  Zn  Zn104  1  0.81341790  0.06594444  0.06558797  1
  Zn  Zn105  1  0.81014111  0.06049537  0.55759196  1
  Zn  Zn106  1  0.81585090  0.55707099  0.05937552  1
  Zn  Zn107  1  0.82262926  0.57306406  0.54629200  1
  Zn  Zn108  1  0.41265458  0.39321272  0.21266701  1
  Zn  Zn109  1  0.43655921  0.43494652  0.68793695  1
  Zn  Zn110  1  0.43508067  0.93423593  0.17502841  1
  Zn  Zn111  1  0.47774150  0.91359678  0.67573500  1
  Zn  Zn112  1  0.94235523  0.42911882  0.19263043  1
  Zn  Zn113  1  0.93771227  0.43767250  0.68105619  1
  Zn  Zn114  1  0.93882944  0.93725958  0.19662597  1
  Zn  Zn115  1  0.92615018  0.93770980  0.69060386  1
  Zn  Zn116  1  0.07013054  0.05878132  0.30756956  1
  Zn  Zn117  1  0.06423855  0.06380256  0.80797781  1
  Zn  Zn118  1  0.05583611  0.55090266  0.30820485  1
  Zn  Zn119  1  0.05617449  0.56627259  0.82045823  1
  Zn  Zn120  1  0.56002262  0.07215743  0.31790000  1
  Zn  Zn121  1  0.56475251  0.05910484  0.82334353  1
  Zn  Zn122  1  0.56595116  0.56135700  0.31698063  1
  Zn  Zn123  1  0.56903127  0.56823146  0.80502109  1
  Zn  Zn124  1  0.44243744  0.20579370  0.43930762  1
  Zn  Zn125  1  0.43678607  0.18308640  0.94593198  1
  Zn  Zn126  1  0.44228845  0.69768220  0.43658721  1
  Zn  Zn127  1  0.43504748  0.68846958  0.93426294  1
  Zn  Zn128  1  0.93714535  0.18400546  0.44041419  1
  Zn  Zn129  1  0.94661843  0.18569918  0.93996254  1
  Zn  Zn130  1  0.93971692  0.70419176  0.44120953  1
  Zn  Zn131  1  0.93817277  0.68506391  0.93938984  1
  Zn  Zn132  1  0.07450609  0.31037393  0.06891905  1
  Zn  Zn133  1  0.06427024  0.29581423  0.57240945  1
  Zn  Zn134  1  0.06298618  0.81084269  0.06392536  1
  Zn  Zn135  1  -0.00087248  0.83364541  0.56322411  1
  Zn  Zn136  1  0.57362201  0.31057904  0.06055081  1
  Zn  Zn137  1  0.55724110  0.31701196  0.56470422  1
  Zn  Zn138  1  0.56759854  0.80571855  0.06556362  1
  Zn  Zn139  1  0.56890444  0.80748402  0.56141194  1
  O  O140  1  0.12018802  0.11823563  0.11406890  1
  O  O141  1  0.10875332  0.12797745  0.62139452  1
  O  O142  1  0.11373109  0.62990959  0.10871970  1
  O  O143  1  0.11866255  0.61891224  0.63275445  1
  O  O144  1  0.64579012  0.13927533  0.11276774  1
  O  O145  1  0.61154215  0.11479104  0.63309314  1
  O  O146  1  0.63448111  0.61191743  0.11229102  1
  O  O147  1  0.61081148  0.62916407  0.61567172  1
  O  O148  1  0.38384478  0.37919108  0.39086693  1
  O  O149  1  0.38774487  0.39202386  0.87223763  1
  O  O150  1  0.38880849  0.87541549  0.37105023  1
  O  O151  1  0.38426158  0.90222159  0.81266679  1
  O  O152  1  0.86539344  0.37559499  0.37444383  1
  O  O153  1  0.86646542  0.38865701  0.87038165  1
  O  O154  1  0.88283143  0.88951323  0.36143359  1
  O  O155  1  0.87662683  0.87999292  0.88269481  1
  O  O156  1  0.24936893  -0.00252039  0.35963887  1
  O  O157  1  0.26566469  0.01119621  0.89891432  1
  O  O158  1  0.24961999  0.51492461  0.36246751  1
  O  O159  1  0.26606228  0.49759054  0.88120319  1
  O  O160  1  0.74344858  0.01445366  0.36788414  1
  O  O161  1  0.75525106  0.00649207  0.86801290  1
  O  O162  1  0.76812043  0.50748112  0.39049006  1
  O  O163  1  0.76480076  0.51079740  0.88530541  1
  O  O164  1  0.25367596  0.51944163  0.14009387  1
  O  O165  1  0.24272885  0.49503822  0.62743477  1
  O  O166  1  0.23858946  0.99789232  0.12414501  1
  O  O167  1  0.27985172  0.99102631  0.63296940  1
  O  O168  1  0.74613386  0.49315839  0.12781828  1
  O  O169  1  0.74978888  0.49579722  0.60988432  1
  O  O170  1  0.75106299  0.99065465  0.12748606  1
  O  O171  1  0.73495643  1.00672038  0.63954948  1
  O  O172  1  0.02092012  0.36155526  0.24541760  1
  O  O173  1  -0.00490191  0.36278079  0.74431921  1
  O  O174  1  0.01982172  0.87704262  0.24842643  1
  O  O175  1  -0.00115588  0.86428949  0.76105400  1
  O  O176  1  0.50868853  0.38014000  0.27550489  1
  O  O177  1  0.50012576  0.36745442  0.76388147  1
  O  O178  1  0.51251352  0.87378043  0.25154803  1
  O  O179  1  0.46002122  0.88511538  0.78774285  1
  O  O180  1  0.49360627  0.14486414  0.25997876  1
  O  O181  1  0.49556526  0.13385307  0.75872038  1
  O  O182  1  0.50144951  0.63555042  0.25542122  1
  O  O183  1  0.49630934  0.62662308  0.73464970  1
  O  O184  1  1.01304036  0.13586635  0.23417122  1
  O  O185  1  0.98815891  0.12999790  0.74831175  1
  O  O186  1  1.00138829  0.61538256  0.23020392  1
  O  O187  1  0.99371959  0.62594412  0.74224894  1
  O  O188  1  0.36987782  0.25220085  0.02511975  1
  O  O189  1  0.37719278  0.25321043  0.51994989  1
  O  O190  1  0.35226606  0.75680436  -0.02698491  1
  O  O191  1  0.36404316  0.74397908  0.50883430  1
  O  O192  1  0.89098952  0.25333808  0.01551319  1
  O  O193  1  0.88009278  0.25029427  0.51310864  1
  O  O194  1  0.86523890  0.76164090  -0.00718450  1
  O  O195  1  0.85374141  0.73130131  0.51155198  1
  O  O196  1  0.10627406  0.22796295  0.49288437  1
  O  O197  1  0.11748814  0.23476582  0.99406216  1
  O  O198  1  0.14547650  0.72596600  0.50591061  1
  O  O199  1  0.13275438  0.74422863  0.99382339  1
  O  O200  1  0.61059160  0.24573245  0.49362230  1
  O  O201  1  0.62413812  0.24048455  0.98359366  1
  O  O202  1  0.63580882  0.73914351  0.49715394  1
  O  O203  1  0.63626413  0.73492452  0.99763878  1
  O  O204  1  0.51949071  0.26227530  0.14620190  1
  O  O205  1  0.50014944  0.23743865  0.64040552  1
  O  O206  1  0.49737608  0.75215376  0.14064588  1
  O  O207  1  0.48480711  0.73718435  0.61520836  1
  O  O208  1  1.00062505  0.23880969  0.13066292  1
  O  O209  1  0.98427638  0.23619150  0.63773856  1
  O  O210  1  0.99548715  0.73825858  0.12136571  1
  O  O211  1  0.99963674  0.72852013  0.63620676  1
  O  O212  1  -0.00805277  0.23983059  0.35546206  1
  O  O213  1  -0.00950400  0.25048032  0.85989927  1
  O  O214  1  -0.04453605  0.74114815  0.30999718  1
  O  O215  1  0.00293438  0.75642007  0.86834804  1
  O  O216  1  0.50832937  0.26295095  0.37053027  1
  O  O217  1  0.50115693  0.25684964  0.87003983  1
  O  O218  1  0.50158876  0.76085925  0.35858066  1
  O  O219  1  0.51813220  0.74873915  0.88376426  1
  O  O220  1  0.22867168  0.12572454  0.51239131  1
  O  O221  1  0.23509260  0.12860140  0.99904630  1
  O  O222  1  0.23870980  0.61429497  0.47959900  1
  O  O223  1  0.23264507  0.62760528  0.99795784  1
  O  O224  1  0.75758823  0.13171875  0.48146583  1
  O  O225  1  0.74663885  0.12147305  0.98672725  1
  O  O226  1  0.73875960  0.63237508  0.49424173  1
  O  O227  1  0.75170829  0.63062650  0.99462662  1
  O  O228  1  0.22555038  0.34388334  -0.01020141  1
  O  O229  1  0.26581864  0.38303779  0.51101336  1
  O  O230  1  0.23987001  0.86901053  -0.00202131  1
  O  O231  1  0.24099832  0.85794164  0.49058265  1
  O  O232  1  0.75545764  0.37206939  0.01614648  1
  O  O233  1  0.73520127  0.42276411  0.57039353  1
  O  O234  1  0.75367028  0.86810941  0.01548934  1
  O  O235  1  0.74626518  0.85781668  0.49137783  1
  O  O236  1  0.13017125  0.48418826  0.25233913  1
  O  O237  1  0.12427889  0.47342161  0.78043544  1
  O  O238  1  0.13654959  0.99526291  0.23504732  1
  O  O239  1  0.11903880  0.98057119  0.75142597  1
  O  O240  1  0.62143394  0.50777188  0.23075585  1
  O  O241  1  0.63866727  0.51041339  0.73588219  1
  O  O242  1  0.62130932  0.99330113  0.24796731  1
  O  O243  1  0.63700911  1.00143267  0.75381729  1
  O  O244  1  0.36047318  -0.01211041  0.23929960  1
  O  O245  1  0.31406238  -0.01215582  0.69880527  1
  O  O246  1  0.36850061  0.49687754  0.24627431  1
  O  O247  1  0.37550072  0.50995258  0.75831342  1
  O  O248  1  0.86982199  -0.01407244  0.27388179  1
  O  O249  1  0.86185492  0.00792383  0.75974663  1
  O  O250  1  0.88535934  0.49543430  0.27090485  1
  O  O251  1  0.88281139  0.51089578  0.76197705  1
  O  O252  1  0.14357863  0.36073374  0.36026868  1
  O  O253  1  0.12718073  0.41559886  0.82942444  1
  O  O254  1  0.12424520  0.87277749  0.35948913  1
  O  O255  1  0.10986503  0.86753893  0.87119850  1
  O  O256  1  0.61183678  0.37320594  0.39886334  1
  O  O257  1  0.61632671  0.36362531  0.88184835  1
  O  O258  1  0.62602889  0.87302784  0.35569364  1
  O  O259  1  0.64010954  0.85861867  0.88037695  1
  O  O260  1  0.32924300  0.21221558  0.08026918  1
  O  O261  1  0.39006562  0.13744423  0.62820373  1
  O  O262  1  0.38875517  0.65706080  0.09388346  1
  O  O263  1  0.38137213  0.62573763  0.63417054  1
  O  O264  1  0.88944039  0.13371917  0.11989995  1
  O  O265  1  0.87668828  0.12536182  0.63481363  1
  O  O266  1  0.88461563  0.62150895  0.12536686  1
  O  O267  1  0.87584839  0.61736509  0.64106351  1
  O  O268  1  0.27495991  0.25449415  0.11731808  1
  O  O269  1  0.26695535  0.24516605  0.63600884  1
  O  O270  1  0.26228484  0.74697920  0.10766265  1
  O  O271  1  0.26385305  0.74195435  0.60778003  1
  O  O272  1  0.77141189  0.25029882  0.12869627  1
  O  O273  1  0.76287387  0.24197371  0.62810097  1
  O  O274  1  0.75049402  0.74934321  0.11708723  1
  O  O275  1  0.73971590  0.75483039  0.62009694  1
  O  O276  1  0.26628975  0.23032401  0.37595184  1
  O  O277  1  0.25333291  0.23604055  0.87001283  1
  O  O278  1  0.26182845  0.73308966  0.38620991  1
  O  O279  1  0.23323416  0.76056949  0.87804644  1
  O  O280  1  0.72971049  0.27731278  0.39376847  1
  O  O281  1  0.73908646  0.24671386  0.86642981  1
  O  O282  1  0.74952389  0.73750214  0.38160635  1
  O  O283  1  0.74532199  0.73654522  0.88699093  1
  O  O284  1  0.01133966  0.12109094  0.01202394  1
  O  O285  1  -0.00245904  0.11785456  0.51584405  1
  O  O286  1  0.00370484  0.61876170  0.00957111  1
  O  O287  1  0.01425757  0.62720531  0.51204569  1
  O  O288  1  0.51596013  0.13214278  0.01326307  1
  O  O289  1  0.49993341  0.12737777  0.51071112  1
  O  O290  1  0.51609730  0.62622110  -0.00464795  1
  O  O291  1  0.51168523  0.63065006  0.50297816  1
  O  O292  1  0.48290665  0.37400009  0.49740962  1
  O  O293  1  0.50032860  0.37510618  0.98775410  1
  O  O294  1  0.50925067  0.86562542  0.47933685  1
  O  O295  1  0.52002155  0.88349485  0.99822627  1
  O  O296  1  1.01102813  0.38617797  0.51068369  1
  O  O297  1  1.01090431  0.38819150  1.00541213  1
  O  O298  1  1.00242582  0.79845110  0.45707873  1
  O  O299  1  0.98838587  0.86677682  0.98986863  1
  O  O300  1  0.50535826  0.49321435  0.38371837  1
  O  O301  1  0.50509846  0.48948741  0.86791814  1
  O  O302  1  0.50805410  0.98747768  0.37323505  1
  O  O303  1  0.49686397  1.01251982  0.89686741  1
  O  O304  1  0.98944445  0.49460990  0.38728990  1
  O  O305  1  0.98581598  0.50316636  0.88652898  1
  O  O306  1  0.99716326  0.99940520  0.37938146  1
  O  O307  1  0.98544112  0.98877225  0.86709385  1
  O  O308  1  0.00581487  0.01403404  0.13342630  1
  O  O309  1  -0.00625861  0.01655282  0.64039568  1
  O  O310  1  -0.00462101  0.50444578  0.11152109  1
  O  O311  1  -0.00439075  0.51326609  0.61289940  1
  O  O312  1  0.50858580  -0.00382059  0.11225723  1
  O  O313  1  0.50348105  0.01834127  0.63133252  1
  O  O314  1  0.51684639  0.49148662  0.10931018  1
  O  O315  1  0.49326726  0.51345589  0.62369190  1
  O  O316  1  0.25273694  0.39139849  0.25272808  1
  O  O317  1  0.25935225  0.37586807  0.73289467  1
  O  O318  1  0.23708806  0.88381285  0.24762663  1
  O  O319  1  0.22054903  0.85657620  0.73368241  1
  O  O320  1  0.75385524  0.36403654  0.22889079  1
  O  O321  1  0.73503304  0.37957394  0.74322613  1
  O  O322  1  0.73988851  0.86871056  0.23837792  1
  O  O323  1  0.75690577  0.88903314  0.75279736  1
  O  O324  1  0.25380612  0.10865544  0.24142679  1
  O  O325  1  0.24116530  0.11712552  0.76606925  1
  O  O326  1  0.25239340  0.62012985  0.26159074  1
  O  O327  1  0.25833879  0.62648696  0.74530413  1
  O  O328  1  0.76613734  0.17094415  0.28611327  1
  O  O329  1  0.75728588  0.11960963  0.76277370  1
  O  O330  1  0.75348897  0.62607052  0.26831032  1
  O  O331  1  0.76223312  0.62749381  0.75873904  1
  O  O332  1  0.37643935  0.10597076  0.39530017  1
  O  O333  1  0.36304971  0.12497731  0.88026571  1
  O  O334  1  0.37565448  0.61914799  0.37723705  1
  O  O335  1  0.38211019  0.61574306  0.85751823  1
  O  O336  1  0.87142465  0.10930122  0.37703575  1
  O  O337  1  0.87034765  0.11755199  0.87236126  1
  O  O338  1  0.86634090  0.62518445  0.38136152  1
  O  O339  1  0.87066912  0.61610888  0.86875066  1
  O  O340  1  0.14230592  0.36006941  0.14550234  1
  O  O341  1  0.14373308  0.36521214  0.61856954  1
  O  O342  1  0.11845650  0.88714057  0.12772916  1
  O  O343  1  0.09340125  0.86879660  0.63107984  1
  O  O344  1  0.64048000  0.38988797  0.11588951  1
  O  O345  1  0.60188296  0.37990308  0.64450685  1
  O  O346  1  0.63903447  0.87301392  0.13406340  1
  O  O347  1  0.59080836  0.89619004  0.63660724  1
  O  O348  1  0.12216653  0.25047735  0.25515188  1
  O  O349  1  0.10714508  0.24658172  0.74800077  1
  O  O350  1  0.13509268  0.76202490  0.23776929  1
  O  O351  1  0.10939457  0.75261969  0.75635584  1
  O  O352  1  0.61407235  0.25659373  0.27227406  1
  O  O353  1  0.61115411  0.24396371  0.76635910  1
  O  O354  1  0.61363835  0.75103924  0.24942144  1
  O  O355  1  0.63012949  0.74208959  0.76952529  1
  O  O356  1  0.39746554  0.27998780  0.24428024  1
  O  O357  1  0.39114458  0.25827553  0.74155283  1
  O  O358  1  0.38287897  0.75207223  0.24052482  1
  O  O359  1  0.36910760  0.73636838  0.73563737  1
  O  O360  1  0.89773452  0.26119062  0.23153641  1
  O  O361  1  0.87775664  0.23908400  0.74462576  1
  O  O362  1  0.89124146  0.74173048  0.26764693  1
  O  O363  1  0.88225801  0.73331189  0.76073130  1
  O  O364  1  0.37803602  0.49703673  0.50507252  1
  O  O365  1  0.38823651  0.51462309  0.98398354  1
  O  O366  1  0.36998988  1.05010544  0.44551108  1
  O  O367  1  0.39568288  0.99314234  1.00636279  1
  O  O368  1  0.89232837  0.49889363  0.49173829  1
  O  O369  1  0.88696041  0.49348154  0.99017792  1
  O  O370  1  0.86557168  0.99194423  0.48371808  1
  O  O371  1  0.86551800  0.98825488  0.98958051  1
  O  O372  1  0.12371438  0.00459154  0.01321482  1
  O  O373  1  0.12010258  0.01054352  0.50099104  1
  O  O374  1  0.11248353  0.51392910  -0.01270544  1
  O  O375  1  0.11253522  0.51294135  0.48748333  1
  O  O376  1  0.62014247  0.01908180  -0.00196521  1
  O  O377  1  0.63263811  -0.00293496  0.51872045  1
  O  O378  1  0.63131749  0.51294075  0.00239071  1
  O  O379  1  0.62503037  0.51704896  0.50225807  1
  O  O380  1  0.38494728  0.40006618  0.10148517  1
  O  O381  1  0.37106941  0.36804507  0.61780920  1
  O  O382  1  0.38492249  0.85092219  0.10805458  1
  O  O383  1  0.38655283  0.85857465  0.62858309  1
  O  O384  1  0.87017955  0.37003974  0.12018972  1
  O  O385  1  0.87268221  0.36048502  0.62938320  1
  O  O386  1  0.86543214  0.88132501  0.11818966  1
  O  O387  1  0.90346705  0.86293858  0.61441512  1
  O  O388  1  0.12233491  0.12374257  0.38640146  1
  O  O389  1  0.13364397  0.11193952  0.88709910  1
  O  O390  1  0.11169478  0.63295353  0.37635444  1
  O  O391  1  0.11278395  0.63978659  0.88719976  1
  O  O392  1  0.63843482  0.13984285  0.37503677  1
  O  O393  1  0.63363550  0.13689153  0.88275461  1
  O  O394  1  0.63701293  0.62415339  0.38510079  1
  O  O395  1  0.63489245  0.62632634  0.88588296  1
