# generated using pymatgen
data_V35Zn35O128
_symmetry_space_group_name_H-M   'P 1'
_cell_length_a   16.96943387
_cell_length_b   16.86998747
_cell_length_c   16.93721934
_cell_angle_alpha   89.82081336
_cell_angle_beta   90.16673577
_cell_angle_gamma   90.06291314
_symmetry_Int_Tables_number   1
_chemical_formula_structural   V35Zn35O128
_chemical_formula_sum   'V70 Zn70 O256'
_cell_volume   4848.64072890
_cell_formula_units_Z   2
loop_
 _symmetry_equiv_pos_site_id
 _symmetry_equiv_pos_as_xyz
  1  'x, y, z'
loop_
 _atom_site_type_symbol
 _atom_site_label
 _atom_site_symmetry_multiplicity
 _atom_site_fract_x
 _atom_site_fract_y
 _atom_site_fract_z
 _atom_site_occupancy
  V  V0  1  0.12298460  0.49691622  0.11844530  1
  V  V1  1  0.10376836  0.61810068  0.50122599  1
  V  V2  1  0.12617586  0.77335552  0.88810921  1
  V  V3  1  0.48397322  0.24280633  0.24028523  1
  V  V4  1  0.25353866  0.62274897  0.39070422  1
  V  V5  1  0.49702340  0.86795663  0.38155363  1
  V  V6  1  0.49408574  0.12243018  0.62386607  1
  V  V7  1  0.87456633  0.23876264  0.59787414  1
  V  V8  1  -0.00962419  -0.00322614  0.50411678  1
  V  V9  1  0.49734503  0.37153928  0.38812600  1
  V  V10  1  0.64428494  0.37119494  0.74261953  1
  V  V11  1  0.62910900  0.12444036  0.49208718  1
  V  V12  1  0.37894340  0.49190015  0.38390874  1
  V  V13  1  0.60962247  0.50461521  0.12325067  1
  V  V14  1  0.87181123  0.61858049  0.76135239  1
  V  V15  1  0.14236045  0.21228886  0.87879798  1
  V  V16  1  0.23955903  0.63833417  0.88585340  1
  V  V17  1  0.25768692  0.37576846  0.61464215  1
  V  V18  1  0.37046999  0.86994071  -0.00382641  1
  V  V19  1  0.62800502  0.00002464  0.62747252  1
  V  V20  1  0.03008433  0.25303776  0.24231235  1
  V  V21  1  0.36932575  0.25017704  0.61805017  1
  V  V22  1  0.36288341  0.23889525  0.11376749  1
  V  V23  1  0.62079637  0.23909987  0.37307883  1
  V  V24  1  0.87479979  0.88793378  -0.00812534  1
  V  V25  1  0.62850145  0.73831760  0.38185903  1
  V  V26  1  0.74250742  0.88851744  0.12934788  1
  V  V27  1  0.25204633  0.49573132  0.76145235  1
  V  V28  1  0.51054106  0.00378687  0.02276110  1
  V  V29  1  0.83928831  0.41736204  -0.02203285  1
  V  V30  1  -0.00475449  0.21677150  0.74974844  1
  V  V31  1  0.75158058  0.60493613  0.37544428  1
  V  V32  1  0.62731983  0.86894521  0.76090966  1
  V  V33  1  0.36401899  0.63213526  0.74285606  1
  V  V34  1  0.00993130  -0.00752847  -0.00532253  1
  V  V35  1  0.13320318  0.00306185  0.14438813  1
  V  V36  1  0.22427224  -0.01006233  0.69748774  1
  V  V37  1  0.62353803  0.87910201  0.25257104  1
  V  V38  1  0.11245647  0.48928173  0.61919004  1
  V  V39  1  0.76259081  0.01374920  0.76214609  1
  V  V40  1  0.88144815  0.61359020  0.25046941  1
  V  V41  1  0.00096280  0.63165010  0.10587442  1
  V  V42  1  0.60271452  0.63248878  0.00704680  1
  V  V43  1  0.49895963  0.24276986  0.75204011  1
  V  V44  1  0.36731556  0.85267685  0.51838205  1
  V  V45  1  0.12039162  0.11924381  0.52208532  1
  V  V46  1  0.49498277  -0.01033835  0.50060882  1
  V  V47  1  0.86979589  0.75649453  0.13762005  1
  V  V48  1  0.26188586  0.39406848  0.13176538  1
  V  V49  1  0.23552141  0.15186325  0.38185161  1
  V  V50  1  0.75230659  0.74906302  0.49956772  1
  V  V51  1  0.63346646  0.13083800  0.02206642  1
  V  V52  1  0.39162054  0.01315808  0.87699587  1
  V  V53  1  0.24580313  0.86748408  0.14963725  1
  V  V54  1  0.37070409  0.61610620  0.24387235  1
  V  V55  1  0.75337092  0.37356943  0.59615416  1
  V  V56  1  0.88101181  0.74430563  0.62494671  1
  V  V57  1  0.74381071  0.74747212  -0.00877236  1
  V  V58  1  0.50388700  0.73778074  0.24757539  1
  V  V59  1  0.48210932  0.75101832  0.74926039  1
  V  V60  1  -0.01655753  0.87953702  0.36415874  1
  V  V61  1  0.75947221  0.01199254  0.26398669  1
  V  V62  1  0.12141894  0.75361322  0.36941251  1
  V  V63  1  -0.01034410  0.12552515  0.12759741  1
  V  V64  1  0.63294953  0.23634922  0.87528212  1
  V  V65  1  0.75371744  0.87543191  0.62044014  1
  V  V66  1  0.37492594  0.74654994  0.12445170  1
  V  V67  1  0.00729428  0.76225248  0.75491248  1
  V  V68  1  0.49280967  0.38333597  0.87117565  1
  V  V69  1  0.07480246  0.43392146  0.80626673  1
  Zn  Zn70  1  0.32760341  0.02781765  0.32151815  1
  Zn  Zn71  1  0.61133876  0.37626346  0.24002932  1
  Zn  Zn72  1  0.74480038  0.37980873  0.10278471  1
  Zn  Zn73  1  0.51480033  0.86707049  0.88886981  1
  Zn  Zn74  1  0.36688159  0.38472372  -0.01004972  1
  Zn  Zn75  1  0.36017539  0.11949274  0.75271488  1
  Zn  Zn76  1  0.20782341  0.17813787  0.19858291  1
  Zn  Zn77  1  0.19298362  0.18124100  0.70780531  1
  Zn  Zn78  1  0.18711903  0.67315776  0.18659339  1
  Zn  Zn79  1  0.16468553  0.67162122  0.69542953  1
  Zn  Zn80  1  0.69711214  0.20512256  0.20657703  1
  Zn  Zn81  1  0.69405850  0.19413915  0.67982726  1
  Zn  Zn82  1  0.69081614  0.68584114  0.18753031  1
  Zn  Zn83  1  0.69399208  0.68413520  0.69381471  1
  Zn  Zn84  1  0.30958218  0.31371364  0.30718154  1
  Zn  Zn85  1  0.31414392  0.30404711  0.81073300  1
  Zn  Zn86  1  0.31285530  0.80074852  0.32126291  1
  Zn  Zn87  1  0.30154181  0.82623783  0.80995795  1
  Zn  Zn88  1  0.75091896  0.49530123  0.23961155  1
  Zn  Zn89  1  0.84363336  0.26270568  0.86832969  1
  Zn  Zn90  1  0.80798053  0.81388540  0.31429898  1
  Zn  Zn91  1  0.81184654  0.81833750  0.80758213  1
  Zn  Zn92  1  0.21100984  0.45458534  0.45176843  1
  Zn  Zn93  1  0.18763145  0.44206405  0.94916931  1
  Zn  Zn94  1  0.18087581  0.93272839  0.44614624  1
  Zn  Zn95  1  0.18696594  0.93936838  0.94951623  1
  Zn  Zn96  1  0.72781199  0.37918939  0.38636301  1
  Zn  Zn97  1  0.64963358  0.45050183  0.92564188  1
  Zn  Zn98  1  0.68335131  0.93494552  0.43707909  1
  Zn  Zn99  1  0.69238428  0.95368595  0.94163386  1
  Zn  Zn100  1  0.30855522  0.04701468  0.05873298  1
  Zn  Zn101  1  0.29627474  0.04339680  0.50308541  1
  Zn  Zn102  1  0.32370132  0.56093821  0.05086954  1
  Zn  Zn103  1  0.33298111  0.55707789  0.57408003  1
  Zn  Zn104  1  0.84117610  0.10486810  0.00894439  1
  Zn  Zn105  1  0.81482057  0.05978229  0.55198985  1
  Zn  Zn106  1  0.80443297  0.56633622  0.06392824  1
  Zn  Zn107  1  0.79529021  0.56804953  0.57633698  1
  Zn  Zn108  1  0.43611568  0.43105193  0.19140281  1
  Zn  Zn109  1  0.43519556  0.43609479  0.69906168  1
  Zn  Zn110  1  0.43317032  0.92574439  0.19085254  1
  Zn  Zn111  1  0.43587927  0.93334457  0.68963363  1
  Zn  Zn112  1  0.93507475  0.43017868  0.16377611  1
  Zn  Zn113  1  0.91189899  0.41763077  0.70371970  1
  Zn  Zn114  1  0.93771464  0.94501109  0.19425720  1
  Zn  Zn115  1  0.93686536  0.94106603  0.68660189  1
  Zn  Zn116  1  0.06415043  0.06380730  0.31937255  1
  Zn  Zn117  1  0.07047327  0.03862801  0.79899799  1
  Zn  Zn118  1  0.07791511  0.57500570  0.29285904  1
  Zn  Zn119  1  0.02345787  0.61077782  0.85010655  1
  Zn  Zn120  1  0.52232558  0.04420585  0.29483314  1
  Zn  Zn121  1  0.56372766  0.05644825  0.81474818  1
  Zn  Zn122  1  0.56292715  0.55461063  0.31335921  1
  Zn  Zn123  1  0.57261849  0.56988090  0.75515286  1
  Zn  Zn124  1  0.43205620  0.18371200  0.43652860  1
  Zn  Zn125  1  0.45038195  0.19095671  0.94901043  1
  Zn  Zn126  1  0.42661311  0.69503473  0.42860762  1
  Zn  Zn127  1  0.43188602  0.68839424  0.92251727  1
  Zn  Zn128  1  0.99425187  0.21839448  0.44897700  1
  Zn  Zn129  1  0.98989346  0.18900886  0.94635539  1
  Zn  Zn130  1  0.93356629  0.69184793  0.43079167  1
  Zn  Zn131  1  0.92640937  0.71106470  0.93875730  1
  Zn  Zn132  1  0.13355662  0.27928480  0.08199514  1
  Zn  Zn133  1  0.08219483  0.28220694  0.60939057  1
  Zn  Zn134  1  0.06177408  0.81259710  0.07734250  1
  Zn  Zn135  1  0.05443614  0.80507040  0.54403594  1
  Zn  Zn136  1  0.55643347  0.31471179  0.05784367  1
  Zn  Zn137  1  0.56283699  0.31050822  0.56401939  1
  Zn  Zn138  1  0.56090845  0.81180997  0.06666980  1
  Zn  Zn139  1  0.56703565  0.80189887  0.56906961  1
  O  O140  1  0.14987372  0.10179160  0.12719886  1
  O  O141  1  0.12797530  0.11770739  0.62054083  1
  O  O142  1  0.09532450  0.66545148  0.11117841  1
  O  O143  1  0.12305343  0.60692837  0.61007926  1
  O  O144  1  0.63660406  0.15550095  0.11816848  1
  O  O145  1  0.61537241  0.11955235  0.61173253  1
  O  O146  1  0.62281492  0.62013242  0.11829625  1
  O  O147  1  0.61122466  0.62053504  0.66166447  1
  O  O148  1  0.38051314  0.38576517  0.36921484  1
  O  O149  1  0.38825474  0.35978221  0.87394600  1
  O  O150  1  0.39418393  0.85253162  0.38784928  1
  O  O151  1  0.37875966  0.87893931  0.89087882  1
  O  O152  1  0.88833335  0.45673340  0.45499709  1
  O  O153  1  0.87744579  0.37149530  0.89596807  1
  O  O154  1  0.88494978  0.86472424  0.37768349  1
  O  O155  1  0.87260496  0.87454774  0.89418555  1
  O  O156  1  0.24863952  0.00819243  0.39731826  1
  O  O157  1  0.28185308  0.00362507  0.89149148  1
  O  O158  1  0.26610870  0.50701707  0.36927565  1
  O  O159  1  0.23677258  0.51654830  0.86434344  1
  O  O160  1  0.74346660  -0.00785613  0.36244119  1
  O  O161  1  0.75470885  0.00538291  0.86273769  1
  O  O162  1  0.74780902  0.50279649  0.37067085  1
  O  O163  1  0.63827146  0.55785598  0.85883729  1
  O  O164  1  0.25544722  0.49733427  0.12235218  1
  O  O165  1  0.25493842  0.48617061  0.63258995  1
  O  O166  1  0.24363990  0.97737219  0.12750180  1
  O  O167  1  0.24991387  0.99279151  0.59967000  1
  O  O168  1  0.73446529  0.49920682  0.12472978  1
  O  O169  1  0.74788966  0.47509070  0.61258066  1
  O  O170  1  0.74406983  0.98668102  0.14082498  1
  O  O171  1  0.74085815  0.99238476  0.62023563  1
  O  O172  1  -0.01571801  0.33905670  0.21056820  1
  O  O173  1  0.00606772  0.37897922  0.75652112  1
  O  O174  1  -0.00412640  0.87335650  0.26295914  1
  O  O175  1  -0.01380470  0.86166249  0.75079918  1
  O  O176  1  0.49689346  0.36182323  0.26113479  1
  O  O177  1  0.49815987  0.35383337  0.75014675  1
  O  O178  1  0.50720308  0.85623248  0.26212860  1
  O  O179  1  0.51541188  0.86873815  0.75232402  1
  O  O180  1  0.49824952  0.14476105  0.25076083  1
  O  O181  1  0.50815918  0.12879512  0.73708382  1
  O  O182  1  0.49075905  0.63218176  0.26084694  1
  O  O183  1  0.47275282  0.63798003  0.75966944  1
  O  O184  1  1.00829972  0.13694470  0.23440592  1
  O  O185  1  0.99520556  0.11665407  0.75408582  1
  O  O186  1  0.98245037  0.62684815  0.24267280  1
  O  O187  1  0.98843452  0.65320160  0.74331644  1
  O  O188  1  0.38538318  0.26025588  0.01384642  1
  O  O189  1  0.37780475  0.24797497  0.52057570  1
  O  O190  1  0.38655534  0.76245484  0.01037340  1
  O  O191  1  0.38884990  0.75080301  0.51348854  1
  O  O192  1  0.98719761  0.32960394  -0.01633406  1
  O  O193  1  0.89460411  0.25007025  0.49989162  1
  O  O194  1  0.85924764  0.76855641  0.01222403  1
  O  O195  1  0.86459358  0.74403416  0.51187980  1
  O  O196  1  0.09228778  0.22904732  0.51071915  1
  O  O197  1  0.14695041  0.23217953  0.97761691  1
  O  O198  1  0.12147845  0.72346050  0.48923541  1
  O  O199  1  0.11923768  0.77090006  0.98686871  1
  O  O200  1  0.60843634  0.23149045  0.48955040  1
  O  O201  1  0.61448855  0.23768649  0.98632913  1
  O  O202  1  0.63493114  0.74263363  0.49149799  1
  O  O203  1  0.63338978  0.74362964  1.00739300  1
  O  O204  1  0.48605180  0.25725806  0.13406012  1
  O  O205  1  0.49180542  0.24247976  0.63162985  1
  O  O206  1  0.48880974  0.75423673  0.13886358  1
  O  O207  1  0.51362989  0.74892312  0.65281780  1
  O  O208  1  1.02964925  0.22140678  0.11164856  1
  O  O209  1  0.97298118  0.25279958  0.64327798  1
  O  O210  1  0.97360223  0.74889567  0.12102429  1
  O  O211  1  0.98440846  0.75986349  0.62550313  1
  O  O212  1  0.01002636  0.24938891  0.34101679  1
  O  O213  1  0.03797162  0.23865535  0.85610093  1
  O  O214  1  0.01279413  0.76155527  0.38213845  1
  O  O215  1  0.01356485  0.75400822  0.86744675  1
  O  O216  1  0.49033538  0.25669068  0.36671546  1
  O  O217  1  0.50745222  0.24859537  0.86348525  1
  O  O218  1  0.51302362  0.74560754  0.37196930  1
  O  O219  1  0.50133425  0.75582395  0.85716459  1
  O  O220  1  0.22391426  0.13781385  0.49760735  1
  O  O221  1  0.24619930  0.04609259  0.95688028  1
  O  O222  1  0.25823905  0.61305130  0.49067687  1
  O  O223  1  0.25684584  0.62977082  0.98357630  1
  O  O224  1  0.72715959  0.11590697  0.49584314  1
  O  O225  1  0.72903891  0.11424259  1.00040978  1
  O  O226  1  0.75868702  0.62778415  0.48197423  1
  O  O227  1  0.74881955  0.64690325  1.00095266  1
  O  O228  1  0.25174791  0.37774861  0.01671503  1
  O  O229  1  0.26108771  0.37516759  0.51540706  1
  O  O230  1  0.26987099  0.87563359  0.00878761  1
  O  O231  1  0.27123546  0.86418543  0.49317101  1
  O  O232  1  0.73651707  0.39574432  -0.01967728  1
  O  O233  1  0.74989288  0.36747466  0.49651559  1
  O  O234  1  0.75543805  0.88091531  0.01532365  1
  O  O235  1  0.74039465  0.86122051  0.50856919  1
  O  O236  1  0.14643050  0.55573521  0.20407172  1
  O  O237  1  0.13733480  0.49597980  0.73418256  1
  O  O238  1  0.12500273  0.99614949  0.24274298  1
  O  O239  1  0.12511298  0.98124600  0.71979568  1
  O  O240  1  0.62701883  0.49882176  0.23707107  1
  O  O241  1  0.61066126  0.46462155  0.73233091  1
  O  O242  1  0.61750647  0.98043170  0.25652136  1
  O  O243  1  0.63016081  0.99407217  0.73892096  1
  O  O244  1  0.41695928  0.00140216  0.26765125  1
  O  O245  1  0.39907300  0.00440192  0.77332606  1
  O  O246  1  0.38474418  0.51393260  0.25792613  1
  O  O247  1  0.36021724  0.51918072  0.74798206  1
  O  O248  1  0.85844292  0.00408948  0.25045506  1
  O  O249  1  0.85994719  0.00061688  0.74248612  1
  O  O250  1  0.87274350  0.51084119  0.23356109  1
  O  O251  1  0.88415720  0.52005678  0.74265833  1
  O  O252  1  0.06093669  0.42961687  0.37332891  1
  O  O253  1  0.13341809  0.37727392  0.86739776  1
  O  O254  1  0.13730985  0.85282864  0.37292060  1
  O  O255  1  0.13897552  0.87289176  0.87001241  1
  O  O256  1  0.60573729  0.35995385  0.37940446  1
  O  O257  1  0.61250057  0.36173708  0.85685818  1
  O  O258  1  0.61895578  0.85670125  0.37060592  1
  O  O259  1  0.63023511  0.88956637  0.86317103  1
  O  O260  1  0.35417402  0.13820002  0.11036651  1
  O  O261  1  0.38733460  0.13229923  0.62637344  1
  O  O262  1  0.36867926  0.63089338  0.13712366  1
  O  O263  1  0.34811277  0.64604638  0.64483337  1
  O  O264  1  0.89142915  0.13065623  0.11699323  1
  O  O265  1  0.86745115  0.13888700  0.61373015  1
  O  O266  1  0.87537310  0.63673815  0.13281556  1
  O  O267  1  0.86832328  0.63970720  0.63164130  1
  O  O268  1  0.25710567  0.26081350  0.12354072  1
  O  O269  1  0.26216991  0.26097127  0.63805215  1
  O  O270  1  0.26330199  0.75535969  0.13597018  1
  O  O271  1  0.21108129  0.77635515  0.62480675  1
  O  O272  1  0.75991888  0.31120890  0.20325849  1
  O  O273  1  0.76611009  0.25479524  0.61681902  1
  O  O274  1  0.75689409  0.75788887  0.11874417  1
  O  O275  1  0.75389729  0.75402144  0.61678594  1
  O  O276  1  0.24675934  0.25284964  0.37773837  1
  O  O277  1  0.22762604  0.23518896  0.82345946  1
  O  O278  1  0.24346895  0.72908552  0.37997106  1
  O  O279  1  0.23548016  0.75057892  0.86746285  1
  O  O280  1  0.71794830  0.25267305  0.37351977  1
  O  O281  1  0.72986775  0.24960667  0.87059112  1
  O  O282  1  0.74401008  0.74386980  0.38283294  1
  O  O283  1  0.75224291  0.76585154  0.89364408  1
  O  O284  1  0.01265280  0.09949462  0.01559230  1
  O  O285  1  0.00826826  0.10580652  0.49089913  1
  O  O286  1  -0.01792757  0.63310700  0.00831826  1
  O  O287  1  0.00599502  0.61529597  0.48739993  1
  O  O288  1  0.51129379  0.11126585  0.01053959  1
  O  O289  1  0.50145077  0.10910330  0.50706985  1
  O  O290  1  0.50448603  0.64157173  0.00024240  1
  O  O291  1  0.51460580  0.52725295  0.56187842  1
  O  O292  1  0.49310826  0.36262916  0.48740112  1
  O  O293  1  0.51165190  0.37889297  0.97302063  1
  O  O294  1  0.50484001  0.87154299  0.49855296  1
  O  O295  1  0.49745305  0.88355124  1.00441118  1
  O  O296  1  1.02157107  0.38825742  0.42204180  1
  O  O297  1  1.04317902  0.37013535  1.00830221  1
  O  O298  1  1.01364871  0.88653216  0.47996734  1
  O  O299  1  0.97953923  0.88103624  1.01779405  1
  O  O300  1  0.49258740  0.48472524  0.37406927  1
  O  O301  1  0.49647777  0.47826365  0.84420854  1
  O  O302  1  0.51518938  0.97781430  0.39216924  1
  O  O303  1  0.49940581  0.99354244  0.89232069  1
  O  O304  1  1.01582461  0.48102750  0.32616728  1
  O  O305  1  1.02905296  0.49908633  0.86592358  1
  O  O306  1  1.00092001  0.98520536  0.37406424  1
  O  O307  1  1.01878310  0.99312904  0.89662503  1
  O  O308  1  0.01300146  0.01026565  0.13274857  1
  O  O309  1  -0.00246157  -0.01575542  0.60432048  1
  O  O310  1  0.01329753  0.51814754  0.12433741  1
  O  O311  1  0.01740154  0.47863055  0.62459955  1
  O  O312  1  0.50319057  -0.00991565  0.12041796  1
  O  O313  1  0.50948964  0.00271983  0.62131452  1
  O  O314  1  0.51086938  0.49811120  0.13144847  1
  O  O315  1  0.45288747  0.52353855  0.62292398  1
  O  O316  1  0.25797368  0.38178168  0.23242569  1
  O  O317  1  0.26148421  0.39442628  0.75343458  1
  O  O318  1  0.26454195  0.87357889  0.24761519  1
  O  O319  1  0.27240144  0.91247230  0.74490594  1
  O  O320  1  0.73271329  0.37225754  0.26149065  1
  O  O321  1  0.74073382  0.37581702  0.75314887  1
  O  O322  1  0.74116038  0.87818850  0.24474415  1
  O  O323  1  0.74172307  0.88970729  0.74242381  1
  O  O324  1  0.25814438  0.12209569  0.28105382  1
  O  O325  1  0.25259148  0.08690039  0.73582755  1
  O  O326  1  0.27086068  0.62921117  0.26387363  1
  O  O327  1  0.24724357  0.61888256  0.75570689  1
  O  O328  1  0.73774635  0.10968076  0.25079256  1
  O  O329  1  0.74118284  0.11038804  0.74032008  1
  O  O330  1  0.75874261  0.62162721  0.26126637  1
  O  O331  1  0.77194050  0.63454509  0.76019186  1
  O  O332  1  0.34621772  0.11882336  0.40849121  1
  O  O333  1  0.38863675  0.11528853  0.88345390  1
  O  O334  1  0.37127247  0.61538855  0.37054429  1
  O  O335  1  0.34849380  0.64324285  0.85877842  1
  O  O336  1  0.86785575  0.14664193  0.36184642  1
  O  O337  1  0.88015064  0.19008382  0.94783950  1
  O  O338  1  0.86542748  0.62567972  0.36040128  1
  O  O339  1  0.89804414  0.63180995  0.86225071  1
  O  O340  1  0.13914645  0.39298009  0.12647158  1
  O  O341  1  0.14556859  0.38162858  0.62085482  1
  O  O342  1  0.14251887  0.86521920  0.14018853  1
  O  O343  1  0.16154316  0.83119638  0.61266979  1
  O  O344  1  0.62441268  0.38775773  0.11858720  1
  O  O345  1  0.64690869  0.34625197  0.63138180  1
  O  O346  1  0.63741724  0.86446056  0.13751712  1
  O  O347  1  0.63352334  0.88157340  0.63452080  1
  O  O348  1  0.13036633  0.25919386  0.22842173  1
  O  O349  1  0.09924527  0.24425744  0.72006016  1
  O  O350  1  0.12568147  0.72464939  0.27336569  1
  O  O351  1  0.11035202  0.75627460  0.74950639  1
  O  O352  1  0.60546483  0.25211647  0.26337390  1
  O  O353  1  0.61796367  0.24946655  0.75557601  1
  O  O354  1  0.62089901  0.75025195  0.25902711  1
  O  O355  1  0.63944267  0.76996630  0.75685253  1
  O  O356  1  0.37755854  0.25098919  0.23399613  1
  O  O357  1  0.38494710  0.23463747  0.74392168  1
  O  O358  1  0.38552248  0.73820369  0.24703224  1
  O  O359  1  0.37785050  0.75622286  0.74955332  1
  O  O360  1  0.85592492  0.19556517  0.30987062  1
  O  O361  1  0.89953661  0.24566157  0.77188925  1
  O  O362  1  0.86332444  0.74096332  0.23981445  1
  O  O363  1  0.87553351  0.75040763  0.73728663  1
  O  O364  1  0.37741780  0.50152545  0.48254384  1
  O  O365  1  0.38894906  0.49673274  0.99197635  1
  O  O366  1  0.39334490  0.97512918  0.50334250  1
  O  O367  1  0.39384783  0.98837192  0.99971264  1
  O  O368  1  0.89870610  0.50126772  0.51210352  1
  O  O369  1  0.85479432  0.51671336  0.97355027  1
  O  O370  1  0.88868461  1.00068425  0.49208295  1
  O  O371  1  0.88715153  0.99400466  1.00435482  1
  O  O372  1  0.10834176  -0.03094708  0.02809599  1
  O  O373  1  0.11360429  0.01097732  0.49791808  1
  O  O374  1  0.13637559  0.51998370  0.02185517  1
  O  O375  1  0.12744920  0.50336820  0.50912248  1
  O  O376  1  0.61738375  0.01082891  0.00799388  1
  O  O377  1  0.61691671  0.00374870  0.50965847  1
  O  O378  1  0.61835308  0.52209324  0.01183750  1
  O  O379  1  0.56845700  0.47684258  0.56765568  1
  O  O380  1  0.36834773  0.37283321  0.11957641  1
  O  O381  1  0.36876368  0.36106201  0.63540464  1
  O  O382  1  0.36658111  0.86542901  0.12075198  1
  O  O383  1  0.37869168  0.86994370  0.61731421  1
  O  O384  1  0.86569828  0.38816897  0.07811238  1
  O  O385  1  0.85921831  0.36265091  0.62144456  1
  O  O386  1  0.85993344  0.86915922  0.13130240  1
  O  O387  1  0.85781682  0.86346445  0.62888220  1
  O  O388  1  0.13183705  0.13347959  0.37904827  1
  O  O389  1  0.13286832  0.11307415  0.86554211  1
  O  O390  1  0.13923579  0.61191706  0.38851173  1
  O  O391  1  0.13327502  0.64813045  0.87456810  1
  O  O392  1  0.60782275  0.12937384  0.38458426  1
  O  O393  1  0.62048851  0.13377040  0.87738109  1
  O  O394  1  0.64131409  0.62667633  0.36803717  1
  O  O395  1  0.62730416  0.62742257  0.89925775  1
