# generated using pymatgen
data_V35Zn35O128
_symmetry_space_group_name_H-M   'P 1'
_cell_length_a   16.83961576
_cell_length_b   16.97165882
_cell_length_c   16.94694616
_cell_angle_alpha   89.90017635
_cell_angle_beta   89.93137697
_cell_angle_gamma   89.86556029
_symmetry_Int_Tables_number   1
_chemical_formula_structural   V35Zn35O128
_chemical_formula_sum   'V70 Zn70 O256'
_cell_volume   4843.34890758
_cell_formula_units_Z   2
loop_
 _symmetry_equiv_pos_site_id
 _symmetry_equiv_pos_as_xyz
  1  'x, y, z'
loop_
 _atom_site_type_symbol
 _atom_site_label
 _atom_site_symmetry_multiplicity
 _atom_site_fract_x
 _atom_site_fract_y
 _atom_site_fract_z
 _atom_site_occupancy
  V  V0  1  0.86667938  0.36431119  0.50440252  1
  V  V1  1  0.00146735  0.22545727  0.25873640  1
  V  V2  1  0.00485526  0.61259272  0.12595749  1
  V  V3  1  -0.00703330  0.39006956  0.88761279  1
  V  V4  1  0.86952836  0.49444914  0.37221904  1
  V  V5  1  0.01767909  0.10845612  0.09882256  1
  V  V6  1  0.25080079  -0.00130182  0.75089680  1
  V  V7  1  0.25740530  0.38135175  0.62112211  1
  V  V8  1  0.25463283  0.50173090  0.75312336  1
  V  V9  1  0.63823462  0.75656572  0.87680229  1
  V  V10  1  0.24541365  0.25065004  0.00771249  1
  V  V11  1  0.73996366  0.01030055  0.25127288  1
  V  V12  1  0.36953157  0.73996491  0.12794856  1
  V  V13  1  0.62711960  0.61637521  0.50344631  1
  V  V14  1  0.37239879  0.88183447  0.49198927  1
  V  V15  1  -0.00939104  -0.00142888  0.50160588  1
  V  V16  1  0.36174977  0.14262278  0.21329550  1
  V  V17  1  0.87618192  0.25005366  0.64631158  1
  V  V18  1  0.37635050  0.49854218  0.87633253  1
  V  V19  1  0.12619134  0.74994746  0.88596916  1
  V  V20  1  0.76542668  0.38069722  0.15572367  1
  V  V21  1  0.37804875  0.26528294  0.62561102  1
  V  V22  1  0.87368893  0.62136240  0.25413527  1
  V  V23  1  0.86089324  0.61851662  0.75710380  1
  V  V24  1  0.37230344  0.36562229  0.01560350  1
  V  V25  1  0.12212883  0.86959315  0.75346190  1
  V  V26  1  0.12750260  0.75593983  0.37666207  1
  V  V27  1  0.50059417  0.36702652  0.87741683  1
  V  V28  1  -0.00041949  0.61938822  0.62401394  1
  V  V29  1  0.26084066  0.62177764  0.36486128  1
  V  V30  1  -0.01118839  0.87401592  0.38276947  1
  V  V31  1  0.11751778  0.24847295  0.86439280  1
  V  V32  1  0.12281702  0.00172390  0.62684690  1
  V  V33  1  0.75262424  0.76850988  0.49253770  1
  V  V34  1  0.38499986  -0.00452503  0.87465972  1
  V  V35  1  0.62235264  0.75300406  0.36827168  1
  V  V36  1  0.37306935  0.74878291  0.63118679  1
  V  V37  1  0.74732623  0.01071100  0.75526236  1
  V  V38  1  0.01365830  0.37090848  0.36687701  1
  V  V39  1  0.12657491  0.61573744  0.50444995  1
  V  V40  1  0.14879162  0.13460414  0.50338732  1
  V  V41  1  0.62607473  0.12208101  0.00936728  1
  V  V42  1  0.24832083  0.12887285  0.87588003  1
  V  V43  1  0.00744333  0.75627020  0.24635470  1
  V  V44  1  0.37349097  0.87126831  0.00697996  1
  V  V45  1  0.11860215  0.38323289  0.74537891  1
  V  V46  1  0.24346171  0.48619021  0.23625072  1
  V  V47  1  0.86513385  0.88566010  -0.03002639  1
  V  V48  1  0.86654197  0.23504985  0.11301446  1
  V  V49  1  0.62544223  0.88235939  0.72158617  1
  V  V50  1  0.63805232  0.23802873  0.87910531  1
  V  V51  1  0.00175141  0.49669732  0.50108541  1
  V  V52  1  0.49437671  0.63106654  0.62506467  1
  V  V53  1  0.49318045  0.49018329  0.49781575  1
  V  V54  1  0.49334332  0.73755230  0.24692382  1
  V  V55  1  -0.00158009  0.74935606  0.75285091  1
  V  V56  1  0.86958334  0.75774200  0.61677154  1
  V  V57  1  0.49817204  0.00686041  0.02298556  1
  V  V58  1  0.23852399  0.88966615  0.13894870  1
  V  V59  1  0.50282258  0.24517079  0.75230217  1
  V  V60  1  0.25011261  0.87326349  0.62824783  1
  V  V61  1  0.49464369  0.88746401  0.37201748  1
  V  V62  1  0.51142304  0.50127684  0.00667448  1
  V  V63  1  0.68039876  0.44097122  0.69569770  1
  V  V64  1  0.24967461  0.74252539  0.50260643  1
  V  V65  1  0.25230474  0.62256557  0.88218694  1
  V  V66  1  0.12147934  0.59968323  0.00467373  1
  V  V67  1  0.38213718  0.47693120  0.36888209  1
  V  V68  1  0.37731418  0.12594548  0.74288364  1
  V  V69  1  0.63370322  0.50283567  0.14649623  1
  Zn  Zn70  1  0.74680962  0.61735929  0.37271133  1
  Zn  Zn71  1  0.26919093  0.13678102  0.37248920  1
  Zn  Zn72  1  0.49927131  0.76565485  0.76002207  1
  Zn  Zn73  1  0.87488290  0.77184907  0.10677654  1
  Zn  Zn74  1  0.61588947  0.23671865  0.37881181  1
  Zn  Zn75  1  0.00574385  0.14335017  0.61800317  1
  Zn  Zn76  1  0.17508780  0.18085912  0.18915815  1
  Zn  Zn77  1  0.19184995  0.19255516  0.68345489  1
  Zn  Zn78  1  0.18773435  0.68859553  0.18393116  1
  Zn  Zn79  1  0.18747789  0.68153279  0.69152085  1
  Zn  Zn80  1  0.67562378  0.20238420  0.18189503  1
  Zn  Zn81  1  0.69203916  0.20465866  0.68489316  1
  Zn  Zn82  1  0.65305678  0.71147416  0.14921392  1
  Zn  Zn83  1  0.68376189  0.69899170  0.68332581  1
  Zn  Zn84  1  0.30505535  0.30325637  0.28770027  1
  Zn  Zn85  1  0.31268588  0.31613707  0.81451217  1
  Zn  Zn86  1  0.31151280  0.80921365  0.30931882  1
  Zn  Zn87  1  0.34272633  0.78157525  0.84611338  1
  Zn  Zn88  1  0.81990467  0.19690959  0.30893433  1
  Zn  Zn89  1  0.81119493  0.32070641  0.81483528  1
  Zn  Zn90  1  0.81897690  0.81057504  0.29973475  1
  Zn  Zn91  1  0.80491160  0.81592047  0.80797686  1
  Zn  Zn92  1  0.19376860  0.43453516  0.43238060  1
  Zn  Zn93  1  0.18540785  0.42864795  0.93737564  1
  Zn  Zn94  1  0.19161159  0.93979392  0.44391648  1
  Zn  Zn95  1  0.20073683  0.92554093  0.93688201  1
  Zn  Zn96  1  0.72692845  0.36841901  0.36202623  1
  Zn  Zn97  1  0.67645806  0.45718819  0.89763513  1
  Zn  Zn98  1  0.68174426  0.93955514  0.43085032  1
  Zn  Zn99  1  0.67883202  0.93520687  0.93053078  1
  Zn  Zn100  1  0.30075709  0.05774072  0.05880138  1
  Zn  Zn101  1  0.36577076  0.08207197  0.53224915  1
  Zn  Zn102  1  0.31695762  0.56070769  0.05729377  1
  Zn  Zn103  1  0.31923848  0.55654560  0.56054225  1
  Zn  Zn104  1  0.81321311  0.05142389  0.04716851  1
  Zn  Zn105  1  0.82289539  0.05825378  0.60360367  1
  Zn  Zn106  1  0.81401721  0.56346694  0.08070267  1
  Zn  Zn107  1  0.80907560  0.55728770  0.56878534  1
  Zn  Zn108  1  0.44152619  0.43814031  0.18942384  1
  Zn  Zn109  1  0.46311739  0.44555050  0.69306585  1
  Zn  Zn110  1  0.43059384  0.93739220  0.19390024  1
  Zn  Zn111  1  0.44927012  0.94996548  0.66876869  1
  Zn  Zn112  1  0.97483862  0.40520186  0.15625842  1
  Zn  Zn113  1  0.92832277  0.43769517  0.68796106  1
  Zn  Zn114  1  0.91877138  0.93326550  0.17077686  1
  Zn  Zn115  1  0.93384432  0.93447746  0.68987796  1
  Zn  Zn116  1  0.07693773  0.06106464  0.33520681  1
  Zn  Zn117  1  0.06876067  0.04642929  0.83947853  1
  Zn  Zn118  1  0.06732049  0.56077620  0.31483939  1
  Zn  Zn119  1  0.05902501  0.56320709  0.81318031  1
  Zn  Zn120  1  0.48831300  0.10349376  0.37597942  1
  Zn  Zn121  1  0.56965401  0.05974880  0.80889279  1
  Zn  Zn122  1  0.56223059  0.56345955  0.31744201  1
  Zn  Zn123  1  0.58895733  0.57109561  0.78949345  1
  Zn  Zn124  1  0.39553183  0.24419327  0.41558060  1
  Zn  Zn125  1  0.43319309  0.18255603  0.94187100  1
  Zn  Zn126  1  0.43852723  0.69179526  0.43795908  1
  Zn  Zn127  1  0.49898082  0.68542614  0.93304554  1
  Zn  Zn128  1  0.94511569  0.18171571  0.44230189  1
  Zn  Zn129  1  0.93974259  0.18947764  0.93840003  1
  Zn  Zn130  1  0.93769619  0.68496086  0.43596815  1
  Zn  Zn131  1  0.93533792  0.68924620  0.93727513  1
  Zn  Zn132  1  0.05735121  0.29112021  0.05584409  1
  Zn  Zn133  1  0.06295197  0.31601437  0.56665718  1
  Zn  Zn134  1  0.05164680  0.84885748  0.05663148  1
  Zn  Zn135  1  0.06102885  0.80986050  0.56322518  1
  Zn  Zn136  1  0.59927221  0.33807230  0.03467705  1
  Zn  Zn137  1  0.64360062  0.35742644  0.52202308  1
  Zn  Zn138  1  0.56098869  0.82276229  0.05626529  1
  Zn  Zn139  1  0.56010872  0.81187899  0.55341594  1
  O  O140  1  0.11686587  0.11033575  0.11980876  1
  O  O141  1  0.12002670  0.11474571  0.63159740  1
  O  O142  1  0.11794839  0.62805769  0.11274184  1
  O  O143  1  0.11529846  0.62976281  0.61435925  1
  O  O144  1  0.61659930  0.13947155  0.10842637  1
  O  O145  1  0.60649272  0.14659604  0.62019454  1
  O  O146  1  0.63427950  0.60245575  0.12972606  1
  O  O147  1  0.61115820  0.63768839  0.60935253  1
  O  O148  1  0.38277202  0.37930375  0.37331433  1
  O  O149  1  0.38180905  0.37918060  0.88716881  1
  O  O150  1  0.38005675  0.86145404  0.38585307  1
  O  O151  1  0.35652637  0.88739471  0.89663437  1
  O  O152  1  0.89016834  0.38879511  0.38940245  1
  O  O153  1  0.89558999  0.37277338  0.86639732  1
  O  O154  1  0.88993553  0.86855640  0.37789453  1
  O  O155  1  0.88211294  0.87192982  0.87013591  1
  O  O156  1  0.22842304  -0.00391511  0.34523196  1
  O  O157  1  0.24931437  0.00870314  0.86650267  1
  O  O158  1  0.26407820  0.50707204  0.37065244  1
  O  O159  1  0.25555766  0.50060448  0.87319000  1
  O  O160  1  0.73291862  0.01765128  0.35600958  1
  O  O161  1  0.73742226  0.00024405  0.85549015  1
  O  O162  1  0.76762519  0.49290878  0.37470414  1
  O  O163  1  0.68508048  0.50965709  0.80186335  1
  O  O164  1  0.25823614  0.51090406  0.13984636  1
  O  O165  1  0.26440437  0.49299585  0.64086328  1
  O  O166  1  0.24583850  0.99083817  0.12978164  1
  O  O167  1  0.23953284  0.99053474  0.63829980  1
  O  O168  1  0.74784859  0.49231740  0.13682269  1
  O  O169  1  0.73688468  0.50048451  0.63539846  1
  O  O170  1  0.75279491  1.00147170  0.14701140  1
  O  O171  1  0.75213977  0.98213095  0.63809367  1
  O  O172  1  -0.00458255  0.38392030  0.27020607  1
  O  O173  1  0.01633077  0.38725191  0.75034344  1
  O  O174  1  0.00314066  0.85971008  0.26837049  1
  O  O175  1  0.01229098  0.86287697  0.73966403  1
  O  O176  1  0.50789758  0.35948257  0.25579016  1
  O  O177  1  0.49162952  0.36010632  0.77255553  1
  O  O178  1  0.48873499  0.87027631  0.26839242  1
  O  O179  1  0.51234115  0.88137937  0.73053218  1
  O  O180  1  0.45064311  0.09000820  0.25813635  1
  O  O181  1  0.48987955  0.13575280  0.75821258  1
  O  O182  1  0.49937687  0.63875157  0.25347812  1
  O  O183  1  0.50203195  0.63007616  0.72445001  1
  O  O184  1  1.00971975  0.12670140  0.27270879  1
  O  O185  1  0.96868957  0.09975699  0.79602076  1
  O  O186  1  1.00593887  0.62793485  0.23917344  1
  O  O187  1  0.99908721  0.63201445  0.73895693  1
  O  O188  1  0.36219169  0.25809201  -0.00355565  1
  O  O189  1  0.39116861  0.26297248  0.52981226  1
  O  O190  1  0.38592729  0.76921005  0.01626121  1
  O  O191  1  0.36116855  0.75508194  0.50582377  1
  O  O192  1  0.87949688  0.25072284  0.01294571  1
  O  O193  1  0.88464091  0.26580835  0.49504061  1
  O  O194  1  0.88783551  0.77138333  -0.00448420  1
  O  O195  1  0.86280281  0.74298471  0.50400243  1
  O  O196  1  0.12698486  0.23159925  0.52074860  1
  O  O197  1  0.13868664  0.25657244  0.97782691  1
  O  O198  1  0.13415380  0.73919609  0.49717051  1
  O  O199  1  0.10647043  0.77007584  0.98169612  1
  O  O200  1  0.63818830  0.22128256  0.51410546  1
  O  O201  1  0.62000941  0.23555990  0.98793144  1
  O  O202  1  0.63898678  0.74564527  0.49019917  1
  O  O203  1  0.59618715  0.74856601  0.97562817  1
  O  O204  1  0.53951761  0.30458981  0.20954181  1
  O  O205  1  0.48948720  0.26413202  0.65306890  1
  O  O206  1  0.49148892  0.75897719  0.14251361  1
  O  O207  1  0.48793605  0.74383625  0.61678008  1
  O  O208  1  0.98811587  0.21397880  0.12536429  1
  O  O209  1  0.98910866  0.25617496  0.62785796  1
  O  O210  1  1.00177238  0.74842867  0.14475066  1
  O  O211  1  0.99191157  0.73945969  0.62620897  1
  O  O212  1  -0.00332390  0.26045408  0.36455455  1
  O  O213  1  0.01575737  0.25351205  0.87269490  1
  O  O214  1  0.01086048  0.75929917  0.38355314  1
  O  O215  1  0.01084695  0.74132436  0.85702788  1
  O  O216  1  0.50251677  0.21715162  0.39441684  1
  O  O217  1  0.49704779  0.25524779  0.87410596  1
  O  O218  1  0.50368481  0.75526754  0.36595787  1
  O  O219  1  0.45048541  0.75166728  0.86023114  1
  O  O220  1  0.24626414  0.12157650  0.52537735  1
  O  O221  1  0.25404847  0.13713365  0.98420828  1
  O  O222  1  0.24518599  0.62744156  0.49727763  1
  O  O223  1  0.23063127  0.61635385  0.99544075  1
  O  O224  1  0.72590224  0.07601459  0.50480878  1
  O  O225  1  0.72466931  0.10466620  0.99919586  1
  O  O226  1  0.73583398  0.62324774  0.49817248  1
  O  O227  1  0.76185578  0.65644517  1.02525745  1
  O  O228  1  0.26076967  0.36343486  -0.00257864  1
  O  O229  1  0.25034292  0.38905804  0.52258304  1
  O  O230  1  0.26426348  0.88103330  0.01865258  1
  O  O231  1  0.24859468  0.85840190  0.50901138  1
  O  O232  1  0.78007447  0.44399974  -0.03488600  1
  O  O233  1  0.76746357  0.37500560  0.49158389  1
  O  O234  1  0.76488121  0.88135019  -0.01074277  1
  O  O235  1  0.74986679  0.86669354  0.48913083  1
  O  O236  1  0.14493066  0.50413480  0.25583877  1
  O  O237  1  0.13704218  0.48994457  0.75731824  1
  O  O238  1  0.16943300  0.99681648  0.29326449  1
  O  O239  1  0.12788451  0.99037342  0.74851473  1
  O  O240  1  0.61893138  0.49455055  0.24508760  1
  O  O241  1  0.57566153  0.48188581  0.71842679  1
  O  O242  1  0.63729615  1.01149115  0.23515251  1
  O  O243  1  0.62774114  0.98969450  0.74115892  1
  O  O244  1  0.38773945  0.03233318  0.25381756  1
  O  O245  1  0.36471595  0.00479698  0.75461961  1
  O  O246  1  0.37153800  0.49437343  0.26317744  1
  O  O247  1  0.37185389  0.49417037  0.76856731  1
  O  O248  1  0.84667655  0.00200178  0.25411377  1
  O  O249  1  0.85314877  -0.00383034  0.73380661  1
  O  O250  1  0.88747062  0.51421041  0.26677584  1
  O  O251  1  0.87514791  0.51913280  0.74365970  1
  O  O252  1  0.11384022  0.37488565  0.38068704  1
  O  O253  1  0.11891033  0.36696399  0.86352853  1
  O  O254  1  0.12787183  0.85819947  0.38522694  1
  O  O255  1  0.14285289  0.86217015  0.85685121  1
  O  O256  1  0.62771816  0.34685813  0.41251576  1
  O  O257  1  0.60950906  0.35648662  0.89390055  1
  O  O258  1  0.60457860  0.86595711  0.38931005  1
  O  O259  1  0.61761363  0.85993343  0.86643400  1
  O  O260  1  0.36573443  0.13434547  0.11365566  1
  O  O261  1  0.36584276  0.15057375  0.64051519  1
  O  O262  1  0.37494715  0.64280219  0.11290191  1
  O  O263  1  0.38209309  0.63832466  0.61381254  1
  O  O264  1  0.84951018  0.13685180  0.11376541  1
  O  O265  1  0.89022988  0.14243163  0.62405153  1
  O  O266  1  0.88962217  0.63172804  0.13971728  1
  O  O267  1  0.88459185  0.63309429  0.62704637  1
  O  O268  1  0.23244153  0.24442226  0.10436386  1
  O  O269  1  0.26469454  0.27133002  0.63751503  1
  O  O270  1  0.26565819  0.75619004  0.13199744  1
  O  O271  1  0.25057037  0.75267588  0.61969441  1
  O  O272  1  0.76059437  0.26756032  0.13680866  1
  O  O273  1  0.77458879  0.24895810  0.62329548  1
  O  O274  1  0.75762765  0.71323946  0.07778268  1
  O  O275  1  0.76014913  0.74954190  0.60638914  1
  O  O276  1  0.28686249  0.25071690  0.38403286  1
  O  O277  1  0.24422846  0.24285733  0.87537222  1
  O  O278  1  0.24688496  0.73801804  0.38253114  1
  O  O279  1  0.24113064  0.73225566  0.87366456  1
  O  O280  1  0.72759699  0.25077292  0.33810229  1
  O  O281  1  0.73623988  0.25047640  0.87236229  1
  O  O282  1  0.74597947  0.75254832  0.37952404  1
  O  O283  1  0.73820733  0.74739319  0.87535808  1
  O  O284  1  0.00431903  0.11491844  -0.00200322  1
  O  O285  1  0.01877874  0.10761214  0.49779904  1
  O  O286  1  0.01026472  0.62979432  0.01390159  1
  O  O287  1  0.00741291  0.61781263  0.50436078  1
  O  O288  1  0.50142033  0.11119312  -0.00231332  1
  O  O289  1  0.58662368  0.17263900  0.54875690  1
  O  O290  1  0.49324299  0.59838450  0.00320518  1
  O  O291  1  0.51098887  0.63005601  0.50204359  1
  O  O292  1  0.50543035  0.39604959  0.51229124  1
  O  O293  1  0.48846587  0.37059783  0.99637245  1
  O  O294  1  0.47927405  0.87274268  0.49398058  1
  O  O295  1  0.48394130  0.89430989  1.00867184  1
  O  O296  1  1.00003105  0.38488208  0.49502833  1
  O  O297  1  1.00292512  0.36827979  0.98502244  1
  O  O298  1  1.00580948  0.88417009  0.49371369  1
  O  O299  1  0.94356906  0.88237452  1.06519121  1
  O  O300  1  0.48887673  0.50205070  0.38242020  1
  O  O301  1  0.49385850  0.48121245  0.88859376  1
  O  O302  1  0.49676808  0.98510316  0.38308912  1
  O  O303  1  0.48482788  1.00052874  0.86779177  1
  O  O304  1  0.99886036  0.49482119  0.38594196  1
  O  O305  1  1.00526432  0.49051725  0.88016164  1
  O  O306  1  1.00851547  0.98365949  0.38943036  1
  O  O307  1  1.03824152  0.96866027  0.92024704  1
  O  O308  1  -0.02483490  0.02641657  0.14179424  1
  O  O309  1  0.01117674  -0.00770296  0.61637391  1
  O  O310  1  -0.00574265  0.51595477  0.12523694  1
  O  O311  1  -0.00551838  0.50999017  0.61346716  1
  O  O312  1  0.49529347  0.00379997  0.12123611  1
  O  O313  1  0.44664422  0.02767731  0.59288350  1
  O  O314  1  0.52117678  0.48179495  0.11511637  1
  O  O315  1  0.47861788  0.52227141  0.60423364  1
  O  O316  1  0.25110374  0.38608259  0.23998213  1
  O  O317  1  0.24419715  0.38722579  0.75058635  1
  O  O318  1  0.25555545  0.87344192  0.23854090  1
  O  O319  1  0.24371877  0.88139264  0.73930665  1
  O  O320  1  0.76204596  0.38425215  0.25308781  1
  O  O321  1  0.73765976  0.37682324  0.75139809  1
  O  O322  1  0.73398650  0.90679814  0.26451449  1
  O  O323  1  0.73156744  0.88111979  0.74711144  1
  O  O324  1  0.26128457  0.13736596  0.25067783  1
  O  O325  1  0.25579538  0.11696697  0.75463368  1
  O  O326  1  0.24907693  0.62380823  0.26460436  1
  O  O327  1  0.24008018  0.61126619  0.76647426  1
  O  O328  1  0.74355339  0.11498438  0.24594427  1
  O  O329  1  0.73317887  0.10984739  0.73675473  1
  O  O330  1  0.77422467  0.63548713  0.25356596  1
  O  O331  1  0.76309030  0.63870853  0.73949099  1
  O  O332  1  0.37894819  0.11902255  0.42180892  1
  O  O333  1  0.36543659  0.11564482  0.86543269  1
  O  O334  1  0.36118507  0.62858723  0.37918838  1
  O  O335  1  0.35849865  0.60725212  0.89387889  1
  O  O336  1  0.86883783  0.12980935  0.38028323  1
  O  O337  1  0.91048557  0.11614257  0.84408727  1
  O  O338  1  0.87555024  0.60983674  0.37499542  1
  O  O339  1  0.87931000  0.63363077  0.85560805  1
  O  O340  1  0.07908100  0.36861196  0.13144610  1
  O  O341  1  0.14112347  0.37347827  0.63958261  1
  O  O342  1  0.14048550  0.86658599  0.12351531  1
  O  O343  1  0.13303742  0.87798905  0.63112257  1
  O  O344  1  0.65645085  0.38582809  0.11745873  1
  O  O345  1  0.63711539  0.37262376  0.63033879  1
  O  O346  1  0.64872528  0.81921551  0.12399853  1
  O  O347  1  0.62821150  0.87306139  0.62088124  1
  O  O348  1  0.09660192  0.25320919  0.23314009  1
  O  O349  1  0.13383525  0.26606116  0.75799129  1
  O  O350  1  0.11473882  0.73850817  0.26407393  1
  O  O351  1  0.11868245  0.75319313  0.75263062  1
  O  O352  1  0.59794273  0.26142838  0.24766409  1
  O  O353  1  0.61048513  0.24378409  0.76625528  1
  O  O354  1  0.61372472  0.74571400  0.26292658  1
  O  O355  1  0.61988710  0.76822444  0.74947726  1
  O  O356  1  0.38698674  0.23774472  0.23621765  1
  O  O357  1  0.38250237  0.24237261  0.75625437  1
  O  O358  1  0.38344674  0.74784232  0.24128582  1
  O  O359  1  0.36544806  0.76118764  0.73013064  1
  O  O360  1  0.89409437  0.24302665  0.23160619  1
  O  O361  1  0.87718898  0.25563344  0.74545559  1
  O  O362  1  0.90401923  0.72558897  0.27799352  1
  O  O363  1  0.88152728  0.74495448  0.73337475  1
  O  O364  1  0.38217669  0.50112816  0.48164296  1
  O  O365  1  0.38201241  0.48230916  0.99775948  1
  O  O366  1  0.33799050  0.97405758  0.48429444  1
  O  O367  1  0.38307795  0.99977074  0.99335740  1
  O  O368  1  0.88421551  0.49658146  0.49426125  1
  O  O369  1  0.82566285  0.50499641  0.97375197  1
  O  O370  1  0.89344298  1.00670976  0.51226253  1
  O  O371  1  0.87732595  0.98924719  0.98353160  1
  O  O372  1  0.09146370  -0.04094977  -0.02015387  1
  O  O373  1  0.12895340  0.00665085  0.51533226  1
  O  O374  1  0.12132069  0.50199130  0.00217200  1
  O  O375  1  0.11928983  0.50917067  0.49398019  1
  O  O376  1  0.60413299  0.00510674  -0.00342660  1
  O  O377  1  0.66411335  0.03380751  0.49923946  1
  O  O378  1  0.61290204  0.48889012  -0.00779273  1
  O  O379  1  0.60837936  0.51612465  0.49631709  1
  O  O380  1  0.38004592  0.37255287  0.11358670  1
  O  O381  1  0.36950200  0.37439851  0.64275530  1
  O  O382  1  0.36609743  0.87465982  0.12125810  1
  O  O383  1  0.36290043  0.86854477  0.61056920  1
  O  O384  1  0.86689306  0.37452268  0.12657136  1
  O  O385  1  0.88042574  0.36707367  0.61258828  1
  O  O386  1  0.85037040  0.84091292  0.19204967  1
  O  O387  1  0.88367480  0.85489621  0.61937112  1
  O  O388  1  0.15058089  0.12497515  0.39863232  1
  O  O389  1  0.13390446  0.13900889  0.86058973  1
  O  O390  1  0.13619852  0.63137370  0.38745956  1
  O  O391  1  0.12559759  0.62857364  0.89252310  1
  O  O392  1  0.60261229  0.12322971  0.35627905  1
  O  O393  1  0.61825847  0.13513002  0.88232190  1
  O  O394  1  0.62725195  0.63424381  0.38511826  1
  O  O395  1  0.59260583  0.65927709  0.85634610  1
