# generated using pymatgen
data_V35Zn35O128
_symmetry_space_group_name_H-M   'P 1'
_cell_length_a   16.91980134
_cell_length_b   16.93124025
_cell_length_c   16.90782022
_cell_angle_alpha   89.99367409
_cell_angle_beta   89.83904999
_cell_angle_gamma   89.67762727
_symmetry_Int_Tables_number   1
_chemical_formula_structural   V35Zn35O128
_chemical_formula_sum   'V70 Zn70 O256'
_cell_volume   4843.54192722
_cell_formula_units_Z   2
loop_
 _symmetry_equiv_pos_site_id
 _symmetry_equiv_pos_as_xyz
  1  'x, y, z'
loop_
 _atom_site_type_symbol
 _atom_site_label
 _atom_site_symmetry_multiplicity
 _atom_site_fract_x
 _atom_site_fract_y
 _atom_site_fract_z
 _atom_site_occupancy
  V  V0  1  -0.00063968  0.49972681  0.50165585  1
  V  V1  1  0.62378351  0.74954070  0.37248981  1
  V  V2  1  0.37337191  0.85752579  0.50418440  1
  V  V3  1  0.87153876  0.49507469  0.37408639  1
  V  V4  1  0.12547678  0.25172257  0.36647543  1
  V  V5  1  0.65527115  0.25357584  0.87567348  1
  V  V6  1  -0.00336378  0.37310694  0.37037136  1
  V  V7  1  0.12774987  0.88311008  0.27651977  1
  V  V8  1  0.38515334  0.38187358  0.49251643  1
  V  V9  1  0.38660867  0.50507952  0.35930419  1
  V  V10  1  0.75804939  0.63298427  0.87868744  1
  V  V11  1  0.36212821  0.27123426  0.10197313  1
  V  V12  1  0.11883048  0.50759030  0.62092857  1
  V  V13  1  -0.00935594  0.91862218  0.37745735  1
  V  V14  1  -0.01938665  0.63932594  0.62859526  1
  V  V15  1  0.13019238  0.00104608  0.60375065  1
  V  V16  1  0.13987106  0.38316920  0.24411799  1
  V  V17  1  0.23867912  0.61231284  0.39163007  1
  V  V18  1  0.75579761  0.50646893  0.23496862  1
  V  V19  1  0.74054211  0.38081335  0.63447618  1
  V  V20  1  0.24852139  0.24336786  0.50122960  1
  V  V21  1  0.11864853  0.74089089  0.85086992  1
  V  V22  1  0.62287796  0.63492227  -0.00298036  1
  V  V23  1  0.00166359  0.11403749  0.61959098  1
  V  V24  1  0.87582504  -0.00085021  0.86791699  1
  V  V25  1  0.37183891  0.87264449  0.00038180  1
  V  V26  1  -0.00057780  0.86551934  0.84597473  1
  V  V27  1  0.36591093  0.12638422  0.73334142  1
  V  V28  1  0.38854309  0.15348102  0.25564186  1
  V  V29  1  0.78175469  0.03582649  0.25459834  1
  V  V30  1  0.61455781  0.00955142  0.64920494  1
  V  V31  1  0.50562667  0.00777423  0.50474256  1
  V  V32  1  0.24481895  0.85538175  0.61994112  1
  V  V33  1  0.77146897  0.86746868  0.12865153  1
  V  V34  1  0.89022083  0.64357308  0.25298506  1
  V  V35  1  0.88061959  0.37537309  0.00420386  1
  V  V36  1  0.49802619  0.73708167  0.24045610  1
  V  V37  1  0.00777508  0.62661283  0.11083466  1
  V  V38  1  0.74280245  0.49736215  0.75719109  1
  V  V39  1  0.61306425  0.50729260  0.11931254  1
  V  V40  1  0.00737682  0.36287561  0.87668367  1
  V  V41  1  0.23767470  0.74072825  -0.00098993  1
  V  V42  1  0.37330412  -0.00240951  0.36853658  1
  V  V43  1  0.49952872  0.87072443  0.37648187  1
  V  V44  1  0.24636131  0.12209896  0.36531015  1
  V  V45  1  0.75783941  0.37061280  0.11973123  1
  V  V46  1  0.25435086  0.49929618  0.76524361  1
  V  V47  1  0.13744952  0.50635895  0.11703309  1
  V  V48  1  0.37558423  0.73457050  0.12172174  1
  V  V49  1  0.74997850  0.62751450  0.37131901  1
  V  V50  1  0.63089444  0.61957322  0.51722416  1
  V  V51  1  0.87026305  0.91059468  0.49902540  1
  V  V52  1  0.65143706  0.12114371  -0.00216652  1
  V  V53  1  0.00704143  -0.02789505  0.01249015  1
  V  V54  1  0.73938218  0.88427654  0.63940756  1
  V  V55  1  0.63129986  0.75694930  0.86068869  1
  V  V56  1  0.76130884  0.76182722  0.49503321  1
  V  V57  1  0.49330296  0.49426923  -0.02711670  1
  V  V58  1  0.11048873  0.36030218  0.74366346  1
  V  V59  1  0.88708137  0.25122589  0.63700004  1
  V  V60  1  0.37034207  0.00065468  0.87086526  1
  V  V61  1  -0.02247276  0.24969894  0.24799138  1
  V  V62  1  -0.00202169  0.13495379  0.11191552  1
  V  V63  1  0.24664493  0.37130274  0.61621435  1
  V  V64  1  0.72651809  0.24209616  0.50540435  1
  V  V65  1  0.87009247  0.36412297  0.50016606  1
  V  V66  1  0.62317894  0.36900090  0.25349444  1
  V  V67  1  0.23628325  -0.01189158  0.74900631  1
  V  V68  1  0.62363456  0.88573984  0.23676596  1
  V  V69  1  0.88936832  0.50590107  0.87386257  1
  Zn  Zn70  1  0.50435956  0.13525406  0.12165251  1
  Zn  Zn71  1  0.50578621  0.87705794  0.86658452  1
  Zn  Zn72  1  0.50223197  0.75051604  0.74051690  1
  Zn  Zn73  1  0.50638604  0.24288994  0.75088759  1
  Zn  Zn74  1  0.48495405  0.62030791  0.62626766  1
  Zn  Zn75  1  0.51058614  -0.00007868  0.00562552  1
  Zn  Zn76  1  0.20479935  0.16101286  0.14382831  1
  Zn  Zn77  1  0.14379204  0.14699726  0.74104293  1
  Zn  Zn78  1  0.18118629  0.70179816  0.18655459  1
  Zn  Zn79  1  0.30739710  0.67362861  0.68837528  1
  Zn  Zn80  1  0.68577410  0.19011381  0.17388290  1
  Zn  Zn81  1  0.68980750  0.18841756  0.69524935  1
  Zn  Zn82  1  0.69097466  0.69180399  0.18233472  1
  Zn  Zn83  1  0.72599319  0.69476460  0.69133108  1
  Zn  Zn84  1  0.31308732  0.31944758  0.31846187  1
  Zn  Zn85  1  0.27877164  0.30112551  0.80861934  1
  Zn  Zn86  1  0.31709716  0.80616424  0.31246888  1
  Zn  Zn87  1  0.30015717  0.81722176  0.82167550  1
  Zn  Zn88  1  0.80440313  0.20805854  0.32984707  1
  Zn  Zn89  1  0.82174134  0.31683826  0.81569284  1
  Zn  Zn90  1  0.81503900  0.82827526  0.31325624  1
  Zn  Zn91  1  0.82487050  0.80938939  0.80706511  1
  Zn  Zn92  1  0.18768470  0.44057243  0.43275951  1
  Zn  Zn93  1  0.18260597  0.56747238  0.93516495  1
  Zn  Zn94  1  0.19550532  0.92632692  0.42916159  1
  Zn  Zn95  1  0.17820045  0.92884809  0.93334024  1
  Zn  Zn96  1  0.68703405  0.43233167  0.43825075  1
  Zn  Zn97  1  0.68819784  0.44047799  0.93866033  1
  Zn  Zn98  1  0.68737728  0.94867452  0.42476777  1
  Zn  Zn99  1  0.69701007  0.93713473  0.94360487  1
  Zn  Zn100  1  0.37065227  0.06618554  0.06633824  1
  Zn  Zn101  1  0.31184086  0.05205785  0.55685086  1
  Zn  Zn102  1  0.31848875  0.55679247  0.06320718  1
  Zn  Zn103  1  0.30673728  0.55810158  0.55370125  1
  Zn  Zn104  1  0.82561215  0.04529161  0.06685701  1
  Zn  Zn105  1  0.79548598  0.07901417  0.59774737  1
  Zn  Zn106  1  0.83077375  0.58307869  0.05195079  1
  Zn  Zn107  1  0.80663670  0.55970549  0.56221894  1
  Zn  Zn108  1  0.43643542  0.43184639  0.18179277  1
  Zn  Zn109  1  0.43417819  0.42460024  0.68538181  1
  Zn  Zn110  1  0.43984514  0.93117186  0.18387008  1
  Zn  Zn111  1  0.43444539  0.93031019  0.68797907  1
  Zn  Zn112  1  0.94433795  0.44716838  0.18533975  1
  Zn  Zn113  1  0.93097070  0.44040225  0.69019132  1
  Zn  Zn114  1  0.94318303  0.94837898  0.19247117  1
  Zn  Zn115  1  0.93522071  0.93773047  0.67988514  1
  Zn  Zn116  1  0.08292947  0.08057749  0.26644923  1
  Zn  Zn117  1  0.01510428  0.08785770  0.83179998  1
  Zn  Zn118  1  0.06497285  0.55928688  0.31153119  1
  Zn  Zn119  1  0.06269645  0.56486147  0.79745520  1
  Zn  Zn120  1  0.55605336  0.06020133  0.31389187  1
  Zn  Zn121  1  0.55359237  0.07480725  0.82284366  1
  Zn  Zn122  1  0.56586301  0.55443788  0.31271888  1
  Zn  Zn123  1  0.53803639  0.53408281  0.77152474  1
  Zn  Zn124  1  0.42946534  0.18647284  0.44833624  1
  Zn  Zn125  1  0.41187002  0.18730375  0.93583165  1
  Zn  Zn126  1  0.44044040  0.66915175  0.44338432  1
  Zn  Zn127  1  0.44530145  0.68773846  0.92879271  1
  Zn  Zn128  1  0.94879645  0.10731780  0.44025554  1
  Zn  Zn129  1  0.92687778  0.18890797  0.94290388  1
  Zn  Zn130  1  0.93643423  0.68118085  0.44388782  1
  Zn  Zn131  1  0.94032581  0.69701326  0.94297054  1
  Zn  Zn132  1  0.06381135  0.31974598  0.06691804  1
  Zn  Zn133  1  0.06354322  0.30865699  0.55328102  1
  Zn  Zn134  1  0.06744542  0.80716467  0.09964673  1
  Zn  Zn135  1  0.05260898  0.82016219  0.55708546  1
  Zn  Zn136  1  0.54763684  0.29969699  0.03838915  1
  Zn  Zn137  1  0.55355408  0.31967962  0.58789072  1
  Zn  Zn138  1  0.55751993  0.81662661  0.05704015  1
  Zn  Zn139  1  0.56560267  0.80900124  0.56740441  1
  O  O140  1  0.10064364  0.12333120  0.15680535  1
  O  O141  1  0.13125003  0.10239653  0.62422927  1
  O  O142  1  0.11807732  0.61807511  0.13914561  1
  O  O143  1  0.10927996  0.60495483  0.61778541  1
  O  O144  1  0.61971937  0.13401535  0.10100641  1
  O  O145  1  0.61692812  0.10845460  0.63693993  1
  O  O146  1  0.63575867  0.61677984  0.10975099  1
  O  O147  1  0.65635140  0.63639140  0.61321153  1
  O  O148  1  0.37310317  0.39009315  0.38473936  1
  O  O149  1  0.36315559  0.35554569  0.88059096  1
  O  O150  1  0.38259246  0.87549416  0.38276076  1
  O  O151  1  0.37832837  0.87341526  0.88403873  1
  O  O152  1  0.87957548  0.38397377  0.38256172  1
  O  O153  1  0.88789984  0.38490090  0.88344959  1
  O  O154  1  0.88332921  0.89047157  0.38357740  1
  O  O155  1  0.89176548  0.87171655  0.87170239  1
  O  O156  1  0.25860397  0.01867774  0.38639202  1
  O  O157  1  0.25475046  -0.02912602  0.85532810  1
  O  O158  1  0.26438697  0.50673824  0.38087794  1
  O  O159  1  0.23619332  0.49451743  0.86444495  1
  O  O160  1  0.73610367  0.00554446  0.34147500  1
  O  O161  1  0.77732950  -0.00688726  0.88373814  1
  O  O162  1  0.75666781  0.51054872  0.36475600  1
  O  O163  1  0.76164025  0.50002939  0.86931625  1
  O  O164  1  0.23778623  0.51609060  0.13111137  1
  O  O165  1  0.22947005  0.48515104  0.61120211  1
  O  O166  1  0.24484384  0.99213538  0.13590108  1
  O  O167  1  0.24280429  0.98469751  0.62475797  1
  O  O168  1  0.76114813  0.51472618  0.13147414  1
  O  O169  1  0.76303392  0.49117891  0.64381842  1
  O  O170  1  0.76227602  0.99609302  0.15740384  1
  O  O171  1  0.72485936  0.99119333  0.62109039  1
  O  O172  1  0.00170258  0.37163277  0.25717369  1
  O  O173  1  0.00468942  0.37412086  0.75535632  1
  O  O174  1  0.00414513  0.88891239  0.27543786  1
  O  O175  1  -0.00017509  0.86704894  0.74629437  1
  O  O176  1  0.52564934  0.38570391  0.23565776  1
  O  O177  1  0.43616714  0.34670442  0.85826278  1
  O  O178  1  0.50656302  0.86471471  0.25845869  1
  O  O179  1  0.48906345  0.86004537  0.75427503  1
  O  O180  1  0.48810697  0.12306635  0.24849901  1
  O  O181  1  0.47059955  0.13236780  0.76097483  1
  O  O182  1  0.50578566  0.63987361  0.25399186  1
  O  O183  1  0.50934925  0.63789843  0.74007573  1
  O  O184  1  0.98888363  0.14929706  0.26108402  1
  O  O185  1  1.01977007  0.13367578  0.72076973  1
  O  O186  1  0.98815931  0.63282926  0.27642237  1
  O  O187  1  0.99517695  0.62351731  0.72699882  1
  O  O188  1  0.34927485  0.25566730  0.00280620  1
  O  O189  1  0.35643192  0.26467725  0.48737777  1
  O  O190  1  0.37998412  0.75210129  0.00696839  1
  O  O191  1  0.38507667  0.76000333  0.49125591  1
  O  O192  1  0.87445475  0.27571122  -0.00438955  1
  O  O193  1  0.86105272  0.26230015  0.51017158  1
  O  O194  1  0.85465929  0.69123628  0.01304907  1
  O  O195  1  0.86210232  0.75741830  0.48622038  1
  O  O196  1  0.13697298  0.25753483  0.47917803  1
  O  O197  1  0.14208916  0.25146538  1.00397281  1
  O  O198  1  0.09144248  0.74455350  0.46178958  1
  O  O199  1  0.14152218  0.75212400  1.02159702  1
  O  O200  1  0.62828591  0.25801163  0.52840546  1
  O  O201  1  0.62950365  0.23813180  0.98644125  1
  O  O202  1  0.63503107  0.74678263  0.48458668  1
  O  O203  1  0.62154696  0.73681756  1.00155922  1
  O  O204  1  0.47463058  0.25108875  0.10928692  1
  O  O205  1  0.48650542  0.32313175  0.67766478  1
  O  O206  1  0.49591970  0.75033473  0.13479733  1
  O  O207  1  0.50014194  0.74186476  0.62675938  1
  O  O208  1  1.00039530  0.24971127  0.14007783  1
  O  O209  1  0.98900943  0.25294552  0.61970269  1
  O  O210  1  1.00283894  0.72384620  0.13865863  1
  O  O211  1  0.99735698  0.73660984  0.60681659  1
  O  O212  1  0.00649641  0.26363457  0.36602253  1
  O  O213  1  -0.00438298  0.26489663  0.87550225  1
  O  O214  1  0.03848385  0.73515437  0.40759484  1
  O  O215  1  0.00397041  0.75533675  0.87143638  1
  O  O216  1  0.54056656  0.21478887  0.38718340  1
  O  O217  1  0.46929602  0.26578675  0.86653982  1
  O  O218  1  0.50554353  0.75337307  0.36600900  1
  O  O219  1  0.52390725  0.74995035  0.86726989  1
  O  O220  1  0.25995852  0.13859656  0.48778108  1
  O  O221  1  0.25249803  0.06688984  1.08373168  1
  O  O222  1  0.24750308  0.63391532  0.48926759  1
  O  O223  1  0.25651912  0.63658649  0.99438983  1
  O  O224  1  0.74247409  0.14402039  0.51839496  1
  O  O225  1  0.75062665  0.11587742  1.00611275  1
  O  O226  1  0.75038495  0.64245066  0.48746578  1
  O  O227  1  0.73425877  0.60726376  0.98256809  1
  O  O228  1  0.18973553  0.29055895  -0.04645545  1
  O  O229  1  0.24855358  0.36693540  0.50238411  1
  O  O230  1  0.26366059  0.85291546  -0.00872436  1
  O  O231  1  0.26435954  0.86782298  0.50343430  1
  O  O232  1  0.76547593  0.39045808  0.01273870  1
  O  O233  1  0.75614825  0.37974084  0.51594902  1
  O  O234  1  0.75573811  0.89890738  0.03370714  1
  O  O235  1  0.76041792  0.87409566  0.48093807  1
  O  O236  1  0.12561330  0.48556314  0.25041398  1
  O  O237  1  0.12674790  0.48728750  0.73239892  1
  O  O238  1  0.12947566  0.97825472  0.24659040  1
  O  O239  1  0.13848020  0.98122469  0.73385624  1
  O  O240  1  0.63809312  0.50963236  0.23238301  1
  O  O241  1  0.64498317  0.48949663  0.76434059  1
  O  O242  1  0.60949054  0.98450627  0.24870361  1
  O  O243  1  0.60501833  0.99934853  0.74785378  1
  O  O244  1  0.37702838  -0.01216311  0.26790602  1
  O  O245  1  0.36827196  0.00187740  0.75659992  1
  O  O246  1  0.38011066  0.49614809  0.25977326  1
  O  O247  1  0.35204916  0.47585576  0.75102789  1
  O  O248  1  0.87999636  0.01615973  0.26326125  1
  O  O249  1  0.88707216  -0.00595001  0.76617673  1
  O  O250  1  0.87158589  0.50616502  0.26189509  1
  O  O251  1  0.86659474  0.49341186  0.76802954  1
  O  O252  1  0.11551678  0.37456625  0.36566929  1
  O  O253  1  0.10957324  0.37775676  0.85542824  1
  O  O254  1  0.09439526  0.88199864  0.38539022  1
  O  O255  1  0.10759248  0.85444883  0.87557221  1
  O  O256  1  0.63239708  0.38938053  0.35263570  1
  O  O257  1  0.63952728  0.35378490  0.88336282  1
  O  O258  1  0.61621078  0.86590611  0.36627930  1
  O  O259  1  0.63602598  0.85790917  0.88785193  1
  O  O260  1  0.37258593  0.15326059  0.15185945  1
  O  O261  1  0.36896116  0.11615945  0.63340782  1
  O  O262  1  0.38404251  0.63668597  0.12175501  1
  O  O263  1  0.37232715  0.62501526  0.61161417  1
  O  O264  1  0.89749749  0.12395406  0.12143469  1
  O  O265  1  0.89502812  0.13781156  0.61706902  1
  O  O266  1  0.89626709  0.61520587  0.14978308  1
  O  O267  1  0.88053049  0.62599937  0.61502043  1
  O  O268  1  0.26481112  0.25345845  0.13861304  1
  O  O269  1  0.23751219  0.26060339  0.60435909  1
  O  O270  1  0.26853450  0.74370919  0.11445924  1
  O  O271  1  0.25039179  0.75788008  0.62881319  1
  O  O272  1  0.75365367  0.27350218  0.12231352  1
  O  O273  1  0.75937074  0.26785052  0.62454206  1
  O  O274  1  0.75131239  0.76743917  0.12696469  1
  O  O275  1  0.74399234  0.77462586  0.59765276  1
  O  O276  1  0.24415737  0.24174587  0.37820645  1
  O  O277  1  0.21915651  0.24394361  0.89688361  1
  O  O278  1  0.24524927  0.71471830  0.33910220  1
  O  O279  1  0.22554084  0.75111379  0.88664600  1
  O  O280  1  0.73617254  0.25980036  0.40485912  1
  O  O281  1  0.75515424  0.24240627  0.87008944  1
  O  O282  1  0.74251948  0.74779828  0.37561161  1
  O  O283  1  0.75214422  0.73743873  0.87644549  1
  O  O284  1  0.01189999  0.14643565  0.01335089  1
  O  O285  1  0.02154038  0.13416612  0.51927533  1
  O  O286  1  0.00699558  0.62682101  0.01136235  1
  O  O287  1  -0.00749941  0.60425512  0.50760892  1
  O  O288  1  0.46475570  0.11431534  0.00436008  1
  O  O289  1  0.48810843  0.10620775  0.50339379  1
  O  O290  1  0.51830699  0.61502866  -0.01438178  1
  O  O291  1  0.52620087  0.62897932  0.51032818  1
  O  O292  1  0.48145019  0.36091004  0.50521406  1
  O  O293  1  0.50746711  0.39703362  0.99863793  1
  O  O294  1  0.49374647  0.87569876  0.48976790  1
  O  O295  1  0.48869239  0.87983005  0.99050222  1
  O  O296  1  0.98887402  0.37807178  0.48917974  1
  O  O297  1  0.99507986  0.37680252  0.98901760  1
  O  O298  1  0.97756554  0.88823848  0.49282495  1
  O  O299  1  1.00838196  0.87275912  1.02970890  1
  O  O300  1  0.48759539  0.50730087  0.37686697  1
  O  O301  1  0.50408100  0.49780981  0.87312595  1
  O  O302  1  0.49297835  0.98862940  0.38374473  1
  O  O303  1  0.47804703  0.99717097  0.87572230  1
  O  O304  1  0.99034699  0.49106267  0.38108486  1
  O  O305  1  0.99183392  0.49644431  0.86527464  1
  O  O306  1  1.00204702  1.01723124  0.37949889  1
  O  O307  1  0.99912448  0.96860291  0.88316943  1
  O  O308  1  0.00117287  0.01214106  0.11359212  1
  O  O309  1  0.01346839  0.00404930  0.62083243  1
  O  O310  1  0.01784618  0.51604840  0.13587193  1
  O  O311  1  0.00330423  0.49587499  0.61764845  1
  O  O312  1  0.46860756  0.01440443  0.11560975  1
  O  O313  1  0.50853505  -0.01321391  0.61242682  1
  O  O314  1  0.51445592  0.50678768  0.12454973  1
  O  O315  1  0.50543167  0.50968800  0.66308677  1
  O  O316  1  0.23777421  0.37485053  0.25470528  1
  O  O317  1  0.23248986  0.37889901  0.73370480  1
  O  O318  1  0.22394440  0.87224114  0.31630256  1
  O  O319  1  0.26413769  0.87698375  0.72738505  1
  O  O320  1  0.74591515  0.39484877  0.23058626  1
  O  O321  1  0.75857367  0.38176001  0.74214521  1
  O  O322  1  0.73057872  0.87095596  0.24547964  1
  O  O323  1  0.75148258  0.87927971  0.73634248  1
  O  O324  1  0.27068282  0.12892182  0.26481049  1
  O  O325  1  0.25314905  0.09371181  0.74307544  1
  O  O326  1  0.24641930  0.65755925  0.27482495  1
  O  O327  1  0.24233693  0.59665401  0.74020000  1
  O  O328  1  0.75804450  0.13881062  0.24562549  1
  O  O329  1  0.77426218  0.11661510  0.70620547  1
  O  O330  1  0.76143273  0.62534041  0.25661659  1
  O  O331  1  0.74725592  0.60771042  0.76997303  1
  O  O332  1  0.37344078  0.11815215  0.36818076  1
  O  O333  1  0.35438415  0.10093141  0.87430083  1
  O  O334  1  0.36698588  0.61003687  0.38059794  1
  O  O335  1  0.36734143  0.66463126  0.84374801  1
  O  O336  1  0.85792125  0.13035829  0.38922909  1
  O  O337  1  0.90842554  0.10421165  0.87154625  1
  O  O338  1  0.86651895  0.61761806  0.37195087  1
  O  O339  1  0.86805524  0.61384832  0.87777364  1
  O  O340  1  0.12340765  0.39028684  0.13628001  1
  O  O341  1  0.12329592  0.37589055  0.62924738  1
  O  O342  1  0.20619203  0.93787481  0.10499350  1
  O  O343  1  0.13878358  0.87597134  0.60751282  1
  O  O344  1  0.64541412  0.40003344  0.12255530  1
  O  O345  1  0.64338661  0.38637088  0.62859740  1
  O  O346  1  0.61994064  0.87344229  0.13612569  1
  O  O347  1  0.63397478  0.88268657  0.62251641  1
  O  O348  1  0.11849217  0.26818325  0.26026914  1
  O  O349  1  0.12966475  0.26303277  0.74319435  1
  O  O350  1  0.13016618  0.80958449  0.19963853  1
  O  O351  1  0.12840997  0.74511215  0.75635674  1
  O  O352  1  0.63550135  0.27011965  0.24018209  1
  O  O353  1  0.62180708  0.23747398  0.77219320  1
  O  O354  1  0.61440930  0.75479918  0.25419253  1
  O  O355  1  0.64288588  0.75192114  0.76117734  1
  O  O356  1  0.39369241  0.25108317  0.27507457  1
  O  O357  1  0.33916390  0.22251990  0.75386615  1
  O  O358  1  0.38755927  0.75835376  0.23450768  1
  O  O359  1  0.36705495  0.72170756  0.78396845  1
  O  O360  1  0.88007620  0.26440406  0.25823448  1
  O  O361  1  0.87816531  0.25519983  0.73546022  1
  O  O362  1  0.87377441  0.74103401  0.26474062  1
  O  O363  1  0.82761573  0.73576998  0.72514098  1
  O  O364  1  0.37768659  0.48423655  0.49968680  1
  O  O365  1  0.39576050  0.51414906  0.99431956  1
  O  O366  1  0.38464764  0.98606939  0.48959322  1
  O  O367  1  0.35596530  0.97946409  0.98300916  1
  O  O368  1  0.87577505  0.49111020  0.49052374  1
  O  O369  1  0.87742023  0.49359919  0.98310525  1
  O  O370  1  0.86359704  1.00885746  0.50307350  1
  O  O371  1  0.90200050  0.99992640  0.98915950  1
  O  O372  1  0.10415307  -0.00430603  -0.01062417  1
  O  O373  1  0.13651800  -0.00295638  0.50492185  1
  O  O374  1  0.13133225  0.50374947  0.01742676  1
  O  O375  1  0.10842608  0.48264134  0.50987737  1
  O  O376  1  0.62355252  0.01832242  -0.01213814  1
  O  O377  1  0.60666285  -0.00185775  0.49007715  1
  O  O378  1  0.61709384  0.50814818  0.00635146  1
  O  O379  1  0.64890846  0.52186671  0.49993967  1
  O  O380  1  0.36841725  0.37171239  0.11870962  1
  O  O381  1  0.34922994  0.37782022  0.61064781  1
  O  O382  1  0.37953010  0.86544920  0.10625716  1
  O  O383  1  0.36715143  0.87475236  0.60809243  1
  O  O384  1  0.87221102  0.38901392  0.11380734  1
  O  O385  1  0.87466272  0.36731414  0.61743548  1
  O  O386  1  0.87059890  0.87251815  0.14827734  1
  O  O387  1  0.85447706  0.89211225  0.60616945  1
  O  O388  1  0.14124118  0.13332952  0.35706371  1
  O  O389  1  0.12110137  0.10903222  0.84584605  1
  O  O390  1  0.13826971  0.59999190  0.38457133  1
  O  O391  1  0.11218765  0.63494191  0.87364236  1
  O  O392  1  0.59085491  0.15844334  0.38097701  1
  O  O393  1  0.62231098  0.13659249  0.89001525  1
  O  O394  1  0.63652885  0.63224339  0.37496220  1
  O  O395  1  0.64047959  0.64146201  0.88370938  1
