# generated using pymatgen
data_V35Zn35O128
_symmetry_space_group_name_H-M   'P 1'
_cell_length_a   16.93862608
_cell_length_b   16.92039833
_cell_length_c   16.91169815
_cell_angle_alpha   90.01042313
_cell_angle_beta   90.19947945
_cell_angle_gamma   89.66020479
_symmetry_Int_Tables_number   1
_chemical_formula_structural   V35Zn35O128
_chemical_formula_sum   'V70 Zn70 O256'
_cell_volume   4846.91838637
_cell_formula_units_Z   2
loop_
 _symmetry_equiv_pos_site_id
 _symmetry_equiv_pos_as_xyz
  1  'x, y, z'
loop_
 _atom_site_type_symbol
 _atom_site_label
 _atom_site_symmetry_multiplicity
 _atom_site_fract_x
 _atom_site_fract_y
 _atom_site_fract_z
 _atom_site_occupancy
  V  V0  1  0.24898821  0.87110299  0.63190249  1
  V  V1  1  0.13308975  -0.00160119  0.12700340  1
  V  V2  1  0.23633164  0.37662465  0.62595736  1
  V  V3  1  0.13525838  0.87459676  0.24516112  1
  V  V4  1  -0.01946263  0.11654822  0.64334295  1
  V  V5  1  0.29998851  0.67125842  0.82636280  1
  V  V6  1  0.62810053  0.00167942  0.13353127  1
  V  V7  1  0.24385987  0.23965962  0.50088366  1
  V  V8  1  0.00230161  0.61770884  0.12215929  1
  V  V9  1  0.86666811  0.01166382  0.86843087  1
  V  V10  1  0.65612856  0.89571626  0.70984454  1
  V  V11  1  0.37038230  0.23487495  0.62682818  1
  V  V12  1  0.10665898  0.87308987  0.75466047  1
  V  V13  1  0.88501145  0.75554889  0.62615663  1
  V  V14  1  0.74809226  0.49956797  0.73867849  1
  V  V15  1  0.49474711  0.24685602  0.75866976  1
  V  V16  1  0.87981038  0.49223415  0.37888472  1
  V  V17  1  0.11762142  0.25110940  0.36642081  1
  V  V18  1  0.63247776  0.78022180  0.36721615  1
  V  V19  1  0.13226164  0.61421252  -0.00276475  1
  V  V20  1  0.50709016  0.86122908  0.87206591  1
  V  V21  1  0.74542362  0.62894197  0.37136855  1
  V  V22  1  0.10879199  0.11007088  0.50013604  1
  V  V23  1  0.37607567  -0.01305934  0.36747912  1
  V  V24  1  0.37518852  0.74651754  0.13266401  1
  V  V25  1  0.13219059  0.23037152  0.88503252  1
  V  V26  1  0.24799122  0.11417579  0.36825554  1
  V  V27  1  -0.01394199  0.49451728  -0.00961939  1
  V  V28  1  0.50238569  0.00365578  -0.00514580  1
  V  V29  1  0.35763266  0.11529317  0.74865410  1
  V  V30  1  0.01174189  0.61828621  0.62231015  1
  V  V31  1  0.62280751  0.26475461  0.39914220  1
  V  V32  1  0.25146269  0.49222233  0.77654882  1
  V  V33  1  0.87313267  0.61978638  0.24934147  1
  V  V34  1  0.76329774  0.36475856  0.11724186  1
  V  V35  1  0.11138101  0.75049647  0.86981602  1
  V  V36  1  0.88379343  0.87335898  -0.00956392  1
  V  V37  1  0.36185728  0.00748207  0.87748280  1
  V  V38  1  0.49950991  0.02120341  0.50390770  1
  V  V39  1  0.73838527  0.75186639  -0.00924195  1
  V  V40  1  0.87778761  0.75105857  0.12401297  1
  V  V41  1  0.24940920  0.75237608  0.00460426  1
  V  V42  1  0.75092101  0.76120555  0.50358859  1
  V  V43  1  0.51374810  0.62164659  0.12083023  1
  V  V44  1  0.37469655  0.37796132  -0.00921294  1
  V  V45  1  0.74746087  0.88009445  0.13137423  1
  V  V46  1  -0.00696553  0.12603124  0.12955733  1
  V  V47  1  0.11555927  0.36813152  0.76157865  1
  V  V48  1  0.00578691  0.88299690  0.37572091  1
  V  V49  1  0.50928338  0.75919031  0.25701995  1
  V  V50  1  0.25624449  0.23879098  0.01757873  1
  V  V51  1  0.00467793  0.00294990  -0.00284095  1
  V  V52  1  0.88034858  0.27328005  0.62918978  1
  V  V53  1  0.23854334  0.74643645  0.48513158  1
  V  V54  1  0.37101630  0.87509645  0.00441075  1
  V  V55  1  0.87996258  0.88894955  0.49935650  1
  V  V56  1  0.62230130  0.38351715  0.22907212  1
  V  V57  1  0.37802105  0.13128892  0.24747134  1
  V  V58  1  0.62476080  0.26132179  0.87252129  1
  V  V59  1  0.25132444  0.50048683  0.25192972  1
  V  V60  1  0.38157046  0.37140527  0.49438022  1
  V  V61  1  0.88511778  0.63178487  0.75654304  1
  V  V62  1  0.86536668  0.00597704  0.35807330  1
  V  V63  1  0.73541354  0.63098328  0.87101808  1
  V  V64  1  0.11950440  0.62170229  0.48196004  1
  V  V65  1  0.73195818  0.13100816  0.36622065  1
  V  V66  1  -0.00965046  0.25920701  0.25095732  1
  V  V67  1  0.00488023  0.74980270  0.25642829  1
  V  V68  1  0.64220238  0.12170509  -0.01526017  1
  V  V69  1  0.38133405  0.86437119  0.50754850  1
  Zn  Zn70  1  -0.00338807  0.36716395  0.88456928  1
  Zn  Zn71  1  0.12460246  0.00102043  0.63514809  1
  Zn  Zn72  1  -0.04580125  0.44260665  0.53286576  1
  Zn  Zn73  1  0.49985378  0.26273565  0.25503284  1
  Zn  Zn74  1  0.49492350  0.13088780  0.12170519  1
  Zn  Zn75  1  0.85706148  0.13177463  0.23731977  1
  Zn  Zn76  1  0.18247232  0.17883068  0.18692060  1
  Zn  Zn77  1  0.17817763  0.18508128  0.69209051  1
  Zn  Zn78  1  0.18448707  0.69018441  0.18158981  1
  Zn  Zn79  1  0.33308545  0.69826992  0.64784845  1
  Zn  Zn80  1  0.66706038  0.20105250  0.18567164  1
  Zn  Zn81  1  0.70883005  0.21595832  0.71888450  1
  Zn  Zn82  1  0.69199501  0.69765506  0.18363711  1
  Zn  Zn83  1  0.69094748  0.71061037  0.69730089  1
  Zn  Zn84  1  0.30609080  0.30771137  0.31298205  1
  Zn  Zn85  1  0.30865198  0.30782678  0.82023231  1
  Zn  Zn86  1  0.31418377  0.80921237  0.31440267  1
  Zn  Zn87  1  0.35814168  0.84342120  0.78138690  1
  Zn  Zn88  1  0.79733618  0.31413561  0.30435909  1
  Zn  Zn89  1  0.81461235  0.30873592  0.80984769  1
  Zn  Zn90  1  0.81912956  0.81592954  0.31228356  1
  Zn  Zn91  1  0.81162851  0.82083478  0.80888133  1
  Zn  Zn92  1  0.13076282  0.41418722  0.46548254  1
  Zn  Zn93  1  0.18742175  0.42080715  0.95135367  1
  Zn  Zn94  1  0.19002860  0.93359517  0.43703909  1
  Zn  Zn95  1  0.18429861  0.93306408  0.93644126  1
  Zn  Zn96  1  0.64998411  0.47242716  0.39197191  1
  Zn  Zn97  1  0.69311971  0.44291849  0.92941579  1
  Zn  Zn98  1  0.71332300  0.98759975  0.48163785  1
  Zn  Zn99  1  0.68775706  0.93345618  0.93296976  1
  Zn  Zn100  1  0.31103540  0.06328078  0.06360353  1
  Zn  Zn101  1  0.30908429  0.04992159  0.55943391  1
  Zn  Zn102  1  0.32042131  0.56053471  0.06174298  1
  Zn  Zn103  1  0.30370270  0.55515079  0.55012072  1
  Zn  Zn104  1  0.81422548  0.06070802  0.05726016  1
  Zn  Zn105  1  0.78207930  0.16304922  0.55547527  1
  Zn  Zn106  1  0.80561019  0.56031766  0.05701611  1
  Zn  Zn107  1  0.81135017  0.57390488  0.55803898  1
  Zn  Zn108  1  0.45995164  0.41764389  0.14046467  1
  Zn  Zn109  1  0.42063769  0.42473673  0.68568783  1
  Zn  Zn110  1  0.44058572  0.93833188  0.18483168  1
  Zn  Zn111  1  0.47869896  0.96112530  0.70476732  1
  Zn  Zn112  1  0.93152890  0.43644301  0.18219596  1
  Zn  Zn113  1  0.93280019  0.44588363  0.70264026  1
  Zn  Zn114  1  0.94085379  0.93568381  0.18411947  1
  Zn  Zn115  1  0.93772110  0.94493556  0.68481330  1
  Zn  Zn116  1  0.06013015  0.06063719  0.30838888  1
  Zn  Zn117  1  0.06323443  0.05709460  0.81385711  1
  Zn  Zn118  1  0.05830541  0.55553260  0.31184586  1
  Zn  Zn119  1  0.06855074  0.55845367  0.81162556  1
  Zn  Zn120  1  0.55769245  0.05091480  0.31846566  1
  Zn  Zn121  1  0.55621182  0.06479051  0.80765029  1
  Zn  Zn122  1  0.58747977  0.58423894  0.26251220  1
  Zn  Zn123  1  0.57319381  0.55899034  0.80879485  1
  Zn  Zn124  1  0.43490515  0.19264065  0.42718642  1
  Zn  Zn125  1  0.43319327  0.19048393  0.93978376  1
  Zn  Zn126  1  0.46249224  0.70936953  0.46230519  1
  Zn  Zn127  1  0.44384940  0.68255786  0.94813804  1
  Zn  Zn128  1  0.92955967  0.19100954  0.43922824  1
  Zn  Zn129  1  0.94558598  0.18400777  0.92811726  1
  Zn  Zn130  1  0.93717727  0.68853664  0.43788854  1
  Zn  Zn131  1  0.94070315  0.68538744  0.94069388  1
  Zn  Zn132  1  0.07066567  0.31121295  0.06648680  1
  Zn  Zn133  1  0.06023521  0.29220125  0.56958213  1
  Zn  Zn134  1  0.06536955  0.81064617  0.06246882  1
  Zn  Zn135  1  0.06603787  0.80881297  0.56509384  1
  Zn  Zn136  1  0.56639320  0.29880702  0.06322004  1
  Zn  Zn137  1  0.54743210  0.28670030  0.55994598  1
  Zn  Zn138  1  0.55840281  0.81606341  0.06402022  1
  Zn  Zn139  1  0.59240297  0.87471679  0.53090734  1
  O  O140  1  0.11054408  0.10448286  0.13200993  1
  O  O141  1  0.11920810  0.12404485  0.60995287  1
  O  O142  1  0.11186507  0.63519881  0.10869737  1
  O  O143  1  0.10866459  0.62391402  0.62284255  1
  O  O144  1  0.63477775  0.10491883  0.10794111  1
  O  O145  1  0.69963984  0.09241884  0.62545973  1
  O  O146  1  0.61734172  0.62126446  0.14893807  1
  O  O147  1  0.62051323  0.63671790  0.63665640  1
  O  O148  1  0.37390397  0.34675833  0.39525272  1
  O  O149  1  0.38072972  0.36277337  0.89051482  1
  O  O150  1  0.36924298  0.88263306  0.38529980  1
  O  O151  1  0.38038117  0.88700986  0.89023855  1
  O  O152  1  0.85452070  0.39670519  0.36411933  1
  O  O153  1  0.87678006  0.33419173  0.90700716  1
  O  O154  1  0.88494688  0.88448304  0.37734294  1
  O  O155  1  0.87959582  0.87345195  0.88944082  1
  O  O156  1  0.26324958  0.00503088  0.38149854  1
  O  O157  1  0.26375125  -0.00480875  0.88320675  1
  O  O158  1  0.25350947  0.50635035  0.35573023  1
  O  O159  1  0.25338981  0.48156327  0.87434903  1
  O  O160  1  0.76296592  0.00057628  0.36524984  1
  O  O161  1  0.76913328  -0.00722822  0.88562283  1
  O  O162  1  0.75416175  0.52557087  0.38224554  1
  O  O163  1  0.74819882  0.52662430  0.87122812  1
  O  O164  1  0.25717243  0.50575425  0.14662382  1
  O  O165  1  0.23778951  0.47521367  0.61773679  1
  O  O166  1  0.23152898  0.99965354  0.11673274  1
  O  O167  1  0.23840906  0.97738211  0.61231010  1
  O  O168  1  0.74430516  0.48327340  0.10706039  1
  O  O169  1  0.75719954  0.51763440  0.63876189  1
  O  O170  1  0.74447508  0.98729067  0.11891724  1
  O  O171  1  0.73813787  1.05905288  0.68728441  1
  O  O172  1  -0.00348292  0.35741990  0.24124246  1
  O  O173  1  0.01231579  0.38298142  0.75930208  1
  O  O174  1  0.00393164  0.86734796  0.25694598  1
  O  O175  1  0.00911098  0.86912880  0.74620849  1
  O  O176  1  0.51342788  0.37679458  0.23430328  1
  O  O177  1  0.47900112  0.34650910  0.74494455  1
  O  O178  1  0.49439411  0.85926154  0.24764828  1
  O  O179  1  0.47131113  0.86760407  0.77027752  1
  O  O180  1  0.48129349  0.11758684  0.25729478  1
  O  O181  1  0.47760737  0.13305715  0.75418577  1
  O  O182  1  0.49625745  0.65116992  0.24066519  1
  O  O183  1  0.48795717  0.57041758  0.72656853  1
  O  O184  1  0.99267322  0.12471161  0.23794467  1
  O  O185  1  1.00148180  0.12073244  0.74215937  1
  O  O186  1  0.99531477  0.63143647  0.24094834  1
  O  O187  1  0.99139665  0.62466552  0.74108273  1
  O  O188  1  0.36505010  0.25308227  0.00531013  1
  O  O189  1  0.36035200  0.24456667  0.50858915  1
  O  O190  1  0.36767213  0.75753480  0.00818441  1
  O  O191  1  0.36276767  0.75845379  0.49382899  1
  O  O192  1  0.87059684  0.27592062  -0.03869215  1
  O  O193  1  0.86876271  0.23732233  0.52140010  1
  O  O194  1  0.87700468  0.75956553  0.00813170  1
  O  O195  1  0.86980426  0.76123949  0.50451897  1
  O  O196  1  0.12759005  0.22918094  0.48652731  1
  O  O197  1  0.14089287  0.25284341  0.99479061  1
  O  O198  1  0.13261146  0.74687468  0.49563214  1
  O  O199  1  0.13422572  0.74838336  0.99360154  1
  O  O200  1  0.62192010  0.23250979  0.49652139  1
  O  O201  1  0.62155280  0.23296626  0.98116130  1
  O  O202  1  0.64485905  0.77615537  0.48482930  1
  O  O203  1  0.64121541  0.75877858  1.00405383  1
  O  O204  1  0.54798606  0.22605231  0.15210617  1
  O  O205  1  0.47616043  0.23848223  0.63495037  1
  O  O206  1  0.49346726  0.75047944  0.13308576  1
  O  O207  1  0.56047099  0.68016250  0.60454367  1
  O  O208  1  1.00821319  0.23335001  0.13546716  1
  O  O209  1  0.98615388  0.22755950  0.62222023  1
  O  O210  1  0.99159298  0.74367119  0.12968459  1
  O  O211  1  0.98911402  0.74228494  0.62173489  1
  O  O212  1  0.00782234  0.24086753  0.36381430  1
  O  O213  1  0.02381986  0.25388953  0.89186844  1
  O  O214  1  -0.00961705  0.76269055  0.36183572  1
  O  O215  1  0.01303102  0.75395541  0.88457689  1
  O  O216  1  0.51902653  0.24902689  0.37307836  1
  O  O217  1  0.50775341  0.24307361  0.86692034  1
  O  O218  1  0.52167625  0.75211212  0.36866318  1
  O  O219  1  0.49605306  0.76310528  0.88656850  1
  O  O220  1  0.24374143  0.12617397  0.49122871  1
  O  O221  1  0.25689127  0.13790497  0.99998069  1
  O  O222  1  0.23254375  0.63787182  0.50204901  1
  O  O223  1  0.23706554  0.63102400  1.01045617  1
  O  O224  1  0.74514687  0.09985254  0.47060827  1
  O  O225  1  0.74066231  0.12135582  0.99436791  1
  O  O226  1  0.75666281  0.65129770  0.48295166  1
  O  O227  1  0.75728033  0.64267759  0.98523132  1
  O  O228  1  0.26428168  0.35823311  0.00379158  1
  O  O229  1  0.22986900  0.35192224  0.51348192  1
  O  O230  1  0.25678037  0.86198270  -0.00320915  1
  O  O231  1  0.25343713  0.86266596  0.50029974  1
  O  O232  1  0.74517517  0.39168502  0.01319306  1
  O  O233  1  0.66495137  0.40558523  0.58072771  1
  O  O234  1  0.76376588  0.86502096  0.00443639  1
  O  O235  1  0.77126384  0.87342176  0.49038600  1
  O  O236  1  0.14479972  0.50013106  0.25592930  1
  O  O237  1  0.13762770  0.48094184  0.75697313  1
  O  O238  1  0.12096614  0.98633891  0.23844151  1
  O  O239  1  0.12389036  0.97748203  0.75667831  1
  O  O240  1  0.62220647  0.47916142  0.27836377  1
  O  O241  1  0.64734245  0.49765345  0.75155718  1
  O  O242  1  0.61878353  1.00376174  0.23174833  1
  O  O243  1  0.59248936  0.97733283  0.74144827  1
  O  O244  1  0.37668280  -0.00323116  0.26385405  1
  O  O245  1  0.37865041  0.00619541  0.76538857  1
  O  O246  1  0.35405173  0.51192698  0.25745449  1
  O  O247  1  0.34686363  0.48799833  0.74411082  1
  O  O248  1  0.87630342  0.00017997  0.25569574  1
  O  O249  1  0.88373004  -0.01057528  0.77187293  1
  O  O250  1  0.87652342  0.51532484  0.25404147  1
  O  O251  1  0.86795354  0.52899573  0.75161874  1
  O  O252  1  0.13329139  0.34908579  0.36995076  1
  O  O253  1  0.12487724  0.36700215  0.86836100  1
  O  O254  1  0.11244243  0.88351665  0.36099730  1
  O  O255  1  0.12921126  0.86223909  0.86578924  1
  O  O256  1  0.63717311  0.36301462  0.41408940  1
  O  O257  1  0.62547372  0.35976164  0.88090041  1
  O  O258  1  0.63313013  0.87532705  0.36207565  1
  O  O259  1  0.60671697  0.87764161  0.87519252  1
  O  O260  1  0.37740881  0.11105927  0.14404200  1
  O  O261  1  0.36177628  0.12039916  0.63813879  1
  O  O262  1  0.38637186  0.64405561  0.11507076  1
  O  O263  1  0.38133748  0.61677215  0.59824930  1
  O  O264  1  0.88677920  0.11864785  0.12413232  1
  O  O265  1  0.88188470  0.11188346  0.63149007  1
  O  O266  1  0.87871347  0.63436441  0.12816423  1
  O  O267  1  0.88010982  0.64340986  0.62946250  1
  O  O268  1  0.24349189  0.24209541  0.11852829  1
  O  O269  1  0.25203867  0.24251528  0.61815220  1
  O  O270  1  0.26393953  0.74635995  0.11914211  1
  O  O271  1  0.25013068  0.76454112  0.60755660  1
  O  O272  1  0.73749363  0.26510080  0.11990537  1
  O  O273  1  0.77031157  0.25060676  0.63252678  1
  O  O274  1  0.75952306  0.75801372  0.11164085  1
  O  O275  1  0.76207445  0.75210581  0.60732648  1
  O  O276  1  0.23744216  0.23393541  0.37934981  1
  O  O277  1  0.23809415  0.24822160  0.88589779  1
  O  O278  1  0.25045166  0.74832205  0.38523889  1
  O  O279  1  0.24377541  0.73685898  0.88689311  1
  O  O280  1  0.73937752  0.23716673  0.38039275  1
  O  O281  1  0.72346381  0.24441441  0.83911258  1
  O  O282  1  0.74549883  0.75418079  0.37688384  1
  O  O283  1  0.75283551  0.75137020  0.88462140  1
  O  O284  1  -0.00418261  0.11026628  0.01342027  1
  O  O285  1  0.00893358  0.12083277  0.49583167  1
  O  O286  1  0.00812432  0.61425610  0.00398757  1
  O  O287  1  0.00928874  0.63381806  0.51032821  1
  O  O288  1  0.50351755  0.11487520  0.00266065  1
  O  O289  1  0.49290425  0.12028822  0.49906333  1
  O  O290  1  0.51647147  0.63881933  0.02054556  1
  O  O291  1  0.53645461  0.65042911  0.53654036  1
  O  O292  1  0.48002830  0.36973316  0.51943444  1
  O  O293  1  0.47628361  0.36394789  1.03392402  1
  O  O294  1  0.48285032  0.85178473  0.50833274  1
  O  O295  1  0.49285736  0.88337611  0.99257562  1
  O  O296  1  1.03162196  0.37335396  0.49901641  1
  O  O297  1  1.00769770  0.39327245  1.00659589  1
  O  O298  1  0.99509261  0.86706602  0.48233386  1
  O  O299  1  0.98827120  0.88311756  1.01061411  1
  O  O300  1  0.50466103  0.55319974  0.39941329  1
  O  O301  1  0.52979140  0.50471798  0.91016443  1
  O  O302  1  0.48097389  1.00032484  0.38603279  1
  O  O303  1  0.48922215  0.99366672  0.88561617  1
  O  O304  1  0.98089960  0.49607827  0.36889422  1
  O  O305  1  1.00285977  0.49563980  0.88666101  1
  O  O306  1  0.98984516  0.98687314  0.36766612  1
  O  O307  1  0.99409894  1.00268422  0.89419181  1
  O  O308  1  0.00388986  0.00551461  0.11739508  1
  O  O309  1  0.00760052  0.01171526  0.62452354  1
  O  O310  1  -0.00731597  0.51300936  0.11724116  1
  O  O311  1  -0.01297927  0.51677932  0.62242681  1
  O  O312  1  0.51438812  -0.00349361  0.11329433  1
  O  O313  1  0.49082127  -0.00274778  0.60140149  1
  O  O314  1  0.49106322  0.52551979  0.13460045  1
  O  O315  1  0.49589174  0.51999256  0.66946030  1
  O  O316  1  0.25540450  0.39727604  0.25234005  1
  O  O317  1  0.24158778  0.37525116  0.74339010  1
  O  O318  1  0.23308055  0.86730727  0.25433654  1
  O  O319  1  0.25712791  0.86876279  0.73365284  1
  O  O320  1  0.73948353  0.38098650  0.22882496  1
  O  O321  1  0.77769951  0.40428033  0.75815446  1
  O  O322  1  0.75576960  0.86653636  0.22940557  1
  O  O323  1  0.74870321  0.89372644  0.75089049  1
  O  O324  1  0.25967701  0.12407131  0.25999032  1
  O  O325  1  0.25784564  0.12027438  0.75225826  1
  O  O326  1  0.23759149  0.60725806  0.24593223  1
  O  O327  1  0.24335433  0.60439713  0.77181470  1
  O  O328  1  0.74426516  0.13393226  0.25851172  1
  O  O329  1  0.73791665  0.10375973  0.75182529  1
  O  O330  1  0.76421619  0.64312903  0.25986789  1
  O  O331  1  0.75833489  0.63494511  0.75922788  1
  O  O332  1  0.36547874  0.11443183  0.36712238  1
  O  O333  1  0.37291059  0.11225646  0.87094533  1
  O  O334  1  0.44445877  0.59327406  0.43064285  1
  O  O335  1  0.36790356  0.62563708  0.88453166  1
  O  O336  1  0.87121981  0.11251279  0.36879381  1
  O  O337  1  0.87550125  0.11162671  0.88050480  1
  O  O338  1  0.87004130  0.62374587  0.36566494  1
  O  O339  1  0.87384695  0.64645120  0.85762521  1
  O  O340  1  0.12793696  0.37857679  0.13248206  1
  O  O341  1  0.13245215  0.35239278  0.64520479  1
  O  O342  1  0.11846181  0.88287541  0.13635445  1
  O  O343  1  0.13076680  0.86832643  0.64074322  1
  O  O344  1  0.62599994  0.38231251  0.12702860  1
  O  O345  1  0.62556689  0.36495732  0.62752143  1
  O  O346  1  0.63944493  0.88561453  0.11521962  1
  O  O347  1  0.66691152  0.91060391  0.60858301  1
  O  O348  1  0.11292758  0.23514792  0.26131374  1
  O  O349  1  0.13053740  0.25804227  0.76833993  1
  O  O350  1  0.11450294  0.76190385  0.23996207  1
  O  O351  1  0.12429950  0.75579291  0.76832237  1
  O  O352  1  0.63327910  0.28397199  0.27460754  1
  O  O353  1  0.60060142  0.24159161  0.75317645  1
  O  O354  1  0.61941192  0.75904964  0.25556239  1
  O  O355  1  0.62238649  0.79951300  0.71728317  1
  O  O356  1  0.37777227  0.23496930  0.25598920  1
  O  O357  1  0.36950393  0.23250070  0.74773112  1
  O  O358  1  0.37957640  0.75526870  0.23743083  1
  O  O359  1  0.35276119  0.72903084  0.75791852  1
  O  O360  1  0.88723447  0.24644926  0.26079855  1
  O  O361  1  0.88451558  0.26340894  0.73164285  1
  O  O362  1  0.88502414  0.74566376  0.23954596  1
  O  O363  1  0.86843134  0.75151775  0.73175835  1
  O  O364  1  0.35193083  0.46702415  0.49708086  1
  O  O365  1  0.36819667  0.48022148  1.00191604  1
  O  O366  1  0.38324765  0.98635090  0.49161305  1
  O  O367  1  0.38110468  0.99637195  0.99559424  1
  O  O368  1  0.87251468  0.50709516  0.48536444  1
  O  O369  1  0.88782767  0.50779801  0.99411335  1
  O  O370  1  0.87743827  0.98744126  0.48590130  1
  O  O371  1  0.88461638  0.98723652  0.99634806  1
  O  O372  1  0.11054041  -0.01500805  0.01121793  1
  O  O373  1  0.12540608  0.00920082  0.49589507  1
  O  O374  1  0.12620424  0.51312525  -0.00448351  1
  O  O375  1  0.13216183  0.52236845  0.49054947  1
  O  O376  1  0.61919940  0.00676105  -0.00173887  1
  O  O377  1  0.59788288  -0.01406613  0.48343005  1
  O  O378  1  0.58168461  0.49544944  -0.03501322  1
  O  O379  1  0.55279802  0.51517907  0.45126022  1
  O  O380  1  0.35821237  0.37547948  0.12357593  1
  O  O381  1  0.35104442  0.35568048  0.61721492  1
  O  O382  1  0.38136723  0.86725704  0.11156605  1
  O  O383  1  0.36110185  0.87655180  0.61011777  1
  O  O384  1  0.86405578  0.36709809  0.12626624  1
  O  O385  1  0.89521222  0.37536307  0.61683786  1
  O  O386  1  0.86703647  0.86892750  0.11668124  1
  O  O387  1  0.88912421  0.86897872  0.60860557  1
  O  O388  1  0.12997114  0.12041413  0.38112379  1
  O  O389  1  0.12474565  0.13071186  0.87597880  1
  O  O390  1  0.10532342  0.63333372  0.38314159  1
  O  O391  1  0.11847651  0.63538657  0.88968252  1
  O  O392  1  0.63034697  0.12793789  0.36395696  1
  O  O393  1  0.62393089  0.11867372  0.88302115  1
  O  O394  1  0.64452683  0.63765877  0.35901524  1
  O  O395  1  0.63609951  0.64031229  0.86260805  1
