# generated using pymatgen
data_V35Zn35O128
_symmetry_space_group_name_H-M   'P 1'
_cell_length_a   16.88708704
_cell_length_b   16.90468702
_cell_length_c   16.92517301
_cell_angle_alpha   89.64966936
_cell_angle_beta   89.87748416
_cell_angle_gamma   90.13600580
_symmetry_Int_Tables_number   1
_chemical_formula_structural   V35Zn35O128
_chemical_formula_sum   'V70 Zn70 O256'
_cell_volume   4831.52959996
_cell_formula_units_Z   2
loop_
 _symmetry_equiv_pos_site_id
 _symmetry_equiv_pos_as_xyz
  1  'x, y, z'
loop_
 _atom_site_type_symbol
 _atom_site_label
 _atom_site_symmetry_multiplicity
 _atom_site_fract_x
 _atom_site_fract_y
 _atom_site_fract_z
 _atom_site_occupancy
  V  V0  1  0.73593661  0.37450245  0.10352904  1
  V  V1  1  0.24488584  0.37258094  0.11505365  1
  V  V2  1  0.36870653  0.61823352  0.25889761  1
  V  V3  1  0.12130068  0.48551208  0.63055055  1
  V  V4  1  0.86194539  0.12233852  0.26381876  1
  V  V5  1  0.01600192  -0.00452399  0.48707610  1
  V  V6  1  0.86087155  0.75003535  0.11956537  1
  V  V7  1  0.62509905  0.87199322  0.75402796  1
  V  V8  1  0.14142506  0.24271246  0.37412747  1
  V  V9  1  -0.01313816  0.25003599  0.24983544  1
  V  V10  1  0.37472117  0.74875956  0.62341643  1
  V  V11  1  0.24168160  0.73539844  0.49422605  1
  V  V12  1  0.87718408  0.88010892  0.47790793  1
  V  V13  1  0.51048189  0.86819753  0.37209986  1
  V  V14  1  0.38130032  0.00208787  0.88208124  1
  V  V15  1  0.62282338  0.62436189  0.00707715  1
  V  V16  1  0.36382308  0.75563432  0.12087633  1
  V  V17  1  -0.00931267  0.37609878  0.38657696  1
  V  V18  1  0.64187338  0.11394192  0.47947523  1
  V  V19  1  0.11489130  0.37654938  0.24769225  1
  V  V20  1  0.24312146  0.50519840  0.25637997  1
  V  V21  1  0.49769881  0.26576031  0.77482135  1
  V  V22  1  0.24232073  0.88773422  0.61567338  1
  V  V23  1  0.49857243  -0.00405214  0.49726293  1
  V  V24  1  0.50313069  0.10467073  0.13786082  1
  V  V25  1  -0.00041444  0.88324759  0.87587044  1
  V  V26  1  0.37225618  0.87164840  0.48897837  1
  V  V27  1  0.03326695  0.11716324  0.61594712  1
  V  V28  1  0.86960537  0.63972465  0.75046022  1
  V  V29  1  0.13430657  0.87882577  0.23778026  1
  V  V30  1  0.87903120  0.11451811  0.73584636  1
  V  V31  1  0.12365260  0.74170954  0.37247853  1
  V  V32  1  0.62099158  0.60944601  0.50189462  1
  V  V33  1  0.63588871  -0.02247340  0.12731348  1
  V  V34  1  0.87338895  0.49104822  0.87371297  1
  V  V35  1  0.86639460  0.25527748  0.10099445  1
  V  V36  1  0.12343793  0.26873906  0.87092257  1
  V  V37  1  0.24971072  0.76108485  -0.02231583  1
  V  V38  1  -0.00285712  0.47552474  -0.00319849  1
  V  V39  1  0.75248640  0.74919274  0.50850153  1
  V  V40  1  0.37415606  0.12118230  0.26683136  1
  V  V41  1  0.74792493  0.63347167  0.88120434  1
  V  V42  1  0.73613373  0.38165307  0.63409194  1
  V  V43  1  0.49754237  0.87395923  0.88929680  1
  V  V44  1  0.75134019  -0.01991102  0.25674862  1
  V  V45  1  0.50524096  0.74491078  0.25116144  1
  V  V46  1  0.38217753  0.24772967  0.12838681  1
  V  V47  1  0.01085242  0.63504104  0.61679938  1
  V  V48  1  0.62566770  0.00120603  0.62462253  1
  V  V49  1  0.49549313  0.75340166  0.75134809  1
  V  V50  1  0.50188592  0.61121631  0.62814341  1
  V  V51  1  0.61456618  0.27266921  0.37528445  1
  V  V52  1  -0.00640157  0.76063209  0.24861344  1
  V  V53  1  0.01555425  0.00969175  0.00474944  1
  V  V54  1  -0.00705726  0.62887461  0.12411116  1
  V  V55  1  0.25732077  -0.00130204  0.25204671  1
  V  V56  1  0.49708310  0.61394351  0.12136038  1
  V  V57  1  0.75934213  0.87428224  0.63292125  1
  V  V58  1  0.24578983  0.11539996  0.84865145  1
  V  V59  1  0.12144770  0.50188643  0.11673781  1
  V  V60  1  0.24836562  0.21368523  0.01371057  1
  V  V61  1  0.12276638  0.63634302  -0.01597440  1
  V  V62  1  0.00698321  0.75584826  0.75058960  1
  V  V63  1  0.76992814  0.61845896  0.37356406  1
  V  V64  1  0.75652849  0.12227848  0.87699053  1
  V  V65  1  0.62030537  0.13738066  0.00734886  1
  V  V66  1  0.23196384  0.54473530  0.75893046  1
  V  V67  1  0.75714800  0.48638858  0.24934595  1
  V  V68  1  0.86463334  0.88951594  -0.00072303  1
  V  V69  1  0.13129882  0.89027153  0.75160390  1
  Zn  Zn70  1  0.76638923  0.25248730  0.50736955  1
  Zn  Zn71  1  0.42379504  0.19081693  0.64011732  1
  Zn  Zn72  1  0.62853844  0.74090504  0.37483885  1
  Zn  Zn73  1  0.73756785  0.76702901  -0.00457012  1
  Zn  Zn74  1  -0.00202558  0.12144203  0.12277483  1
  Zn  Zn75  1  0.42772028  0.42788930  -0.05400694  1
  Zn  Zn76  1  0.17128193  0.16880518  0.20573979  1
  Zn  Zn77  1  0.17349007  0.18873669  0.69195434  1
  Zn  Zn78  1  0.18019159  0.68658343  0.18348522  1
  Zn  Zn79  1  0.18392581  0.70487428  0.68629725  1
  Zn  Zn80  1  0.68429208  0.19961939  0.19595744  1
  Zn  Zn81  1  0.72924046  0.23440022  0.74312564  1
  Zn  Zn82  1  0.68610689  0.65892010  0.19743587  1
  Zn  Zn83  1  0.68310661  0.68965948  0.68763962  1
  Zn  Zn84  1  0.31582819  0.31812325  0.29844726  1
  Zn  Zn85  1  0.35048052  0.27779986  0.84121996  1
  Zn  Zn86  1  0.31086878  0.80537497  0.31065168  1
  Zn  Zn87  1  0.32389448  0.84036441  0.80333077  1
  Zn  Zn88  1  0.80492103  0.30643509  0.32780872  1
  Zn  Zn89  1  0.88369831  0.31535999  0.76429261  1
  Zn  Zn90  1  0.80692715  0.79936168  0.31091834  1
  Zn  Zn91  1  0.81616281  0.81799314  0.81686720  1
  Zn  Zn92  1  0.13535991  0.46452234  0.42534130  1
  Zn  Zn93  1  0.24201830  0.41446611  0.90369897  1
  Zn  Zn94  1  0.18434457  0.92484511  0.42092830  1
  Zn  Zn95  1  0.19035867  0.94168125  0.93865701  1
  Zn  Zn96  1  0.69759796  0.43101371  0.44369335  1
  Zn  Zn97  1  0.62950976  0.41782606  0.95242428  1
  Zn  Zn98  1  0.69147036  0.93104191  0.43697757  1
  Zn  Zn99  1  0.67804374  0.95292062  0.94122819  1
  Zn  Zn100  1  0.32296184  0.04061125  0.07328196  1
  Zn  Zn101  1  0.33494913  0.06884684  0.57301687  1
  Zn  Zn102  1  0.30548857  0.56970511  0.04768979  1
  Zn  Zn103  1  0.29822611  0.56701525  0.58515204  1
  Zn  Zn104  1  0.80624294  0.07181607  0.06684453  1
  Zn  Zn105  1  0.81716849  0.05722924  0.56287784  1
  Zn  Zn106  1  0.81159849  0.55440703  0.05920898  1
  Zn  Zn107  1  0.79855699  0.56777039  0.58002959  1
  Zn  Zn108  1  0.40676090  0.45750085  0.13426999  1
  Zn  Zn109  1  0.52654922  0.39377969  0.65698044  1
  Zn  Zn110  1  0.43166837  0.93250000  0.19457626  1
  Zn  Zn111  1  0.43511667  0.97424168  0.69534310  1
  Zn  Zn112  1  0.92451755  0.43443039  0.18312357  1
  Zn  Zn113  1  0.91306075  0.46738892  0.67248435  1
  Zn  Zn114  1  0.93170040  0.93852532  0.18185678  1
  Zn  Zn115  1  0.94537891  0.95057028  0.68493861  1
  Zn  Zn116  1  0.05885198  0.06183309  0.30863362  1
  Zn  Zn117  1  0.06097369  0.06398792  0.81000932  1
  Zn  Zn118  1  0.04347774  0.56537386  0.30875980  1
  Zn  Zn119  1  0.04550796  0.56055343  0.81347241  1
  Zn  Zn120  1  0.56467687  0.05325690  0.30692163  1
  Zn  Zn121  1  0.58358565  0.05744857  0.82375993  1
  Zn  Zn122  1  0.57187178  0.55179971  0.30408104  1
  Zn  Zn123  1  0.55809461  0.57527242  0.82081281  1
  Zn  Zn124  1  0.43818522  0.19006839  0.45185106  1
  Zn  Zn125  1  0.45060662  0.16632010  0.94201239  1
  Zn  Zn126  1  0.43647676  0.68096754  0.44018158  1
  Zn  Zn127  1  0.43463744  0.68941381  0.93858524  1
  Zn  Zn128  1  0.94284998  0.17981179  0.44013704  1
  Zn  Zn129  1  0.93375713  0.18958964  0.91249462  1
  Zn  Zn130  1  0.93687698  0.70026883  0.43945850  1
  Zn  Zn131  1  0.93653958  0.69851478  0.93718084  1
  Zn  Zn132  1  0.07633878  0.27725206  0.07337343  1
  Zn  Zn133  1  -0.05216352  0.30020450  0.57647770  1
  Zn  Zn134  1  0.06075054  0.81524622  0.05838445  1
  Zn  Zn135  1  0.05833989  0.81545507  0.56137279  1
  Zn  Zn136  1  0.55579402  0.32060197  0.06923882  1
  Zn  Zn137  1  0.61064731  0.23104747  0.61035075  1
  Zn  Zn138  1  0.56482834  0.79879500  0.06973151  1
  Zn  Zn139  1  0.56699350  0.81011012  0.56458733  1
  O  O140  1  0.10180299  0.16896463  0.11820643  1
  O  O141  1  0.13535288  0.11275656  0.62080036  1
  O  O142  1  0.11388280  0.61685461  0.11832780  1
  O  O143  1  0.11264926  0.64016916  0.62200105  1
  O  O144  1  0.60996554  0.12647105  0.13330609  1
  O  O145  1  0.62315216  0.10180195  0.61076707  1
  O  O146  1  0.61177547  0.62983284  0.11498095  1
  O  O147  1  0.61387201  0.62780547  0.61695261  1
  O  O148  1  0.39434570  0.39012347  0.35336005  1
  O  O149  1  0.34796049  0.38196391  0.88020009  1
  O  O150  1  0.38198031  0.86220092  0.38432449  1
  O  O151  1  0.39550450  0.86687619  0.89517268  1
  O  O152  1  0.89141488  0.37368985  0.37192284  1
  O  O153  1  0.87113689  0.39424539  0.85501539  1
  O  O154  1  0.87151418  0.87014495  0.37972449  1
  O  O155  1  0.88403248  0.87674841  0.88972509  1
  O  O156  1  0.25000214  -0.01165631  0.35550766  1
  O  O157  1  0.26010711  0.01278341  0.87883035  1
  O  O158  1  0.22846584  0.49760821  0.35399015  1
  O  O159  1  0.24738809  0.51629569  0.85402591  1
  O  O160  1  0.74522292  -0.00940379  0.35648765  1
  O  O161  1  0.69481436  0.03433118  0.86260851  1
  O  O162  1  0.74965726  0.51196061  0.36823284  1
  O  O163  1  0.77260206  0.52329508  0.87862764  1
  O  O164  1  0.23303860  0.49714575  0.12654367  1
  O  O165  1  0.23694661  0.50190349  0.65482787  1
  O  O166  1  0.26200574  0.98428990  0.14849253  1
  O  O167  1  0.25781146  0.98514463  0.60614172  1
  O  O168  1  0.75567101  0.48120815  0.13043567  1
  O  O169  1  0.79401995  0.47438345  0.64264317  1
  O  O170  1  0.74016363  0.99940919  0.13327089  1
  O  O171  1  0.73611078  0.98328974  0.61983644  1
  O  O172  1  0.00041770  0.37371263  0.25192832  1
  O  O173  1  -0.06835613  0.35815385  0.67045496  1
  O  O174  1  0.00645001  0.86433991  0.24104292  1
  O  O175  1  0.00885605  0.87501818  0.75200312  1
  O  O176  1  0.45944814  0.41870064  0.31593062  1
  O  O177  1  0.51492524  0.36596631  0.76954676  1
  O  O178  1  0.49161080  0.86014999  0.26570998  1
  O  O179  1  0.50887363  0.86524827  0.75422038  1
  O  O180  1  0.48736304  0.11813192  0.24819111  1
  O  O181  1  0.54672996  0.15507112  0.75509911  1
  O  O182  1  0.48732831  0.62628123  0.24350880  1
  O  O183  1  0.51022912  0.64175070  0.73714864  1
  O  O184  1  0.98205981  0.13336237  0.24498747  1
  O  O185  1  1.00288561  0.10573143  0.72208508  1
  O  O186  1  0.99886887  0.63755070  0.23262207  1
  O  O187  1  0.99592647  0.64737529  0.74980109  1
  O  O188  1  0.36102645  0.23103710  0.02177176  1
  O  O189  1  0.36638828  0.17585276  0.53890487  1
  O  O190  1  0.35902118  0.73829187  0.01046288  1
  O  O191  1  0.36190850  0.75111254  0.50148802  1
  O  O192  1  0.87870220  0.24988994  0.00360858  1
  O  O193  1  0.87946309  0.24415542  0.50536140  1
  O  O194  1  0.86763117  0.76222527  0.00893958  1
  O  O195  1  0.86291651  0.76544771  0.50099242  1
  O  O196  1  0.12671533  0.22722510  0.46790119  1
  O  O197  1  0.15153165  0.24838131  0.98505649  1
  O  O198  1  0.13098291  0.75575028  0.48515640  1
  O  O199  1  0.13460929  0.74491578  0.99825946  1
  O  O200  1  0.62051042  0.21553094  0.49276198  1
  O  O201  1  0.62020525  0.23541252  1.02123192  1
  O  O202  1  0.63831841  0.74322816  0.50106024  1
  O  O203  1  0.62893542  0.73557811  1.00012553  1
  O  O204  1  0.48295143  0.25242547  0.12997894  1
  O  O205  1  0.51212919  0.26979955  0.64408281  1
  O  O206  1  0.48935037  0.73970973  0.13587301  1
  O  O207  1  0.49079135  0.74946615  0.63068178  1
  O  O208  1  0.97474157  0.26416724  0.13693793  1
  O  O209  1  1.01858887  0.21616510  0.61223116  1
  O  O210  1  0.99275163  0.74623846  0.13093186  1
  O  O211  1  0.99876518  0.74985766  0.64006054  1
  O  O212  1  0.00588972  0.25689237  0.35936500  1
  O  O213  1  0.02504965  0.25461060  0.88502704  1
  O  O214  1  0.00309826  0.74617623  0.35576848  1
  O  O215  1  -0.00257044  0.76968313  0.86303012  1
  O  O216  1  0.51275870  0.25196280  0.39559538  1
  O  O217  1  0.47066825  0.25585046  0.87554493  1
  O  O218  1  0.49897743  0.75183414  0.36936009  1
  O  O219  1  0.49394685  0.75406693  0.85857643  1
  O  O220  1  0.26024076  0.27404654  0.55110553  1
  O  O221  1  0.24477258  0.11587216  1.02386995  1
  O  O222  1  0.24805643  0.63732724  0.50667683  1
  O  O223  1  0.23046366  0.63620807  0.99801700  1
  O  O224  1  0.74221362  0.11339429  0.49723651  1
  O  O225  1  0.72676765  0.11887540  0.99326334  1
  O  O226  1  0.74061536  0.62874429  0.50312576  1
  O  O227  1  0.74222963  0.62726689  0.99437745  1
  O  O228  1  0.24796251  0.38017238  0.01644750  1
  O  O229  1  0.30557802  0.41833909  0.50055204  1
  O  O230  1  0.24269825  0.85884098  -0.00170137  1
  O  O231  1  0.25345748  0.86488224  0.50169450  1
  O  O232  1  0.72764603  0.38222259  0.00407085  1
  O  O233  1  0.75394983  0.37539427  0.52755449  1
  O  O234  1  0.75932075  0.88301612  -0.01286217  1
  O  O235  1  0.75898231  0.86856548  0.51041140  1
  O  O236  1  0.12480686  0.49817898  0.23565004  1
  O  O237  1  0.12796226  0.52551162  0.74543326  1
  O  O238  1  0.13223571  0.98532873  0.24981032  1
  O  O239  1  0.12623043  0.98806828  0.74250582  1
  O  O240  1  0.66207536  0.53906769  0.23863936  1
  O  O241  1  0.63065215  0.48381095  0.78682612  1
  O  O242  1  0.63947979  0.99691729  0.23908394  1
  O  O243  1  0.60873964  0.98514167  0.73058129  1
  O  O244  1  0.37079496  0.00769473  0.25747134  1
  O  O245  1  0.36523580  -0.04462270  0.78269233  1
  O  O246  1  0.35458233  0.50941250  0.23714522  1
  O  O247  1  0.36039823  0.50457267  0.74208516  1
  O  O248  1  0.86168428  0.01185329  0.23866264  1
  O  O249  1  0.88467991  0.01439355  0.75880590  1
  O  O250  1  0.85818891  0.50732707  0.24280807  1
  O  O251  1  0.89743817  0.52884332  0.77145531  1
  O  O252  1  0.11694080  0.36267596  0.36115735  1
  O  O253  1  0.14075974  0.36795566  0.88174772  1
  O  O254  1  0.12245740  0.85328523  0.35390992  1
  O  O255  1  0.12226043  0.88268331  0.85783494  1
  O  O256  1  0.61670210  0.37453859  0.38647672  1
  O  O257  1  0.65260416  0.42612191  0.83116381  1
  O  O258  1  0.61345895  0.86113860  0.37904219  1
  O  O259  1  0.62086580  0.88207406  0.85769706  1
  O  O260  1  0.38907034  0.12393729  0.13814803  1
  O  O261  1  0.40631616  0.07884507  0.66278771  1
  O  O262  1  0.38539398  0.63099722  0.13050115  1
  O  O263  1  0.38906199  0.63535838  0.61693075  1
  O  O264  1  0.87362829  0.14441199  0.12742760  1
  O  O265  1  0.87273862  0.12513479  0.63443237  1
  O  O266  1  0.88139041  0.63953656  0.10992629  1
  O  O267  1  0.88260897  0.62297534  0.64594265  1
  O  O268  1  0.24772569  0.25289754  0.11721589  1
  O  O269  1  0.24087001  0.28681113  0.62035274  1
  O  O270  1  0.26258750  0.74452519  0.12752109  1
  O  O271  1  0.25440199  0.75700916  0.60846774  1
  O  O272  1  0.75725234  0.26002304  0.12325131  1
  O  O273  1  0.71999284  0.25969678  0.62180611  1
  O  O274  1  0.76119350  0.73838042  0.12961027  1
  O  O275  1  0.74697011  0.76256692  0.62046782  1
  O  O276  1  0.24149719  0.26470960  0.36478199  1
  O  O277  1  0.26649397  0.21515455  0.89591776  1
  O  O278  1  0.23943310  0.74538558  0.38431953  1
  O  O279  1  0.26469733  0.76176626  0.87965813  1
  O  O280  1  0.72737997  0.26198234  0.39710973  1
  O  O281  1  0.72933025  0.21862008  0.86612164  1
  O  O282  1  0.74852589  0.73630622  0.38981838  1
  O  O283  1  0.75851639  0.73866071  0.88015719  1
  O  O284  1  -0.00529289  0.10887169  -0.01042424  1
  O  O285  1  0.00773997  0.10531191  0.50213994  1
  O  O286  1  0.01006924  0.64064076  0.00967627  1
  O  O287  1  -0.00859188  0.64087799  0.51933485  1
  O  O288  1  0.49943364  0.12094819  0.03454575  1
  O  O289  1  0.51104874  0.09614523  0.49035730  1
  O  O290  1  0.50692899  0.63377773  0.01360418  1
  O  O291  1  0.51026429  0.62499577  0.51260233  1
  O  O292  1  0.47527875  0.40357341  0.48721871  1
  O  O293  1  0.52571779  0.38318191  0.98091632  1
  O  O294  1  0.49331065  0.86775158  0.48720848  1
  O  O295  1  0.52287298  0.86535145  0.98425674  1
  O  O296  1  1.00612463  0.35613545  0.48309982  1
  O  O297  1  1.00924308  0.37993984  1.00896389  1
  O  O298  1  0.98321399  0.87831473  0.50091700  1
  O  O299  1  0.99301676  0.88510122  0.99332512  1
  O  O300  1  0.48810684  0.48298324  0.35327121  1
  O  O301  1  0.46413900  0.53708344  0.87937027  1
  O  O302  1  0.50800864  0.97654179  0.38271409  1
  O  O303  1  0.49458659  0.98330471  0.87020195  1
  O  O304  1  1.02373201  0.48108578  0.38072882  1
  O  O305  1  0.99313994  0.49646611  0.89124846  1
  O  O306  1  1.00084376  1.00203294  0.38592504  1
  O  O307  1  1.00593066  0.99086608  0.88472838  1
  O  O308  1  -0.00289809  0.00244970  0.10994566  1
  O  O309  1  -0.00032454  0.00439079  0.60191848  1
  O  O310  1  -0.00164698  0.50644582  0.11316194  1
  O  O311  1  0.01254537  0.52641769  0.63764762  1
  O  O312  1  0.51291187  0.00058048  0.14298507  1
  O  O313  1  0.51595705  -0.02654801  0.60386129  1
  O  O314  1  0.50546467  0.51559264  0.13940133  1
  O  O315  1  0.49680495  0.51325729  0.63911953  1
  O  O316  1  0.23738561  0.38959544  0.23746404  1
  O  O317  1  0.36428922  0.43082567  0.74041630  1
  O  O318  1  0.24099621  0.87379264  0.25037289  1
  O  O319  1  0.23747630  0.86790629  0.72941873  1
  O  O320  1  0.74798611  0.38697580  0.25973474  1
  O  O321  1  0.77109261  0.34260125  0.72982895  1
  O  O322  1  0.75898228  0.88076491  0.24595030  1
  O  O323  1  0.73756990  0.86679208  0.74318759  1
  O  O324  1  0.26294525  0.10900055  0.24405946  1
  O  O325  1  0.25786056  0.12610662  0.75114801  1
  O  O326  1  0.25584127  0.61612413  0.24358265  1
  O  O327  1  0.25431108  0.64240321  0.75004228  1
  O  O328  1  0.76020464  0.12499468  0.24758441  1
  O  O329  1  0.77208052  0.12432546  0.75893318  1
  O  O330  1  0.76935152  0.64299969  0.27510222  1
  O  O331  1  0.76187406  0.63704051  0.75874524  1
  O  O332  1  0.37827427  0.13439281  0.36374838  1
  O  O333  1  0.38069880  0.10516830  0.86812150  1
  O  O334  1  0.37708512  0.62196774  0.35808514  1
  O  O335  1  0.40588632  0.59345010  0.87549831  1
  O  O336  1  0.87498858  0.12246458  0.36215961  1
  O  O337  1  0.85304791  0.10563804  0.90039638  1
  O  O338  1  0.86758092  0.62086533  0.39404343  1
  O  O339  1  0.87080959  0.63149938  0.86945388  1
  O  O340  1  0.12542338  0.38256884  0.12846176  1
  O  O341  1  0.10866368  0.39234102  0.64814022  1
  O  O342  1  0.12502308  0.86461292  0.13880360  1
  O  O343  1  0.13638342  0.87216538  0.62708262  1
  O  O344  1  0.64000613  0.36506920  0.13520682  1
  O  O345  1  0.64002450  0.40729587  0.64225999  1
  O  O346  1  0.62762097  0.87840498  0.12400172  1
  O  O347  1  0.63537784  0.87758443  0.63226349  1
  O  O348  1  0.10993363  0.27042080  0.24048647  1
  O  O349  1  0.14780608  0.25865440  0.77177549  1
  O  O350  1  0.11504822  0.75387144  0.25196034  1
  O  O351  1  0.11116300  0.76494856  0.75113268  1
  O  O352  1  0.62322309  0.25105224  0.27606283  1
  O  O353  1  0.60187654  0.21936135  0.76852353  1
  O  O354  1  0.60845704  0.73267271  0.25237710  1
  O  O355  1  0.61129500  0.76358546  0.74197498  1
  O  O356  1  0.36164361  0.22997405  0.23650227  1
  O  O357  1  0.39655353  0.24948017  0.73980227  1
  O  O358  1  0.37689473  0.73412345  0.24193406  1
  O  O359  1  0.38709679  0.76232441  0.73642064  1
  O  O360  1  0.87453507  0.24098482  0.25608518  1
  O  O361  1  0.90347311  0.20582692  0.79084421  1
  O  O362  1  0.88629800  0.75889073  0.23392412  1
  O  O363  1  0.88573327  0.74662037  0.75399553  1
  O  O364  1  0.33487056  0.48642464  0.49651566  1
  O  O365  1  0.38017441  0.49163366  1.02889281  1
  O  O366  1  0.39219431  0.98559021  0.50152793  1
  O  O367  1  0.37515303  0.99455991  0.98417351  1
  O  O368  1  0.86674361  0.50188378  0.48947928  1
  O  O369  1  0.88865007  0.49826960  0.99045911  1
  O  O370  1  0.87108353  0.98142115  0.49576272  1
  O  O371  1  0.87626642  0.98917813  1.01084953  1
  O  O372  1  0.11499987  -0.00124570  0.00137485  1
  O  O373  1  0.11460106  -0.02170221  0.49272114  1
  O  O374  1  0.10612468  0.51559020  0.00623909  1
  O  O375  1  0.14121176  0.49460448  0.53007601  1
  O  O376  1  0.62187864  0.00954924  0.02704184  1
  O  O377  1  0.62128257  -0.00471850  0.50347452  1
  O  O378  1  0.62182425  0.52580171  -0.00890231  1
  O  O379  1  0.63111589  0.51153206  0.50580539  1
  O  O380  1  0.36030083  0.35377499  0.14010865  1
  O  O381  1  0.44902212  0.37865713  0.55129689  1
  O  O382  1  0.38236714  0.85389100  0.12871236  1
  O  O383  1  0.36190842  0.86319522  0.60880606  1
  O  O384  1  0.85747608  0.36317259  0.12094833  1
  O  O385  1  0.92256729  0.46921364  0.52503855  1
  O  O386  1  0.87566847  0.86254407  0.10949648  1
  O  O387  1  0.85907619  0.88301676  0.63587722  1
  O  O388  1  0.13151156  0.14809207  0.32529052  1
  O  O389  1  0.14350005  0.12514795  0.86372364  1
  O  O390  1  0.11621645  0.64104273  0.36361216  1
  O  O391  1  0.11046660  0.62869820  0.88710320  1
  O  O392  1  0.63051206  0.10954748  0.37989825  1
  O  O393  1  0.57822242  0.13005540  0.91476828  1
  O  O394  1  0.62477941  0.62109110  0.39246931  1
  O  O395  1  0.64134778  0.62891051  0.87860853  1
