# generated using pymatgen
data_V35Zn35O128
_symmetry_space_group_name_H-M   'P 1'
_cell_length_a   16.85427645
_cell_length_b   16.84839243
_cell_length_c   16.88621263
_cell_angle_alpha   89.98273071
_cell_angle_beta   89.89832943
_cell_angle_gamma   89.87221513
_symmetry_Int_Tables_number   1
_chemical_formula_structural   V35Zn35O128
_chemical_formula_sum   'V70 Zn70 O256'
_cell_volume   4795.11528502
_cell_formula_units_Z   2
loop_
 _symmetry_equiv_pos_site_id
 _symmetry_equiv_pos_as_xyz
  1  'x, y, z'
loop_
 _atom_site_type_symbol
 _atom_site_label
 _atom_site_symmetry_multiplicity
 _atom_site_fract_x
 _atom_site_fract_y
 _atom_site_fract_z
 _atom_site_occupancy
  V  V0  1  -0.01677388  0.38544929  0.87976522  1
  V  V1  1  0.25222482  0.11950912  0.88996665  1
  V  V2  1  0.64157711  0.87168340  0.24242898  1
  V  V3  1  0.36654393  0.49832817  0.38209247  1
  V  V4  1  0.62274988  0.75101741  0.39002343  1
  V  V5  1  0.12244383  0.87244089  0.74550757  1
  V  V6  1  0.12543823  0.61844972  -0.00094993  1
  V  V7  1  0.26707704  0.12471548  0.37135209  1
  V  V8  1  0.37536350  0.86892955  0.00510261  1
  V  V9  1  0.25060535  -0.00249812  0.74177420  1
  V  V10  1  0.13274313  0.25995833  0.87962095  1
  V  V11  1  0.74677967  0.63207440  0.38232931  1
  V  V12  1  0.38461510  0.49843647  0.87517330  1
  V  V13  1  0.88438600  0.74249926  0.63975560  1
  V  V14  1  0.87477942  0.62779675  0.25053368  1
  V  V15  1  0.51717092  0.86616926  0.86302073  1
  V  V16  1  0.75207881  0.11470238  0.88025521  1
  V  V17  1  0.87793222  0.26489829  0.13653468  1
  V  V18  1  -0.01591581  0.11821477  0.15083686  1
  V  V19  1  0.72597685  0.38455965  0.12453940  1
  V  V20  1  0.86937119  0.88156474  -0.00506123  1
  V  V21  1  0.61987346  0.64275495  0.00562476  1
  V  V22  1  0.64570320  -0.00087102  0.12448235  1
  V  V23  1  0.12108720  -0.00880786  0.12640494  1
  V  V24  1  0.25453478  0.74248105  0.50906990  1
  V  V25  1  0.37970676  -0.00542283  0.87317885  1
  V  V26  1  0.38765191  0.63699520  0.73781466  1
  V  V27  1  0.24625414  0.48821087  0.74811689  1
  V  V28  1  -0.00351736  0.25740296  0.74926854  1
  V  V29  1  0.50426533  0.26304950  0.73819907  1
  V  V30  1  0.49235008  0.74221387  0.23673987  1
  V  V31  1  -0.01713944  0.49795814  0.00272586  1
  V  V32  1  0.01034776  0.62503346  0.63066796  1
  V  V33  1  0.11516327  0.74963639  0.86801301  1
  V  V34  1  0.85975492  0.75252606  0.11373447  1
  V  V35  1  0.13173238  0.72679833  0.37415143  1
  V  V36  1  0.52207355  0.50942634  0.49644516  1
  V  V37  1  0.86132557  -0.00072673  0.36368142  1
  V  V38  1  -0.00125604  0.27001465  0.26990724  1
  V  V39  1  0.35625176  0.62091093  0.24685221  1
  V  V40  1  0.25275619  0.62967060  0.86740364  1
  V  V41  1  0.15956780  0.41533012  0.23822496  1
  V  V42  1  0.25932238  0.35556770  0.61134547  1
  V  V43  1  0.38061696  0.13784083  0.21514545  1
  V  V44  1  0.12423884  0.13385420  0.48805741  1
  V  V45  1  0.00486405  0.63142466  0.12913429  1
  V  V46  1  0.50461454  0.37796536  0.89395875  1
  V  V47  1  0.51734412  0.11390750  0.62788993  1
  V  V48  1  0.50614843  0.00850278  0.48988509  1
  V  V49  1  0.62516400  0.25259499  0.88417030  1
  V  V50  1  -0.00482475  0.89473449  0.87412048  1
  V  V51  1  0.24930575  0.75748348  0.00704284  1
  V  V52  1  -0.00330170  -0.00550228  0.50266056  1
  V  V53  1  0.08996622  0.11791323  -0.00586381  1
  V  V54  1  0.01242863  0.86505323  0.36560855  1
  V  V55  1  0.37883529  0.12797798  0.74687546  1
  V  V56  1  0.75426738  0.24457150  0.51215211  1
  V  V57  1  0.48565810  0.87777265  0.37249516  1
  V  V58  1  0.51559993  0.36755408  0.36659731  1
  V  V59  1  0.75463222  0.60820258  0.88254904  1
  V  V60  1  -0.01910993  0.49314902  0.48798540  1
  V  V61  1  0.73828758  0.86184450  0.62456736  1
  V  V62  1  0.87306306  0.85861358  0.49950705  1
  V  V63  1  0.73602174  0.50471756  0.24343686  1
  V  V64  1  0.75556427  0.26095132  -0.00178983  1
  V  V65  1  0.12643249  -0.00144723  0.62176638  1
  V  V66  1  0.62384198  0.49619259  0.64504202  1
  V  V67  1  0.50398262  0.00332755  0.01317476  1
  V  V68  1  0.74550088  -0.00638276  0.73420039  1
  V  V69  1  0.13579208  0.49945061  0.60792366  1
  Zn  Zn70  1  -0.00276232  0.13405626  0.62475890  1
  Zn  Zn71  1  0.50144262  0.52016394  0.03599429  1
  Zn  Zn72  1  0.36655665  0.87524190  0.52625271  1
  Zn  Zn73  1  0.24830449  -0.00705122  0.24734919  1
  Zn  Zn74  1  0.87683635  0.11683519  0.75004180  1
  Zn  Zn75  1  0.33021904  0.26557166  0.07866266  1
  Zn  Zn76  1  0.20674792  0.22048610  0.23459920  1
  Zn  Zn77  1  0.18222471  0.18355072  0.69536261  1
  Zn  Zn78  1  0.18081975  0.69446626  0.19149195  1
  Zn  Zn79  1  0.19531120  0.68926802  0.68271260  1
  Zn  Zn80  1  0.68169151  0.18851380  0.16502731  1
  Zn  Zn81  1  0.68372201  0.18547609  0.70266795  1
  Zn  Zn82  1  0.68170739  0.69252071  0.18506620  1
  Zn  Zn83  1  0.70525428  0.66025056  0.66113536  1
  Zn  Zn84  1  0.32348063  0.31184792  0.32187185  1
  Zn  Zn85  1  0.33695572  0.28900490  0.86055431  1
  Zn  Zn86  1  0.30225486  0.80504354  0.31389719  1
  Zn  Zn87  1  0.31188292  0.81280871  0.80922332  1
  Zn  Zn88  1  0.80902712  0.32243127  0.31578796  1
  Zn  Zn89  1  0.81340585  0.32094410  0.81056516  1
  Zn  Zn90  1  0.81933962  0.80523594  0.31219468  1
  Zn  Zn91  1  0.81404168  0.81086105  0.80970621  1
  Zn  Zn92  1  0.18844302  0.41892004  0.43142718  1
  Zn  Zn93  1  0.20030398  0.44185019  0.94549238  1
  Zn  Zn94  1  0.19933998  0.93788494  0.43503233  1
  Zn  Zn95  1  0.18276205  0.94103942  0.93816668  1
  Zn  Zn96  1  0.69808373  0.43638004  0.42601860  1
  Zn  Zn97  1  0.67778971  0.44727508  0.94366611  1
  Zn  Zn98  1  0.68254642  0.93080482  0.44050476  1
  Zn  Zn99  1  0.68707618  0.93078162  0.94180788  1
  Zn  Zn100  1  0.32080408  0.05417015  0.07953665  1
  Zn  Zn101  1  0.33226772  0.08624944  0.54220918  1
  Zn  Zn102  1  0.31872693  0.57011044  0.05791281  1
  Zn  Zn103  1  0.32278883  0.56373621  0.55674026  1
  Zn  Zn104  1  0.81866137  0.06799889  0.05446776  1
  Zn  Zn105  1  0.81884404  0.05471010  0.56740422  1
  Zn  Zn106  1  0.80579327  0.56846418  0.06099536  1
  Zn  Zn107  1  0.81383157  0.55834790  0.56446624  1
  Zn  Zn108  1  0.35089089  0.43415151  0.18064606  1
  Zn  Zn109  1  0.43316160  0.44714521  0.67790013  1
  Zn  Zn110  1  0.40248618  0.91965246  0.20776608  1
  Zn  Zn111  1  0.44220142  0.93411348  0.68347829  1
  Zn  Zn112  1  0.93712341  0.44586618  0.18659733  1
  Zn  Zn113  1  0.95767036  0.42786548  0.67807529  1
  Zn  Zn114  1  0.93251721  0.92778084  0.18751810  1
  Zn  Zn115  1  0.93346686  0.93554161  0.68968843  1
  Zn  Zn116  1  0.05915765  0.05121117  0.31482407  1
  Zn  Zn117  1  0.06391856  0.06848650  0.80830178  1
  Zn  Zn118  1  0.08322658  0.53206525  0.32647322  1
  Zn  Zn119  1  0.06149094  0.56055762  0.81022099  1
  Zn  Zn120  1  0.55043999  0.05002124  0.28953037  1
  Zn  Zn121  1  0.56677998  0.05953663  0.81724481  1
  Zn  Zn122  1  0.55575631  0.56300049  0.31191444  1
  Zn  Zn123  1  0.56986955  0.57180396  0.81961885  1
  Zn  Zn124  1  0.43548619  0.20085688  0.44771574  1
  Zn  Zn125  1  0.44138546  0.18411436  0.95402918  1
  Zn  Zn126  1  0.43174500  0.68344688  0.43560214  1
  Zn  Zn127  1  0.44168302  0.68933935  0.93006385  1
  Zn  Zn128  1  0.93575263  0.17465645  0.43405009  1
  Zn  Zn129  1  0.92797770  0.20372550  0.93065063  1
  Zn  Zn130  1  0.94926892  0.67614919  0.43931868  1
  Zn  Zn131  1  0.93364981  0.68491988  0.93501911  1
  Zn  Zn132  1  0.13333643  0.29156577  0.08579793  1
  Zn  Zn133  1  0.07097562  0.32201856  0.56178912  1
  Zn  Zn134  1  0.05474447  0.80957670  0.05487535  1
  Zn  Zn135  1  0.06988149  0.80850951  0.55696600  1
  Zn  Zn136  1  0.50926549  0.37881021  0.15005392  1
  Zn  Zn137  1  0.56487482  0.32701178  0.56135650  1
  Zn  Zn138  1  0.56134451  0.81673924  0.06109691  1
  Zn  Zn139  1  0.53819500  0.82029450  0.57039764  1
  O  O140  1  0.08754065  0.12421462  0.10485729  1
  O  O141  1  0.11886396  0.11271963  0.62060754  1
  O  O142  1  0.11214952  0.63532061  0.11426358  1
  O  O143  1  0.11787541  0.61673019  0.63004921  1
  O  O144  1  0.62505171  0.09876289  0.13242116  1
  O  O145  1  0.61594176  0.12287382  0.63422584  1
  O  O146  1  0.63246923  0.62847882  0.10691031  1
  O  O147  1  0.61570357  0.60962207  0.61670541  1
  O  O148  1  0.38925968  0.39233794  0.36821931  1
  O  O149  1  0.38689112  0.39146524  0.86858540  1
  O  O150  1  0.38746296  0.87135617  0.37634287  1
  O  O151  1  0.37664046  0.88525566  0.87713231  1
  O  O152  1  0.80408435  0.39618424  0.39786539  1
  O  O153  1  0.88478612  0.37859312  0.88254080  1
  O  O154  1  0.88223535  0.87017154  0.38849930  1
  O  O155  1  0.88875835  0.86652568  0.87772534  1
  O  O156  1  0.23431766  0.01926766  0.36344451  1
  O  O157  1  0.25716628  0.00333743  0.86771350  1
  O  O158  1  0.26723114  0.49613513  0.39108735  1
  O  O159  1  0.26022801  0.50603023  0.86598500  1
  O  O160  1  0.76233317  -0.01457637  0.38332016  1
  O  O161  1  0.74834498  0.01413674  0.88340544  1
  O  O162  1  0.74186962  0.52508987  0.35422897  1
  O  O163  1  0.74813328  0.50691724  0.87442656  1
  O  O164  1  0.26461349  0.46803018  0.09390310  1
  O  O165  1  0.24623139  0.50542249  0.63395578  1
  O  O166  1  0.22198951  1.00222962  0.11428621  1
  O  O167  1  0.24140981  1.00710253  0.63650636  1
  O  O168  1  0.75037439  0.49094604  0.12772659  1
  O  O169  1  0.72825174  0.54098336  0.63570101  1
  O  O170  1  0.74479848  0.99864538  0.11370664  1
  O  O171  1  0.74625895  0.98410868  0.62813635  1
  O  O172  1  -0.01727383  0.37022201  0.25777611  1
  O  O173  1  0.00468600  0.37361062  0.76986260  1
  O  O174  1  -0.00661824  0.86879869  0.26769947  1
  O  O175  1  0.01068733  0.87896701  0.76130495  1
  O  O176  1  0.51435881  0.38038782  0.26619945  1
  O  O177  1  0.49119172  0.36278529  0.74618816  1
  O  O178  1  0.49730157  0.86952390  0.26007477  1
  O  O179  1  0.50767553  0.89093556  0.76567159  1
  O  O180  1  0.47576047  0.11935101  0.24688137  1
  O  O181  1  0.49925206  0.12603442  0.74375845  1
  O  O182  1  0.50651743  0.64098281  0.24447754  1
  O  O183  1  0.48482839  0.62231235  0.76237380  1
  O  O184  1  0.99282027  0.13226957  0.25060832  1
  O  O185  1  0.99555942  0.14351250  0.75562661  1
  O  O186  1  0.98714512  0.61890890  0.23285753  1
  O  O187  1  0.99382820  0.60738738  0.72967655  1
  O  O188  1  0.36501456  0.26072278  -0.03044875  1
  O  O189  1  0.35877855  0.20031073  0.52716338  1
  O  O190  1  0.35986375  0.75839732  -0.01134057  1
  O  O191  1  0.36263544  0.75449520  0.49060138  1
  O  O192  1  0.86191109  0.25352428  0.01366053  1
  O  O193  1  0.85981329  0.23290396  0.50927671  1
  O  O194  1  0.87926637  0.75460429  0.00880836  1
  O  O195  1  0.88195812  0.75684599  0.50375455  1
  O  O196  1  0.11383931  0.23124214  0.50693704  1
  O  O197  1  0.11536135  0.23034696  0.98780247  1
  O  O198  1  0.13847652  0.75363338  0.48750137  1
  O  O199  1  0.13375543  0.74460873  0.98809109  1
  O  O200  1  0.64929677  0.24912201  0.50832407  1
  O  O201  1  0.63699140  0.24914918  0.98576160  1
  O  O202  1  0.61177328  0.75821394  0.48799178  1
  O  O203  1  0.62227281  0.74511956  0.99852299  1
  O  O204  1  0.52961939  0.24934816  0.14931428  1
  O  O205  1  0.50949800  0.24479202  0.63527399  1
  O  O206  1  0.49410625  0.76109209  0.13894325  1
  O  O207  1  0.54464846  0.74708302  0.69189828  1
  O  O208  1  0.98310381  0.24458479  0.14402933  1
  O  O209  1  1.01737992  0.26030980  0.64783003  1
  O  O210  1  0.99251199  0.73470666  0.11802594  1
  O  O211  1  0.99819928  0.73494030  0.61958977  1
  O  O212  1  -0.02967133  0.25563215  0.36647672  1
  O  O213  1  0.00806810  0.27037506  0.87574825  1
  O  O214  1  0.01520087  0.75779099  0.38799291  1
  O  O215  1  0.01401223  0.74283527  0.87356271  1
  O  O216  1  0.49279176  0.26618713  0.38226641  1
  O  O217  1  0.51132520  0.26137950  0.87618024  1
  O  O218  1  0.51002119  0.76026229  0.36787610  1
  O  O219  1  0.49367488  0.76768617  0.86814807  1
  O  O220  1  0.23103829  0.11536532  0.48495474  1
  O  O221  1  0.25891438  0.11321099  0.98876140  1
  O  O222  1  0.25514848  0.64007172  0.50565652  1
  O  O223  1  0.24550550  0.63579102  0.98917308  1
  O  O224  1  0.75206315  0.13606133  0.51260153  1
  O  O225  1  0.75326514  0.14045299  0.98667487  1
  O  O226  1  0.76092427  0.62277627  0.47903071  1
  O  O227  1  0.73924836  0.62643669  0.98961039  1
  O  O228  1  0.26202301  0.40722561  0.03796479  1
  O  O229  1  0.24178168  0.35858011  0.51051122  1
  O  O230  1  0.25711127  0.86535907  -0.00961547  1
  O  O231  1  0.25690450  0.86824967  0.49879537  1
  O  O232  1  0.74063118  0.37294433  0.01404040  1
  O  O233  1  0.76480760  0.34657056  0.52294853  1
  O  O234  1  0.77083057  0.86571999  -0.01902403  1
  O  O235  1  0.76470879  0.87406020  0.51351543  1
  O  O236  1  0.14713885  0.51658946  0.22974224  1
  O  O237  1  0.14325696  0.50519422  0.74829138  1
  O  O238  1  0.12326056  1.00736850  0.23072425  1
  O  O239  1  0.13036156  0.99576233  0.74282899  1
  O  O240  1  0.63732691  0.51560083  0.24073367  1
  O  O241  1  0.61444295  0.49717827  0.74437312  1
  O  O242  1  0.62683314  0.98246341  0.23828965  1
  O  O243  1  0.64718375  0.99907457  0.76067061  1
  O  O244  1  0.35863912  0.02583400  0.19604852  1
  O  O245  1  0.36958629  0.00179468  0.75497645  1
  O  O246  1  0.36655992  0.51269909  0.26251355  1
  O  O247  1  0.36551262  0.51154039  0.75658266  1
  O  O248  1  0.86947683  -0.01532648  0.26378616  1
  O  O249  1  0.85592492  -0.00267291  0.74965826  1
  O  O250  1  0.86302342  0.52113854  0.24017190  1
  O  O251  1  0.84495555  0.47150707  0.73836082  1
  O  O252  1  0.12375730  0.40751584  0.33898122  1
  O  O253  1  0.14030671  0.36036304  0.89137575  1
  O  O254  1  0.11134069  0.88296391  0.37565246  1
  O  O255  1  0.11266921  0.87113388  0.86951234  1
  O  O256  1  0.61972559  0.36887720  0.37937580  1
  O  O257  1  0.61266577  0.36937502  0.87761522  1
  O  O258  1  0.62218893  0.86474600  0.36164002  1
  O  O259  1  0.61681270  0.87172473  0.87848339  1
  O  O260  1  0.37751358  0.15425420  0.11092441  1
  O  O261  1  0.38813849  0.11840257  0.64482690  1
  O  O262  1  0.36882129  0.61974378  0.14379339  1
  O  O263  1  0.38026999  0.61825567  0.63913364  1
  O  O264  1  0.88232541  0.13701546  0.12204757  1
  O  O265  1  0.88402943  0.11921201  0.63363698  1
  O  O266  1  0.88062249  0.63591685  0.12482247  1
  O  O267  1  0.88018576  0.63849000  0.62403046  1
  O  O268  1  0.22786069  0.24385207  0.12526652  1
  O  O269  1  0.24447108  0.25990865  0.64068588  1
  O  O270  1  0.24036213  0.74868673  0.10509389  1
  O  O271  1  0.24450266  0.75887381  0.61083169  1
  O  O272  1  0.75155642  0.26450192  0.12102828  1
  O  O273  1  0.74871390  0.23720665  0.61791949  1
  O  O274  1  0.76091537  0.75123413  0.11921688  1
  O  O275  1  0.76750028  0.75490809  0.62978415  1
  O  O276  1  0.24557902  0.22976607  0.35919945  1
  O  O277  1  0.23611028  0.23443545  0.86976930  1
  O  O278  1  0.23834836  0.74680798  0.38437461  1
  O  O279  1  0.23981309  0.74322794  0.87865864  1
  O  O280  1  0.75539714  0.24702073  0.40742029  1
  O  O281  1  0.73907436  0.26478238  0.87733461  1
  O  O282  1  0.73569380  0.74538111  0.37219363  1
  O  O283  1  0.73513468  0.72350628  0.82590298  1
  O  O284  1  -0.00832331  0.11923050  -0.02058516  1
  O  O285  1  0.00490106  0.11070758  0.50324354  1
  O  O286  1  0.00664189  0.61638289  0.00289796  1
  O  O287  1  -0.00576701  0.60573152  0.51856459  1
  O  O288  1  0.50382277  0.10336664  -0.00418382  1
  O  O289  1  0.50324232  0.11691787  0.51253641  1
  O  O290  1  0.50902801  0.63081010  -0.00200504  1
  O  O291  1  0.50640902  0.61080612  0.48817130  1
  O  O292  1  0.50583979  0.39021406  0.48879045  1
  O  O293  1  0.50022455  0.38044436  0.99015965  1
  O  O294  1  0.50583018  0.88472300  0.47744685  1
  O  O295  1  0.48709044  0.87766910  0.98761565  1
  O  O296  1  1.01674754  0.39660609  0.49657135  1
  O  O297  1  1.00411586  0.39383658  0.99045740  1
  O  O298  1  0.99156138  0.87773454  0.49638299  1
  O  O299  1  0.99416080  0.87165721  0.97825367  1
  O  O300  1  0.50526707  0.49057614  0.38283328  1
  O  O301  1  0.49321343  0.48890601  0.86680253  1
  O  O302  1  0.50203906  0.99295338  0.37848948  1
  O  O303  1  0.49513579  0.99190842  0.88467691  1
  O  O304  1  0.98910141  0.51652094  0.38863766  1
  O  O305  1  1.00358792  0.49362402  0.88410202  1
  O  O306  1  0.98928552  0.98364330  0.38441110  1
  O  O307  1  0.99746591  0.99374715  0.87011137  1
  O  O308  1  -0.00580588  0.01426819  0.13679361  1
  O  O309  1  0.00724947  -0.00417736  0.61722698  1
  O  O310  1  -0.00493608  0.51462071  0.11087377  1
  O  O311  1  0.02038561  0.50264702  0.61679002  1
  O  O312  1  0.49641694  -0.00936248  0.11134102  1
  O  O313  1  0.50889208  0.01087618  0.62107191  1
  O  O314  1  0.45361607  0.47592177  0.12539252  1
  O  O315  1  0.51391537  0.49549734  0.60975209  1
  O  O316  1  0.25873679  0.38107082  0.24291754  1
  O  O317  1  0.25489529  0.38992836  0.74399473  1
  O  O318  1  0.29373540  0.88775454  0.24134462  1
  O  O319  1  0.23681474  0.88812464  0.75884804  1
  O  O320  1  0.74859033  0.39365878  0.23767790  1
  O  O321  1  0.78909966  0.42115760  0.74399923  1
  O  O322  1  0.73993463  0.86432418  0.24852852  1
  O  O323  1  0.75375126  0.87983254  0.73464807  1
  O  O324  1  0.26598367  0.11963049  0.25700399  1
  O  O325  1  0.25811914  0.11511643  0.76062777  1
  O  O326  1  0.25799021  0.63653562  0.25398512  1
  O  O327  1  0.25582045  0.62173412  0.75806442  1
  O  O328  1  0.70185518  0.14798876  0.28244588  1
  O  O329  1  0.75237490  0.11238957  0.75822484  1
  O  O330  1  0.75841886  0.62360164  0.24473207  1
  O  O331  1  0.74508239  0.65737681  0.77489597  1
  O  O332  1  0.36607438  0.11979624  0.38366982  1
  O  O333  1  0.37262173  0.10935990  0.86872933  1
  O  O334  1  0.38802008  0.60900860  0.36001683  1
  O  O335  1  0.36647365  0.61988197  0.86583741  1
  O  O336  1  0.87509053  0.09896885  0.37656398  1
  O  O337  1  0.85411627  0.14154424  0.86710134  1
  O  O338  1  0.86407751  0.64446235  0.35708319  1
  O  O339  1  0.85604980  0.62640065  0.88125625  1
  O  O340  1  0.11252578  0.37799853  0.15390630  1
  O  O341  1  0.14192574  0.39403845  0.62555409  1
  O  O342  1  0.10429253  0.89254118  0.11454076  1
  O  O343  1  0.11733556  0.88444966  0.63553377  1
  O  O344  1  0.62773800  0.37933051  0.12819301  1
  O  O345  1  0.63500328  0.39616350  0.62161823  1
  O  O346  1  0.62531679  0.87879328  0.13625284  1
  O  O347  1  0.64059678  0.85629108  0.61648722  1
  O  O348  1  0.09864467  0.25294249  0.26442429  1
  O  O349  1  0.11333490  0.24265926  0.77478165  1
  O  O350  1  0.12722077  0.74999053  0.27341344  1
  O  O351  1  0.13449007  0.76217761  0.75630108  1
  O  O352  1  0.57508594  0.23899320  0.20805774  1
  O  O353  1  0.61061858  0.25254240  0.76194305  1
  O  O354  1  0.61271896  0.76173787  0.25062525  1
  O  O355  1  0.60536610  0.73774656  0.73182170  1
  O  O356  1  0.36829924  0.23530600  0.24743334  1
  O  O357  1  0.39557821  0.23635226  0.76908302  1
  O  O358  1  0.38707542  0.73516069  0.26190103  1
  O  O359  1  0.36842603  0.73740129  0.74879895  1
  O  O360  1  0.86383691  0.25537714  0.24082741  1
  O  O361  1  0.89262779  0.25846584  0.75587042  1
  O  O362  1  0.87207228  0.73916146  0.23065376  1
  O  O363  1  0.88905178  0.75485434  0.73758512  1
  O  O364  1  0.39268981  0.50599546  0.48678821  1
  O  O365  1  0.38090192  0.51562719  0.97563035  1
  O  O366  1  0.39775128  0.99326363  0.51343485  1
  O  O367  1  0.38105114  0.98758748  0.99333822  1
  O  O368  1  0.88170215  0.48847019  0.50984017  1
  O  O369  1  0.88433343  0.50368640  1.00050451  1
  O  O370  1  0.88319639  0.98425003  0.49890054  1
  O  O371  1  0.87555435  0.98158102  1.00408511  1
  O  O372  1  0.11648996  0.01409504  0.00351739  1
  O  O373  1  0.11566151  0.00094800  0.50814421  1
  O  O374  1  0.12603542  0.51660436  -0.00453597  1
  O  O375  1  0.13937633  0.50443097  0.50915038  1
  O  O376  1  0.61413199  -0.01683514  0.01599017  1
  O  O377  1  0.60731574  -0.00577710  0.49809673  1
  O  O378  1  0.61015580  0.51693631  -0.00041300  1
  O  O379  1  0.62616449  0.49904649  0.49344511  1
  O  O380  1  0.39870026  0.33952575  0.13678131  1
  O  O381  1  0.35693455  0.38130835  0.62270911  1
  O  O382  1  0.37776849  0.87060352  0.10187582  1
  O  O383  1  0.43558473  0.84661544  0.61363627  1
  O  O384  1  0.87076341  0.36613259  0.12534778  1
  O  O385  1  0.88557814  0.36711832  0.62227923  1
  O  O386  1  0.88412094  0.86124568  0.10869041  1
  O  O387  1  0.87852916  0.85985596  0.61496716  1
  O  O388  1  0.11065199  0.12474178  0.38767748  1
  O  O389  1  0.13158163  0.12311624  0.88735383  1
  O  O390  1  0.12160172  0.62758110  0.37869750  1
  O  O391  1  0.13285995  0.63052071  0.87760872  1
  O  O392  1  0.63874696  0.13901973  0.32348895  1
  O  O393  1  0.63993120  0.14248237  0.86914220  1
  O  O394  1  0.63397937  0.64252386  0.36924448  1
  O  O395  1  0.63744874  0.62609530  0.88888403  1
