# generated using pymatgen
data_BaYFeCuO5
_symmetry_space_group_name_H-M   'P 1'
_cell_length_a   15.66468040
_cell_length_b   15.66617024
_cell_length_c   15.46670609
_cell_angle_alpha   89.99936143
_cell_angle_beta   90.00399543
_cell_angle_gamma   90.00203944
_symmetry_Int_Tables_number   1
_chemical_formula_structural   BaYFeCuO5
_chemical_formula_sum   'Ba32 Y32 Fe32 Cu32 O160'
_cell_volume   3795.61550095
_cell_formula_units_Z   32
loop_
 _symmetry_equiv_pos_site_id
 _symmetry_equiv_pos_as_xyz
  1  'x, y, z'
loop_
 _atom_type_symbol
 _atom_type_oxidation_number
  Ba2+  2.0
  Y3+  3.0
  Fe3+  3.0
  Cu2+  2.0
  O2-  -2.0
loop_
 _atom_site_type_symbol
 _atom_site_label
 _atom_site_symmetry_multiplicity
 _atom_site_fract_x
 _atom_site_fract_y
 _atom_site_fract_z
 _atom_site_occupancy
  Ba2+  Ba0  1  -0.00001126  0.00087448  0.01332589  1
  Ba2+  Ba1  1  -0.00780373  -0.00186346  0.50295863  1
  Ba2+  Ba2  1  -0.00471253  0.24131264  0.00518287  1
  Ba2+  Ba3  1  -0.00642871  0.25077765  0.50699392  1
  Ba2+  Ba4  1  -0.01246090  0.50084161  0.01638377  1
  Ba2+  Ba5  1  -0.00341821  0.49545190  0.51256961  1
  Ba2+  Ba6  1  -0.00726437  0.75687689  0.02344960  1
  Ba2+  Ba7  1  -0.00557023  0.75565541  0.50638880  1
  Ba2+  Ba8  1  0.24307861  -0.00255190  0.01790778  1
  Ba2+  Ba9  1  0.25635997  -0.00529473  0.50666616  1
  Ba2+  Ba10  1  0.24386951  0.24125378  0.00686318  1
  Ba2+  Ba11  1  0.25423489  0.25367281  0.51499764  1
  Ba2+  Ba12  1  0.25010682  0.50127379  0.00644040  1
  Ba2+  Ba13  1  0.25731190  0.49899855  0.50699089  1
  Ba2+  Ba14  1  0.25037972  0.76115768  0.01856081  1
  Ba2+  Ba15  1  0.25868498  0.75261151  0.50235014  1
  Ba2+  Ba16  1  0.50607205  -0.00582752  0.02318237  1
  Ba2+  Ba17  1  0.49792839  -0.00765755  0.51035675  1
  Ba2+  Ba18  1  0.51188620  0.25064437  0.01074155  1
  Ba2+  Ba19  1  0.49887779  0.25611701  0.51863331  1
  Ba2+  Ba20  1  0.51420408  0.50175454  0.00508456  1
  Ba2+  Ba21  1  0.49655201  0.49647094  0.51351417  1
  Ba2+  Ba22  1  0.50936193  0.75239210  0.01753540  1
  Ba2+  Ba23  1  0.49489421  0.75450472  0.50690649  1
  Ba2+  Ba24  1  0.75021763  -0.00190384  0.02061021  1
  Ba2+  Ba25  1  0.75465379  -0.00419569  0.50688259  1
  Ba2+  Ba26  1  0.74855432  0.25185553  0.01233553  1
  Ba2+  Ba27  1  0.75337934  0.25313356  0.51200145  1
  Ba2+  Ba28  1  0.74620521  0.50131158  0.01621196  1
  Ba2+  Ba29  1  0.75076517  0.49375513  0.51705385  1
  Ba2+  Ba30  1  0.74847169  0.74902146  0.02333740  1
  Ba2+  Ba31  1  0.75183877  0.75757874  0.51004944  1
  Y3+  Y32  1  -0.00047648  -0.00059014  0.26115707  1
  Y3+  Y33  1  -0.00209944  0.00195381  0.75575892  1
  Y3+  Y34  1  -0.00066030  0.24840797  0.25798061  1
  Y3+  Y35  1  -0.00185988  0.24597606  0.75802170  1
  Y3+  Y36  1  -0.00111572  0.49919476  0.25696618  1
  Y3+  Y37  1  -0.00285323  0.50102584  0.75669242  1
  Y3+  Y38  1  -0.00102870  0.75335667  0.26089450  1
  Y3+  Y39  1  -0.00302215  0.75086317  0.75262015  1
  Y3+  Y40  1  0.24858651  -0.00199525  0.25809501  1
  Y3+  Y41  1  0.25058977  0.00058017  0.75671675  1
  Y3+  Y42  1  0.24718888  0.24846776  0.25495770  1
  Y3+  Y43  1  0.25027326  0.24702538  0.76054691  1
  Y3+  Y44  1  0.25062032  0.50103869  0.25778960  1
  Y3+  Y45  1  0.25228102  0.50216125  0.75744216  1
  Y3+  Y46  1  0.25177269  0.75280864  0.26131895  1
  Y3+  Y47  1  0.25278191  0.75033984  0.75390905  1
  Y3+  Y48  1  0.50152121  -0.00319588  0.26112320  1
  Y3+  Y49  1  0.49927520  -0.00213052  0.75140325  1
  Y3+  Y50  1  0.50488451  0.25175867  0.25621902  1
  Y3+  Y51  1  0.50185585  0.25156659  0.75774138  1
  Y3+  Y52  1  0.50351020  0.50039556  0.25748169  1
  Y3+  Y53  1  0.50358420  0.50052107  0.75771381  1
  Y3+  Y54  1  0.50049387  0.75059404  0.26161819  1
  Y3+  Y55  1  0.50069040  0.74974294  0.75289793  1
  Y3+  Y56  1  0.75031144  -0.00116950  0.26430182  1
  Y3+  Y57  1  0.75195119  -0.00060817  0.75012362  1
  Y3+  Y58  1  0.74866875  0.25165406  0.25877039  1
  Y3+  Y59  1  0.75018312  0.25015883  0.75540127  1
  Y3+  Y60  1  0.74716043  0.49875942  0.25536982  1
  Y3+  Y61  1  0.74755818  0.49957643  0.75800918  1
  Y3+  Y62  1  0.74874620  0.75108167  0.26062217  1
  Y3+  Y63  1  0.74964225  0.75042192  0.75191317  1
  Fe3+  Fe64  1  0.12370897  0.87452550  0.87546245  1
  Fe3+  Fe65  1  0.87400587  0.62380516  0.37761793  1
  Fe3+  Fe66  1  0.87452208  0.37554419  0.37402693  1
  Fe3+  Fe67  1  0.12336373  0.62764740  0.88083122  1
  Fe3+  Fe68  1  0.37642105  0.87520994  0.87761110  1
  Fe3+  Fe69  1  0.12323233  0.37550571  0.88035929  1
  Fe3+  Fe70  1  0.62624533  0.87500478  0.87309006  1
  Fe3+  Fe71  1  0.62637822  0.12221196  0.87510674  1
  Fe3+  Fe72  1  0.87302693  0.62744752  0.87589438  1
  Fe3+  Fe73  1  0.37594323  0.12642923  0.37591243  1
  Fe3+  Fe74  1  0.62479089  0.62374053  0.38055198  1
  Fe3+  Fe75  1  0.37652559  0.62708867  0.88080546  1
  Fe3+  Fe76  1  0.12490965  0.62455915  0.37932234  1
  Fe3+  Fe77  1  0.12568515  0.12557373  0.38028992  1
  Fe3+  Fe78  1  0.37602019  0.37474100  0.88076377  1
  Fe3+  Fe79  1  0.37543383  0.37394606  0.37186495  1
  Fe3+  Fe80  1  0.37711032  0.12247316  0.88038255  1
  Fe3+  Fe81  1  0.87356474  0.37456907  0.87646857  1
  Fe3+  Fe82  1  0.87344088  0.87562771  0.87537469  1
  Fe3+  Fe83  1  0.62474767  0.12630238  0.38046213  1
  Fe3+  Fe84  1  0.62465576  0.12495118  0.63372910  1
  Fe3+  Fe85  1  0.12365989  0.37438691  0.13397204  1
  Fe3+  Fe86  1  0.12438668  0.62633183  0.13544117  1
  Fe3+  Fe87  1  0.37639723  0.12412334  0.13479691  1
  Fe3+  Fe88  1  0.37610466  0.62572360  0.13488576  1
  Fe3+  Fe89  1  0.62515789  0.62511548  0.63409383  1
  Fe3+  Fe90  1  0.87373923  0.12458825  0.14164153  1
  Fe3+  Fe91  1  0.12522408  0.62525334  0.63385875  1
  Fe3+  Fe92  1  0.37554367  0.37492443  0.13233517  1
  Fe3+  Fe93  1  0.12521701  0.37484650  0.63954165  1
  Fe3+  Fe94  1  0.12525555  0.87536908  0.63442999  1
  Fe3+  Fe95  1  0.12543136  0.12467566  0.63445056  1
  Cu2+  Cu96  1  0.12533913  0.37495224  0.36319263  1
  Cu2+  Cu97  1  0.12529571  0.87525970  0.36903915  1
  Cu2+  Cu98  1  0.62627410  0.37455573  0.87073155  1
  Cu2+  Cu99  1  0.12434234  0.12244259  0.87363187  1
  Cu2+  Cu100  1  0.87306146  0.12338884  0.86150241  1
  Cu2+  Cu101  1  0.87435761  0.12625265  0.37340383  1
  Cu2+  Cu102  1  0.62487118  0.87462843  0.37438589  1
  Cu2+  Cu103  1  0.37595227  0.62381085  0.37149906  1
  Cu2+  Cu104  1  0.62651516  0.62756528  0.87067824  1
  Cu2+  Cu105  1  0.87469123  0.87448108  0.37082441  1
  Cu2+  Cu106  1  0.62486447  0.37530743  0.37420257  1
  Cu2+  Cu107  1  0.37526822  0.87598335  0.36903320  1
  Cu2+  Cu108  1  0.62492205  0.87492008  0.63890887  1
  Cu2+  Cu109  1  0.87603547  0.37472751  0.65456686  1
  Cu2+  Cu110  1  0.37402628  0.37513488  0.65935591  1
  Cu2+  Cu111  1  0.62523623  0.37519053  0.14250921  1
  Cu2+  Cu112  1  0.87477219  0.37418459  0.15073951  1
  Cu2+  Cu113  1  0.87494408  0.62440400  0.64429644  1
  Cu2+  Cu114  1  0.87413300  0.87590871  0.15786951  1
  Cu2+  Cu115  1  0.62491795  0.62558139  0.14585900  1
  Cu2+  Cu116  1  0.62554884  0.12422631  0.15505634  1
  Cu2+  Cu117  1  0.37514206  0.62465352  0.64087835  1
  Cu2+  Cu118  1  0.87553277  0.12528895  0.63947751  1
  Cu2+  Cu119  1  0.37486208  0.12530326  0.64928773  1
  Cu2+  Cu120  1  0.12397939  0.87474748  0.15658312  1
  Cu2+  Cu121  1  0.37596461  0.87493163  0.15296220  1
  Cu2+  Cu122  1  0.12347479  0.12404534  0.14363695  1
  Cu2+  Cu123  1  0.62515417  0.37486213  0.64202813  1
  Cu2+  Cu124  1  0.87617799  0.87548630  0.64168770  1
  Cu2+  Cu125  1  0.37387334  0.87462816  0.64322184  1
  Cu2+  Cu126  1  0.87478047  0.62551768  0.15460781  1
  Cu2+  Cu127  1  0.62571131  0.87480642  0.15909236  1
  O2-  O128  1  0.12371409  0.12282778  0.00779775  1
  O2-  O129  1  0.12717252  0.12730626  0.50765272  1
  O2-  O130  1  0.12246812  0.37534071  0.00703571  1
  O2-  O131  1  0.12731573  0.37566507  0.51928874  1
  O2-  O132  1  0.12286427  0.62828350  0.00678574  1
  O2-  O133  1  0.12597917  0.62287643  0.50669007  1
  O2-  O134  1  0.12268555  0.87380566  -0.00389846  1
  O2-  O135  1  0.12661042  0.87462910  0.51423815  1
  O2-  O136  1  0.37697921  0.12099972  0.00629048  1
  O2-  O137  1  0.37465528  0.12943573  0.49575308  1
  O2-  O138  1  0.37584257  0.37526910  0.00642284  1
  O2-  O139  1  0.37349595  0.37358411  0.49285269  1
  O2-  O140  1  0.37564267  0.62800453  0.00738663  1
  O2-  O141  1  0.37438599  0.62254724  0.50682231  1
  O2-  O142  1  0.37666697  0.87573462  -0.00220247  1
  O2-  O143  1  0.37413219  0.87545117  0.50692702  1
  O2-  O144  1  0.62646850  0.12054558  -0.00448415  1
  O2-  O145  1  0.62271774  0.12767077  0.50662178  1
  O2-  O146  1  0.62665179  0.37466285  0.00690650  1
  O2-  O147  1  0.62396247  0.37515039  0.50838850  1
  O2-  O148  1  0.62674402  0.62784740  0.00690812  1
  O2-  O149  1  0.62392195  0.62263695  0.50682034  1
  O2-  O150  1  0.62743638  0.87550124  -0.00623044  1
  O2-  O151  1  0.62419556  0.87470514  0.50623951  1
  O2-  O152  1  0.87330302  0.12258664  0.02048480  1
  O2-  O153  1  0.87606220  0.12732617  0.50708268  1
  O2-  O154  1  0.87418948  0.37451222  -0.00311559  1
  O2-  O155  1  0.87631156  0.37618580  0.49531080  1
  O2-  O156  1  0.87456296  0.62848183  -0.00372657  1
  O2-  O157  1  0.87642984  0.62140333  0.49768254  1
  O2-  O158  1  0.87288890  0.87522040  -0.00437422  1
  O2-  O159  1  0.87598378  0.87471411  0.50601599  1
  O2-  O160  1  0.12457637  -0.00181151  0.16826965  1
  O2-  O161  1  0.12626371  0.00165379  0.66188022  1
  O2-  O162  1  0.12506996  0.25280917  0.16336789  1
  O2-  O163  1  0.12638750  0.24886585  0.66793165  1
  O2-  O164  1  0.12556094  0.50043344  0.15988655  1
  O2-  O165  1  0.12498561  0.50100653  0.66890779  1
  O2-  O166  1  0.12518822  0.74853431  0.16546294  1
  O2-  O167  1  0.12479714  0.74856011  0.66230384  1
  O2-  O168  1  0.37616310  0.00088654  0.16379272  1
  O2-  O169  1  0.37380129  0.00110186  0.66302290  1
  O2-  O170  1  0.37392525  0.25003145  0.15558456  1
  O2-  O171  1  0.37360533  0.25055038  0.66901989  1
  O2-  O172  1  0.37277033  0.50036338  0.15886884  1
  O2-  O173  1  0.37406863  0.49875915  0.66981028  1
  O2-  O174  1  0.37392254  0.74872619  0.16453846  1
  O2-  O175  1  0.37400453  0.74979282  0.66446946  1
  O2-  O176  1  0.62442382  -0.00087965  0.16801672  1
  O2-  O177  1  0.62393864  0.00251330  0.65879729  1
  O2-  O178  1  0.62534663  0.24893287  0.16441132  1
  O2-  O179  1  0.62390326  0.24777168  0.66529042  1
  O2-  O180  1  0.62457575  0.50057424  0.16503620  1
  O2-  O181  1  0.62500368  0.50209007  0.66512610  1
  O2-  O182  1  0.62510422  0.75099133  0.16827793  1
  O2-  O183  1  0.62517132  0.74755483  0.65977658  1
  O2-  O184  1  0.87433820  -0.00005837  0.16975370  1
  O2-  O185  1  0.87639844  0.00005833  0.66308567  1
  O2-  O186  1  0.87486493  0.24963132  0.16549602  1
  O2-  O187  1  0.87623476  0.25187994  0.66619356  1
  O2-  O188  1  0.87600182  0.49962636  0.16083489  1
  O2-  O189  1  0.87638506  0.49873407  0.66509408  1
  O2-  O190  1  0.87532095  0.75118541  0.16628165  1
  O2-  O191  1  0.87619747  0.74891150  0.66096821  1
  O2-  O192  1  -0.00245293  0.12477184  0.17056335  1
  O2-  O193  1  0.00359026  0.12604912  0.66441116  1
  O2-  O194  1  0.00193654  0.37593585  0.16375239  1
  O2-  O195  1  0.00081591  0.37526713  0.66670259  1
  O2-  O196  1  0.00162437  0.62496487  0.16428528  1
  O2-  O197  1  0.00206874  0.62372702  0.66256009  1
  O2-  O198  1  -0.00077292  0.87484936  0.16658938  1
  O2-  O199  1  0.00276089  0.87491641  0.66508264  1
  O2-  O200  1  0.25305766  0.12426906  0.16265924  1
  O2-  O201  1  0.24855490  0.12627629  0.66624282  1
  O2-  O202  1  0.24958518  0.37550813  0.15877382  1
  O2-  O203  1  0.24883288  0.37516366  0.67272541  1
  O2-  O204  1  0.24973895  0.62501936  0.16082832  1
  O2-  O205  1  0.24649130  0.62399528  0.66817701  1
  O2-  O206  1  0.24971190  0.87512365  0.16396967  1
  O2-  O207  1  0.24735877  0.87471849  0.66865593  1
  O2-  O208  1  0.49937516  0.12580549  0.16247847  1
  O2-  O209  1  0.50071869  0.12620679  0.66293667  1
  O2-  O210  1  0.49646302  0.37512247  0.16304360  1
  O2-  O211  1  0.49777032  0.37518011  0.66647862  1
  O2-  O212  1  0.49678348  0.62523863  0.16475957  1
  O2-  O213  1  0.50304362  0.62393008  0.66528274  1
  O2-  O214  1  0.50106748  0.87425291  0.16554330  1
  O2-  O215  1  0.49930205  0.87453978  0.66352275  1
  O2-  O216  1  0.74964239  0.12437492  0.17024115  1
  O2-  O217  1  0.74748700  0.12589695  0.65954948  1
  O2-  O218  1  0.75096064  0.37510189  0.16578996  1
  O2-  O219  1  0.75277273  0.37478749  0.66203027  1
  O2-  O220  1  0.75137821  0.62508323  0.16735666  1
  O2-  O221  1  0.74880729  0.62392505  0.65926863  1
  O2-  O222  1  0.74965756  0.87502710  0.16767211  1
  O2-  O223  1  0.75089755  0.87523069  0.65971147  1
  O2-  O224  1  0.12601688  0.00228413  0.35265282  1
  O2-  O225  1  0.12549513  -0.00315665  0.84346703  1
  O2-  O226  1  0.12564382  0.24841274  0.34788429  1
  O2-  O227  1  0.12500309  0.25303776  0.85225694  1
  O2-  O228  1  0.12584624  0.50171684  0.34569256  1
  O2-  O229  1  0.12559748  0.50125967  0.85386780  1
  O2-  O230  1  0.12524759  0.74803079  0.35113183  1
  O2-  O231  1  0.12545990  0.74864879  0.84421977  1
  O2-  O232  1  0.37436718  0.00298504  0.34721462  1
  O2-  O233  1  0.37528054  0.00011420  0.84516669  1
  O2-  O234  1  0.37431114  0.24966108  0.33751453  1
  O2-  O235  1  0.37460010  0.24965210  0.85448142  1
  O2-  O236  1  0.37386018  0.49757962  0.34201532  1
  O2-  O237  1  0.37328278  0.50069743  0.85492707  1
  O2-  O238  1  0.37472325  0.75006087  0.34913215  1
  O2-  O239  1  0.37458012  0.74923224  0.84641387  1
  O2-  O240  1  0.62426366  0.00300817  0.35268520  1
  O2-  O241  1  0.62431351  -0.00092621  0.83880197  1
  O2-  O242  1  0.62439019  0.24838562  0.34825194  1
  O2-  O243  1  0.62429944  0.24743175  0.84812979  1
  O2-  O244  1  0.62472074  0.50193875  0.34812261  1
  O2-  O245  1  0.62526332  0.50026137  0.84915899  1
  O2-  O246  1  0.62448651  0.74668410  0.35210932  1
  O2-  O247  1  0.62456675  0.75275000  0.84114416  1
  O2-  O248  1  0.87503984  0.00041241  0.35214768  1
  O2-  O249  1  0.87470572  -0.00049961  0.84501442  1
  O2-  O250  1  0.87607484  0.25226617  0.34640622  1
  O2-  O251  1  0.87558158  0.24901228  0.84958779  1
  O2-  O252  1  0.87584156  0.50029788  0.34236318  1
  O2-  O253  1  0.87555019  0.50082609  0.84730957  1
  O2-  O254  1  0.87587310  0.74716218  0.34917849  1
  O2-  O255  1  0.87538469  0.75082323  0.84149096  1
  O2-  O256  1  0.00292970  0.12576335  0.35333919  1
  O2-  O257  1  -0.00226164  0.12414669  0.84882501  1
  O2-  O258  1  0.00024127  0.37586921  0.34719828  1
  O2-  O259  1  0.00050844  0.37577593  0.84833847  1
  O2-  O260  1  0.00126442  0.62407860  0.34875126  1
  O2-  O261  1  0.00090050  0.62524968  0.84587851  1
  O2-  O262  1  0.00083702  0.87490826  0.35035934  1
  O2-  O263  1  -0.00097354  0.87451031  0.84440001  1
  O2-  O264  1  0.24895476  0.12610973  0.34639887  1
  O2-  O265  1  0.25393441  0.12500716  0.85101186  1
  O2-  O266  1  0.25023661  0.37474997  0.34197524  1
  O2-  O267  1  0.24992533  0.37562644  0.85618814  1
  O2-  O268  1  0.24739627  0.62447801  0.34700155  1
  O2-  O269  1  0.24977511  0.62482199  0.85368161  1
  O2-  O270  1  0.24974752  0.87514570  0.34823442  1
  O2-  O271  1  0.25075753  0.87408582  0.84856974  1
  O2-  O272  1  0.50098224  0.12600535  0.34590283  1
  O2-  O273  1  0.49878319  0.12495633  0.84629284  1
  O2-  O274  1  0.49873464  0.37486726  0.34511831  1
  O2-  O275  1  0.49710449  0.37530176  0.85048732  1
  O2-  O276  1  0.50263807  0.62383004  0.34852866  1
  O2-  O277  1  0.49703937  0.62467654  0.84957141  1
  O2-  O278  1  0.49952587  0.87513217  0.34922752  1
  O2-  O279  1  0.49948667  0.87488104  0.84420390  1
  O2-  O280  1  0.74733615  0.12617331  0.35303872  1
  O2-  O281  1  0.74913760  0.12435301  0.84241110  1
  O2-  O282  1  0.75131679  0.37541291  0.34852176  1
  O2-  O283  1  0.75184472  0.37413450  0.84405611  1
  O2-  O284  1  0.74888373  0.62419594  0.35032505  1
  O2-  O285  1  0.75202830  0.62580594  0.84151034  1
  O2-  O286  1  0.75001076  0.87428726  0.35103959  1
  O2-  O287  1  0.75042660  0.87549244  0.83992573  1
