# generated using pymatgen
data_BaYFeCuO5
_symmetry_space_group_name_H-M   'P 1'
_cell_length_a   15.65164754
_cell_length_b   15.65389148
_cell_length_c   15.43507988
_cell_angle_alpha   89.99696713
_cell_angle_beta   89.99738746
_cell_angle_gamma   90.00154176
_symmetry_Int_Tables_number   1
_chemical_formula_structural   BaYFeCuO5
_chemical_formula_sum   'Ba32 Y32 Fe32 Cu32 O160'
_cell_volume   3781.73643993
_cell_formula_units_Z   32
loop_
 _symmetry_equiv_pos_site_id
 _symmetry_equiv_pos_as_xyz
  1  'x, y, z'
loop_
 _atom_type_symbol
 _atom_type_oxidation_number
  Ba2+  2.0
  Y3+  3.0
  Fe3+  3.0
  Cu2+  2.0
  O2-  -2.0
loop_
 _atom_site_type_symbol
 _atom_site_label
 _atom_site_symmetry_multiplicity
 _atom_site_fract_x
 _atom_site_fract_y
 _atom_site_fract_z
 _atom_site_occupancy
  Ba2+  Ba0  1  -0.00453497  -0.00467327  0.01207385  1
  Ba2+  Ba1  1  0.00274676  0.00479240  0.50246017  1
  Ba2+  Ba2  1  -0.00704500  0.25503604  0.01170890  1
  Ba2+  Ba3  1  0.00626187  0.25485070  0.50706661  1
  Ba2+  Ba4  1  -0.00420815  0.50104607  0.01748690  1
  Ba2+  Ba5  1  0.00048919  0.48805836  0.50714205  1
  Ba2+  Ba6  1  -0.00205807  0.74847556  0.01811899  1
  Ba2+  Ba7  1  -0.00445144  0.75375095  0.50255681  1
  Ba2+  Ba8  1  0.24539225  -0.00241258  0.01087812  1
  Ba2+  Ba9  1  0.24834781  0.00359863  0.51147428  1
  Ba2+  Ba10  1  0.25356733  0.25638621  0.01609644  1
  Ba2+  Ba11  1  0.24169594  0.25376177  0.51053780  1
  Ba2+  Ba12  1  0.24602139  0.49473102  0.01699932  1
  Ba2+  Ba13  1  0.25450432  0.49525143  0.51260631  1
  Ba2+  Ba14  1  0.23795405  0.75089015  0.01112246  1
  Ba2+  Ba15  1  0.26184089  0.74726891  0.51180783  1
  Ba2+  Ba16  1  0.50083793  -0.00000899  0.01467519  1
  Ba2+  Ba17  1  0.50497908  -0.00697372  0.51638439  1
  Ba2+  Ba18  1  0.49031475  0.25279849  0.01033043  1
  Ba2+  Ba19  1  0.49940083  0.25018541  0.51749851  1
  Ba2+  Ba20  1  0.49778200  0.49769191  0.01069232  1
  Ba2+  Ba21  1  0.49662044  0.50942685  0.51038350  1
  Ba2+  Ba22  1  0.50990504  0.74926474  0.01753261  1
  Ba2+  Ba23  1  0.50310953  0.74743223  0.51136464  1
  Ba2+  Ba24  1  0.75712428  -0.00306437  0.01728340  1
  Ba2+  Ba25  1  0.74356868  -0.00598998  0.50667462  1
  Ba2+  Ba26  1  0.76220557  0.25060179  0.00620246  1
  Ba2+  Ba27  1  0.75384148  0.25233211  0.51191965  1
  Ba2+  Ba28  1  0.75973278  0.50504214  0.01081950  1
  Ba2+  Ba29  1  0.74895117  0.50090484  0.50694386  1
  Ba2+  Ba30  1  0.75402436  0.74737222  0.02274759  1
  Ba2+  Ba31  1  0.74006534  0.75268981  0.50254912  1
  Y3+  Y32  1  -0.00068920  0.00056617  0.25673819  1
  Y3+  Y33  1  0.00089601  0.00168534  0.75944234  1
  Y3+  Y34  1  -0.00009359  0.25238428  0.25974785  1
  Y3+  Y35  1  -0.00118805  0.25103917  0.75586537  1
  Y3+  Y36  1  -0.00063059  0.49699577  0.25817293  1
  Y3+  Y37  1  -0.00259843  0.49725701  0.75728047  1
  Y3+  Y38  1  -0.00110905  0.75030921  0.25616017  1
  Y3+  Y39  1  -0.00001126  0.74958336  0.75981025  1
  Y3+  Y40  1  0.24796983  0.00195304  0.25618792  1
  Y3+  Y41  1  0.24753565  -0.00071438  0.75737779  1
  Y3+  Y42  1  0.24804574  0.25149222  0.25768197  1
  Y3+  Y43  1  0.24849717  0.25214358  0.75511153  1
  Y3+  Y44  1  0.24901564  0.49833886  0.25870105  1
  Y3+  Y45  1  0.25179444  0.49783441  0.75562610  1
  Y3+  Y46  1  0.24908416  0.74875468  0.25675760  1
  Y3+  Y47  1  0.25091230  0.74990424  0.75711405  1
  Y3+  Y48  1  0.50101873  -0.00074824  0.25605622  1
  Y3+  Y49  1  0.50149619  -0.00125051  0.75499027  1
  Y3+  Y50  1  0.49791161  0.25073075  0.25311984  1
  Y3+  Y51  1  0.49935588  0.25151197  0.75927201  1
  Y3+  Y52  1  0.49999094  0.50254338  0.25823374  1
  Y3+  Y53  1  0.49821550  0.50072142  0.75572613  1
  Y3+  Y54  1  0.50342075  0.74811996  0.26128523  1
  Y3+  Y55  1  0.50066129  0.74876838  0.75220061  1
  Y3+  Y56  1  0.75134023  -0.00242314  0.25801069  1
  Y3+  Y57  1  0.74991341  0.00104236  0.75668612  1
  Y3+  Y58  1  0.75423926  0.25127474  0.25648276  1
  Y3+  Y59  1  0.75368386  0.25046579  0.75832847  1
  Y3+  Y60  1  0.75159941  0.50130186  0.25794823  1
  Y3+  Y61  1  0.75280189  0.49994384  0.75720466  1
  Y3+  Y62  1  0.74847013  0.75027843  0.26012643  1
  Y3+  Y63  1  0.74864586  0.74797294  0.75445125  1
  Fe3+  Fe64  1  0.37519400  0.12524830  0.37834786  1
  Fe3+  Fe65  1  0.37396835  0.12451265  0.87680939  1
  Fe3+  Fe66  1  0.37586110  0.37474130  0.37678130  1
  Fe3+  Fe67  1  0.62576935  0.12502188  0.87966424  1
  Fe3+  Fe68  1  0.12380690  0.62372450  0.87632565  1
  Fe3+  Fe69  1  0.62409354  0.12597497  0.37660218  1
  Fe3+  Fe70  1  0.37553651  0.87534062  0.37572045  1
  Fe3+  Fe71  1  0.62583591  0.37563968  0.87963967  1
  Fe3+  Fe72  1  0.87428669  0.87343359  0.87613641  1
  Fe3+  Fe73  1  0.62590069  0.62497487  0.87729529  1
  Fe3+  Fe74  1  0.62434384  0.37457565  0.37861423  1
  Fe3+  Fe75  1  0.87521682  0.62484752  0.37934597  1
  Fe3+  Fe76  1  0.62601800  0.87422356  0.87718266  1
  Fe3+  Fe77  1  0.12438807  0.37532290  0.87694356  1
  Fe3+  Fe78  1  0.37469122  0.62506275  0.88036248  1
  Fe3+  Fe79  1  0.87485635  0.12515385  0.37902733  1
  Fe3+  Fe80  1  0.12401222  0.12601503  0.88007270  1
  Fe3+  Fe81  1  0.12583417  0.62426030  0.38021444  1
  Fe3+  Fe82  1  0.12607229  0.87505491  0.37886945  1
  Fe3+  Fe83  1  0.37552873  0.87390138  0.87926489  1
  Fe3+  Fe84  1  0.62635078  0.12607748  0.13410871  1
  Fe3+  Fe85  1  0.12465969  0.62426801  0.63366394  1
  Fe3+  Fe86  1  0.37468132  0.12495746  0.63534702  1
  Fe3+  Fe87  1  0.37473113  0.87439654  0.13492352  1
  Fe3+  Fe88  1  0.87538952  0.62502437  0.63385056  1
  Fe3+  Fe89  1  0.62641169  0.37586217  0.13448206  1
  Fe3+  Fe90  1  0.87551165  0.12446927  0.63503558  1
  Fe3+  Fe91  1  0.87498115  0.87514329  0.63536058  1
  Fe3+  Fe92  1  0.12478081  0.87440766  0.63471109  1
  Fe3+  Fe93  1  0.12352876  0.12635499  0.13585899  1
  Fe3+  Fe94  1  0.37440998  0.62534931  0.13536842  1
  Fe3+  Fe95  1  0.62518277  0.37556304  0.63616123  1
  Cu2+  Cu96  1  0.87433594  0.37474557  0.37381795  1
  Cu2+  Cu97  1  0.62374584  0.87603010  0.36977308  1
  Cu2+  Cu98  1  0.87544990  0.12399190  0.87314580  1
  Cu2+  Cu99  1  0.87514390  0.62577621  0.87125196  1
  Cu2+  Cu100  1  0.12561642  0.12553366  0.37166945  1
  Cu2+  Cu101  1  0.12423068  0.87438314  0.87290701  1
  Cu2+  Cu102  1  0.37446081  0.62512725  0.37022274  1
  Cu2+  Cu103  1  0.87532387  0.37578090  0.87086910  1
  Cu2+  Cu104  1  0.37417583  0.37549760  0.87240610  1
  Cu2+  Cu105  1  0.12589808  0.37540279  0.37092683  1
  Cu2+  Cu106  1  0.87518549  0.87541491  0.36651582  1
  Cu2+  Cu107  1  0.62485538  0.62384622  0.37265338  1
  Cu2+  Cu108  1  0.62585101  0.62389797  0.64152533  1
  Cu2+  Cu109  1  0.37467320  0.62475615  0.64325499  1
  Cu2+  Cu110  1  0.37478518  0.87537463  0.65074441  1
  Cu2+  Cu111  1  0.12466341  0.62408587  0.15357554  1
  Cu2+  Cu112  1  0.62523970  0.87520309  0.15149121  1
  Cu2+  Cu113  1  0.62590182  0.87434700  0.64370712  1
  Cu2+  Cu114  1  0.37526781  0.37629447  0.14397839  1
  Cu2+  Cu115  1  0.87495742  0.37486683  0.64152609  1
  Cu2+  Cu116  1  0.62533682  0.62405715  0.15152192  1
  Cu2+  Cu117  1  0.12430326  0.87529149  0.14344634  1
  Cu2+  Cu118  1  0.37563947  0.37436369  0.64943577  1
  Cu2+  Cu119  1  0.87486161  0.87456069  0.15558639  1
  Cu2+  Cu120  1  0.12428278  0.12512164  0.64186697  1
  Cu2+  Cu121  1  0.87452636  0.37564481  0.14532532  1
  Cu2+  Cu122  1  0.87532468  0.62494969  0.14738732  1
  Cu2+  Cu123  1  0.87570091  0.12546090  0.14384861  1
  Cu2+  Cu124  1  0.62573670  0.12574610  0.65029241  1
  Cu2+  Cu125  1  0.12403870  0.37488213  0.15132596  1
  Cu2+  Cu126  1  0.37427310  0.12467595  0.14860883  1
  Cu2+  Cu127  1  0.12468156  0.37549616  0.64330694  1
  O2-  O128  1  0.12415871  0.12596166  0.00713193  1
  O2-  O129  1  0.12593879  0.12408018  0.50709598  1
  O2-  O130  1  0.12431132  0.37525656  -0.00222188  1
  O2-  O131  1  0.12655195  0.37582430  0.50692562  1
  O2-  O132  1  0.12348786  0.62385280  -0.00266701  1
  O2-  O133  1  0.12627901  0.62536498  0.50674652  1
  O2-  O134  1  0.12394957  0.87513819  0.00758332  1
  O2-  O135  1  0.12670326  0.87522272  0.50677872  1
  O2-  O136  1  0.37423628  0.12351594  -0.00270229  1
  O2-  O137  1  0.37600990  0.12504114  0.50596693  1
  O2-  O138  1  0.37455364  0.37645604  0.00751819  1
  O2-  O139  1  0.37755345  0.37319275  0.49721747  1
  O2-  O140  1  0.37460183  0.62595661  0.00698585  1
  O2-  O141  1  0.37462532  0.62520267  0.50711830  1
  O2-  O142  1  0.37515954  0.87413567  0.00600879  1
  O2-  O143  1  0.37535175  0.87652435  0.49628596  1
  O2-  O144  1  0.62585145  0.12521591  0.00637027  1
  O2-  O145  1  0.62268562  0.12565578  0.49686247  1
  O2-  O146  1  0.62635779  0.37562190  0.00684042  1
  O2-  O147  1  0.62322397  0.37377478  0.50682551  1
  O2-  O148  1  0.62609518  0.62538952  -0.00214423  1
  O2-  O149  1  0.62491464  0.62410154  0.50703092  1
  O2-  O150  1  0.62629153  0.87484894  -0.00233001  1
  O2-  O151  1  0.62335474  0.87545150  0.50602668  1
  O2-  O152  1  0.87555861  0.12352118  0.00773947  1
  O2-  O153  1  0.87439771  0.12441780  0.50715255  1
  O2-  O154  1  0.87473225  0.37662189  0.00790284  1
  O2-  O155  1  0.87331311  0.37389491  0.50725560  1
  O2-  O156  1  0.87608293  0.62692649  0.00806261  1
  O2-  O157  1  0.87521281  0.62505669  0.50701708  1
  O2-  O158  1  0.87418656  0.87258174  -0.00271009  1
  O2-  O159  1  0.87554084  0.87665215  0.51497710  1
  O2-  O160  1  0.12504550  0.00314690  0.16480794  1
  O2-  O161  1  0.12517165  -0.00344348  0.66511742  1
  O2-  O162  1  0.12502660  0.24924810  0.16346319  1
  O2-  O163  1  0.12504408  0.25048745  0.66570744  1
  O2-  O164  1  0.12504113  0.49934925  0.16617796  1
  O2-  O165  1  0.12485604  0.50273701  0.66202823  1
  O2-  O166  1  0.12488485  0.74878757  0.16760655  1
  O2-  O167  1  0.12535077  0.74998678  0.66097109  1
  O2-  O168  1  0.37499291  -0.00165250  0.16204319  1
  O2-  O169  1  0.37510675  0.00144997  0.66303445  1
  O2-  O170  1  0.37513762  0.24917753  0.16377432  1
  O2-  O171  1  0.37584178  0.24806843  0.66322645  1
  O2-  O172  1  0.37499003  0.50366801  0.16394128  1
  O2-  O173  1  0.37523322  0.49820804  0.66568771  1
  O2-  O174  1  0.37445007  0.74972722  0.16186747  1
  O2-  O175  1  0.37458249  0.75173387  0.66605251  1
  O2-  O176  1  0.62449131  0.00189592  0.16115487  1
  O2-  O177  1  0.62507312  0.00119962  0.66588497  1
  O2-  O178  1  0.62475270  0.25036442  0.16136461  1
  O2-  O179  1  0.62477733  0.25174015  0.66586906  1
  O2-  O180  1  0.62488508  0.49844401  0.16456543  1
  O2-  O181  1  0.62495343  0.49691266  0.66465460  1
  O2-  O182  1  0.62492340  0.74995983  0.16507162  1
  O2-  O183  1  0.62486441  0.74953247  0.66359811  1
  O2-  O184  1  0.87522310  -0.00117901  0.16582916  1
  O2-  O185  1  0.87535889  0.00053773  0.66541854  1
  O2-  O186  1  0.87483111  0.25077430  0.16644644  1
  O2-  O187  1  0.87441641  0.24706948  0.66467972  1
  O2-  O188  1  0.87474067  0.50015714  0.16781090  1
  O2-  O189  1  0.87546446  0.50268909  0.66358608  1
  O2-  O190  1  0.87509549  0.75064868  0.16835654  1
  O2-  O191  1  0.87586272  0.74929047  0.66238445  1
  O2-  O192  1  0.00230561  0.12519672  0.16731578  1
  O2-  O193  1  -0.00266785  0.12410541  0.66399978  1
  O2-  O194  1  0.00053924  0.37516330  0.16731540  1
  O2-  O195  1  -0.00056364  0.37467939  0.66388296  1
  O2-  O196  1  0.00140503  0.62485648  0.16981852  1
  O2-  O197  1  0.00004481  0.62616136  0.66068277  1
  O2-  O198  1  -0.00124666  0.87510658  0.16860390  1
  O2-  O199  1  0.00099147  0.87430306  0.66319570  1
  O2-  O200  1  0.24775089  0.12522705  0.16358670  1
  O2-  O201  1  0.25257546  0.12417815  0.66370214  1
  O2-  O202  1  0.24881322  0.37517483  0.16459413  1
  O2-  O203  1  0.25167151  0.37477257  0.66353454  1
  O2-  O204  1  0.25096223  0.62538684  0.16291254  1
  O2-  O205  1  0.24712533  0.62563912  0.66478451  1
  O2-  O206  1  0.25281236  0.87512790  0.16309823  1
  O2-  O207  1  0.24812218  0.87478840  0.66426379  1
  O2-  O208  1  0.50199244  0.12545424  0.16069086  1
  O2-  O209  1  0.49842041  0.12504725  0.66407971  1
  O2-  O210  1  0.50325246  0.37503787  0.16197622  1
  O2-  O211  1  0.50142988  0.37396236  0.66568449  1
  O2-  O212  1  0.49861740  0.62552521  0.16265508  1
  O2-  O213  1  0.49979903  0.62432699  0.66611011  1
  O2-  O214  1  0.49819707  0.87510167  0.16043141  1
  O2-  O215  1  0.49922613  0.87547257  0.66596398  1
  O2-  O216  1  0.74740392  0.12537934  0.16542282  1
  O2-  O217  1  0.75201539  0.12495832  0.66308716  1
  O2-  O218  1  0.74716731  0.37510525  0.16721912  1
  O2-  O219  1  0.74784763  0.37437035  0.66352243  1
  O2-  O220  1  0.74872677  0.62495011  0.16841768  1
  O2-  O221  1  0.75337839  0.62466350  0.66259222  1
  O2-  O222  1  0.74991512  0.87522184  0.16593102  1
  O2-  O223  1  0.75235929  0.87540773  0.66442167  1
  O2-  O224  1  0.12578878  -0.00272406  0.34953173  1
  O2-  O225  1  0.12577583  0.00288639  0.84978082  1
  O2-  O226  1  0.12555541  0.25024479  0.34770754  1
  O2-  O227  1  0.12514939  0.24913570  0.84831652  1
  O2-  O228  1  0.12500104  0.50272555  0.35051938  1
  O2-  O229  1  0.12560804  0.49971953  0.84332554  1
  O2-  O230  1  0.12536489  0.75029348  0.35246833  1
  O2-  O231  1  0.12605344  0.74766747  0.84423945  1
  O2-  O232  1  0.37462424  0.00152751  0.34597580  1
  O2-  O233  1  0.37512546  -0.00130094  0.84709314  1
  O2-  O234  1  0.37566971  0.24893718  0.34695857  1
  O2-  O235  1  0.37564500  0.24767349  0.84652386  1
  O2-  O236  1  0.37553001  0.49820841  0.34688798  1
  O2-  O237  1  0.37535296  0.50334170  0.84944377  1
  O2-  O238  1  0.37416778  0.75181797  0.34531702  1
  O2-  O239  1  0.37525387  0.74967127  0.85018440  1
  O2-  O240  1  0.62457611  0.00299699  0.34451917  1
  O2-  O241  1  0.62434284  0.00065345  0.84910745  1
  O2-  O242  1  0.62415705  0.25057016  0.34495000  1
  O2-  O243  1  0.62436646  0.24982249  0.85184370  1
  O2-  O244  1  0.62435441  0.49663777  0.34945881  1
  O2-  O245  1  0.62459302  0.49935958  0.84806121  1
  O2-  O246  1  0.62466404  0.74998574  0.35006591  1
  O2-  O247  1  0.62390920  0.74989085  0.84478814  1
  O2-  O248  1  0.87500618  0.00178255  0.35008037  1
  O2-  O249  1  0.87461197  -0.00239760  0.84696434  1
  O2-  O250  1  0.87441382  0.24745717  0.34996959  1
  O2-  O251  1  0.87464161  0.25019879  0.84921049  1
  O2-  O252  1  0.87533118  0.50251561  0.35115384  1
  O2-  O253  1  0.87443720  0.49999911  0.84731695  1
  O2-  O254  1  0.87557671  0.74872410  0.35263914  1
  O2-  O255  1  0.87458392  0.75152356  0.84306713  1
  O2-  O256  1  -0.00236147  0.12457466  0.35180150  1
  O2-  O257  1  0.00303763  0.12490636  0.84773927  1
  O2-  O258  1  0.00000711  0.37469010  0.35132162  1
  O2-  O259  1  0.00165101  0.37453589  0.84586376  1
  O2-  O260  1  0.00059420  0.62626810  0.35440602  1
  O2-  O261  1  0.00142963  0.62480692  0.84366637  1
  O2-  O262  1  0.00243528  0.87520632  0.35340383  1
  O2-  O263  1  -0.00172527  0.87505712  0.84512794  1
  O2-  O264  1  0.25314040  0.12464764  0.34849448  1
  O2-  O265  1  0.24846137  0.12436323  0.84722130  1
  O2-  O266  1  0.25235914  0.37463246  0.34748077  1
  O2-  O267  1  0.24787601  0.37464227  0.84601277  1
  O2-  O268  1  0.24712600  0.62587595  0.34736779  1
  O2-  O269  1  0.25138897  0.62555325  0.84841177  1
  O2-  O270  1  0.24892178  0.87534829  0.34594511  1
  O2-  O271  1  0.25338758  0.87485084  0.84949004  1
  O2-  O272  1  0.49831917  0.12549987  0.34437915  1
  O2-  O273  1  0.50130683  0.12450173  0.84868911  1
  O2-  O274  1  0.50078719  0.37403040  0.34477013  1
  O2-  O275  1  0.50310388  0.37474336  0.85047459  1
  O2-  O276  1  0.49978196  0.62465632  0.34712751  1
  O2-  O277  1  0.49906121  0.62489642  0.84949051  1
  O2-  O278  1  0.49800486  0.87622810  0.34296191  1
  O2-  O279  1  0.49931401  0.87533638  0.84914996  1
  O2-  O280  1  0.75069018  0.12543261  0.34928098  1
  O2-  O281  1  0.74663848  0.12539483  0.84764077  1
  O2-  O282  1  0.74692221  0.37413907  0.35113579  1
  O2-  O283  1  0.74722358  0.37455069  0.84777857  1
  O2-  O284  1  0.75270667  0.62470349  0.35228810  1
  O2-  O285  1  0.74803515  0.62455639  0.84493653  1
  O2-  O286  1  0.75065523  0.87587867  0.35057683  1
  O2-  O287  1  0.74887279  0.87510925  0.84371992  1
