# generated using pymatgen
data_BaYFeCuO5
_symmetry_space_group_name_H-M   'P 1'
_cell_length_a   15.66384467
_cell_length_b   15.66411779
_cell_length_c   15.47159384
_cell_angle_alpha   89.99441716
_cell_angle_beta   90.00148825
_cell_angle_gamma   90.00502197
_symmetry_Int_Tables_number   1
_chemical_formula_structural   BaYFeCuO5
_chemical_formula_sum   'Ba32 Y32 Fe32 Cu32 O160'
_cell_volume   3796.11499658
_cell_formula_units_Z   32
loop_
 _symmetry_equiv_pos_site_id
 _symmetry_equiv_pos_as_xyz
  1  'x, y, z'
loop_
 _atom_type_symbol
 _atom_type_oxidation_number
  Ba2+  2.0
  Y3+  3.0
  Fe3+  3.0
  Cu2+  2.0
  O2-  -2.0
loop_
 _atom_site_type_symbol
 _atom_site_label
 _atom_site_symmetry_multiplicity
 _atom_site_fract_x
 _atom_site_fract_y
 _atom_site_fract_z
 _atom_site_occupancy
  Ba2+  Ba0  1  0.00434969  -0.00458666  0.01272161  1
  Ba2+  Ba1  1  -0.00341501  -0.00449680  0.51295242  1
  Ba2+  Ba2  1  -0.00105792  0.25802380  0.00537026  1
  Ba2+  Ba3  1  -0.00409992  0.25385313  0.51288199  1
  Ba2+  Ba4  1  -0.00515412  0.50070769  0.00572487  1
  Ba2+  Ba5  1  0.00684138  0.49885143  0.51712312  1
  Ba2+  Ba6  1  -0.00113550  0.74584745  0.01245536  1
  Ba2+  Ba7  1  0.00756726  0.75162604  0.51669648  1
  Ba2+  Ba8  1  0.24879120  -0.00765084  0.01652680  1
  Ba2+  Ba9  1  0.25645111  -0.00243898  0.51694510  1
  Ba2+  Ba10  1  0.24115929  0.24988303  0.00660332  1
  Ba2+  Ba11  1  0.25762205  0.25119297  0.50449615  1
  Ba2+  Ba12  1  0.24467966  0.50542835  0.01230627  1
  Ba2+  Ba13  1  0.24780272  0.50391425  0.51235569  1
  Ba2+  Ba14  1  0.25099328  0.75136374  0.02055350  1
  Ba2+  Ba15  1  0.24842460  0.74823904  0.51960164  1
  Ba2+  Ba16  1  0.50311516  -0.00882419  0.01084769  1
  Ba2+  Ba17  1  0.49823929  0.00425373  0.51258565  1
  Ba2+  Ba18  1  0.50887670  0.24914087  0.01781664  1
  Ba2+  Ba19  1  0.50079361  0.24887681  0.50638520  1
  Ba2+  Ba20  1  0.49990257  0.50169754  0.01666768  1
  Ba2+  Ba21  1  0.49766752  0.49259090  0.50445851  1
  Ba2+  Ba22  1  0.49590470  0.75780355  0.01075126  1
  Ba2+  Ba23  1  0.49455711  0.75442985  0.51302372  1
  Ba2+  Ba24  1  0.74376262  -0.00606655  0.00727105  1
  Ba2+  Ba25  1  0.74859331  0.00202900  0.50576643  1
  Ba2+  Ba26  1  0.74948803  0.25654609  0.01694392  1
  Ba2+  Ba27  1  0.74534372  0.25095148  0.51224314  1
  Ba2+  Ba28  1  0.75919310  0.49742729  0.01127785  1
  Ba2+  Ba29  1  0.74766468  0.48913794  0.51185880  1
  Ba2+  Ba30  1  0.75455246  0.75291913  0.00001739  1
  Ba2+  Ba31  1  0.74998574  0.75898582  0.50685285  1
  Y3+  Y32  1  0.00090955  0.00140577  0.25719640  1
  Y3+  Y33  1  -0.00094145  -0.00247737  0.75667970  1
  Y3+  Y34  1  -0.00113508  0.24923918  0.25567770  1
  Y3+  Y35  1  -0.00072915  0.25408576  0.75879507  1
  Y3+  Y36  1  -0.00057617  0.50273756  0.25555010  1
  Y3+  Y37  1  -0.00063271  0.49876831  0.75863011  1
  Y3+  Y38  1  0.00194000  0.74682523  0.25683375  1
  Y3+  Y39  1  -0.00110006  0.74947269  0.75669890  1
  Y3+  Y40  1  0.25097110  0.00021184  0.25615401  1
  Y3+  Y41  1  0.25319590  -0.00151135  0.75670379  1
  Y3+  Y42  1  0.25118120  0.24812597  0.25854570  1
  Y3+  Y43  1  0.24962536  0.24997133  0.75604047  1
  Y3+  Y44  1  0.24925808  0.50301765  0.25904804  1
  Y3+  Y45  1  0.24742011  0.50094048  0.75519782  1
  Y3+  Y46  1  0.24912242  0.74888567  0.25587370  1
  Y3+  Y47  1  0.25096622  0.75049027  0.75476329  1
  Y3+  Y48  1  0.50089503  -0.00119750  0.25525426  1
  Y3+  Y49  1  0.49847655  -0.00117801  0.75939183  1
  Y3+  Y50  1  0.50103884  0.25013107  0.26065047  1
  Y3+  Y51  1  0.50098892  0.24833543  0.75376025  1
  Y3+  Y52  1  0.50100655  0.49888744  0.25877834  1
  Y3+  Y53  1  0.50017650  0.50017226  0.75476082  1
  Y3+  Y54  1  0.49969058  0.75217626  0.25413485  1
  Y3+  Y55  1  0.49844655  0.75221001  0.76023406  1
  Y3+  Y56  1  0.74785554  0.00008414  0.25593482  1
  Y3+  Y57  1  0.74927387  -0.00215405  0.75942754  1
  Y3+  Y58  1  0.74912625  0.25132157  0.25727055  1
  Y3+  Y59  1  0.74973812  0.25251582  0.75663987  1
  Y3+  Y60  1  0.75086111  0.49839761  0.25572687  1
  Y3+  Y61  1  0.75210473  0.49855305  0.75828498  1
  Y3+  Y62  1  0.74979613  0.75004815  0.25556148  1
  Y3+  Y63  1  0.75132417  0.75111882  0.76008948  1
  Fe3+  Fe64  1  0.87564654  0.37470876  0.37651535  1
  Fe3+  Fe65  1  0.12484447  0.62551771  0.87548319  1
  Fe3+  Fe66  1  0.12514530  0.37549971  0.37736325  1
  Fe3+  Fe67  1  0.62520428  0.12524937  0.87768676  1
  Fe3+  Fe68  1  0.62517784  0.12439980  0.37476241  1
  Fe3+  Fe69  1  0.12462125  0.12414822  0.87662246  1
  Fe3+  Fe70  1  0.37485893  0.37490131  0.88095192  1
  Fe3+  Fe71  1  0.87546322  0.62488450  0.38119940  1
  Fe3+  Fe72  1  0.37511866  0.12504911  0.88106368  1
  Fe3+  Fe73  1  0.62531840  0.62578082  0.38012075  1
  Fe3+  Fe74  1  0.37524860  0.87535716  0.37527983  1
  Fe3+  Fe75  1  0.87552377  0.87526262  0.37645103  1
  Fe3+  Fe76  1  0.37444336  0.62488574  0.87732124  1
  Fe3+  Fe77  1  0.12479828  0.12455395  0.38001887  1
  Fe3+  Fe78  1  0.87464287  0.12474026  0.88043247  1
  Fe3+  Fe79  1  0.12611596  0.87469893  0.37635204  1
  Fe3+  Fe80  1  0.12555984  0.87364119  0.87497424  1
  Fe3+  Fe81  1  0.37493644  0.62595319  0.37656156  1
  Fe3+  Fe82  1  0.62409633  0.37576403  0.87684952  1
  Fe3+  Fe83  1  0.62505641  0.62486858  0.87953369  1
  Fe3+  Fe84  1  0.62452493  0.62513970  0.63458949  1
  Fe3+  Fe85  1  0.87546970  0.87431895  0.13815338  1
  Fe3+  Fe86  1  0.37428981  0.37508691  0.13567378  1
  Fe3+  Fe87  1  0.12459911  0.37554952  0.13874619  1
  Fe3+  Fe88  1  0.62475611  0.87560113  0.63934909  1
  Fe3+  Fe89  1  0.87392833  0.62501050  0.63468430  1
  Fe3+  Fe90  1  0.12501722  0.12524710  0.63477535  1
  Fe3+  Fe91  1  0.37468430  0.37498724  0.63915692  1
  Fe3+  Fe92  1  0.87396561  0.12487197  0.63860301  1
  Fe3+  Fe93  1  0.37553891  0.12500125  0.13455014  1
  Fe3+  Fe94  1  0.62604091  0.62578021  0.13513462  1
  Fe3+  Fe95  1  0.87477597  0.12478594  0.13447113  1
  Cu2+  Cu96  1  0.37434542  0.37547726  0.36101207  1
  Cu2+  Cu97  1  0.87639167  0.87549073  0.86504882  1
  Cu2+  Cu98  1  0.62434476  0.87436924  0.87233266  1
  Cu2+  Cu99  1  0.12479804  0.62552799  0.37358369  1
  Cu2+  Cu100  1  0.37536211  0.12376454  0.37192094  1
  Cu2+  Cu101  1  0.87416513  0.37475006  0.87150038  1
  Cu2+  Cu102  1  0.37326076  0.87463173  0.87277647  1
  Cu2+  Cu103  1  0.87514085  0.12511322  0.36386559  1
  Cu2+  Cu104  1  0.62458052  0.87465008  0.36292410  1
  Cu2+  Cu105  1  0.62553724  0.37514484  0.37180353  1
  Cu2+  Cu106  1  0.87532529  0.62485557  0.87127466  1
  Cu2+  Cu107  1  0.12580383  0.37566257  0.86294435  1
  Cu2+  Cu108  1  0.62529581  0.12434676  0.65241741  1
  Cu2+  Cu109  1  0.62401260  0.37494107  0.64206438  1
  Cu2+  Cu110  1  0.12454081  0.62501069  0.64299500  1
  Cu2+  Cu111  1  0.37594298  0.87487089  0.65262285  1
  Cu2+  Cu112  1  0.62472170  0.37598445  0.15216933  1
  Cu2+  Cu113  1  0.87598365  0.37526529  0.14400020  1
  Cu2+  Cu114  1  0.62537418  0.12470950  0.14920084  1
  Cu2+  Cu115  1  0.12539996  0.37402321  0.65013586  1
  Cu2+  Cu116  1  0.87404786  0.87477300  0.65152785  1
  Cu2+  Cu117  1  0.12412618  0.87464383  0.15265435  1
  Cu2+  Cu118  1  0.37561191  0.62448803  0.14987931  1
  Cu2+  Cu119  1  0.12486619  0.62449147  0.14977161  1
  Cu2+  Cu120  1  0.87450888  0.62523036  0.14234242  1
  Cu2+  Cu121  1  0.37473249  0.87508260  0.14303565  1
  Cu2+  Cu122  1  0.12492709  0.12558424  0.14879805  1
  Cu2+  Cu123  1  0.87491415  0.37517485  0.65124277  1
  Cu2+  Cu124  1  0.12535517  0.87612133  0.65083261  1
  Cu2+  Cu125  1  0.37539474  0.12560861  0.64237283  1
  Cu2+  Cu126  1  0.37597406  0.62467277  0.64945586  1
  Cu2+  Cu127  1  0.62625892  0.87387607  0.14248260  1
  O2-  O128  1  0.12463039  0.12371859  -0.00317922  1
  O2-  O129  1  0.12471582  0.12490301  0.50702207  1
  O2-  O130  1  0.12508685  0.37582554  0.01782929  1
  O2-  O131  1  0.12561231  0.37401340  0.49785570  1
  O2-  O132  1  0.12532272  0.62619110  -0.00387084  1
  O2-  O133  1  0.12487036  0.62539783  0.50772768  1
  O2-  O134  1  0.12483186  0.87344796  -0.00451190  1
  O2-  O135  1  0.12659448  0.87643739  0.49670781  1
  O2-  O136  1  0.37491775  0.12547293  0.00727536  1
  O2-  O137  1  0.37506574  0.12509930  0.50678670  1
  O2-  O138  1  0.37494858  0.37497935  0.00790682  1
  O2-  O139  1  0.37453067  0.37490210  0.51814275  1
  O2-  O140  1  0.37429952  0.62432699  -0.00263516  1
  O2-  O141  1  0.37557351  0.62549602  0.49684945  1
  O2-  O142  1  0.37317039  0.87522869  0.00723305  1
  O2-  O143  1  0.37519023  0.87529962  0.49606571  1
  O2-  O144  1  0.62565527  0.12600493  -0.00214426  1
  O2-  O145  1  0.62534552  0.12426231  0.49596436  1
  O2-  O146  1  0.62367716  0.37654798  -0.00270028  1
  O2-  O147  1  0.62399238  0.37445720  0.50655231  1
  O2-  O148  1  0.62560354  0.62502841  0.00663769  1
  O2-  O149  1  0.62464169  0.62567208  0.50732961  1
  O2-  O150  1  0.62590623  0.87279794  0.00743858  1
  O2-  O151  1  0.62451035  0.87597347  0.51863458  1
  O2-  O152  1  0.87530779  0.12447019  0.00732493  1
  O2-  O153  1  0.87464587  0.12491953  0.51803964  1
  O2-  O154  1  0.87541273  0.37457788  0.00705138  1
  O2-  O155  1  0.87541339  0.37416942  0.49707358  1
  O2-  O156  1  0.87481891  0.62544293  0.00670851  1
  O2-  O157  1  0.87457456  0.62489807  0.50730310  1
  O2-  O158  1  0.87634274  0.87501808  0.01729462  1
  O2-  O159  1  0.87508520  0.87585120  0.49710601  1
  O2-  O160  1  0.12472439  0.00062270  0.16380370  1
  O2-  O161  1  0.12431302  0.00152195  0.66184899  1
  O2-  O162  1  0.12573629  0.25079427  0.16748905  1
  O2-  O163  1  0.12440158  0.24781636  0.66495818  1
  O2-  O164  1  0.12602509  0.49973211  0.16722035  1
  O2-  O165  1  0.12467030  0.49855946  0.66459070  1
  O2-  O166  1  0.12454371  0.74902117  0.16397975  1
  O2-  O167  1  0.12517453  0.75228738  0.66237402  1
  O2-  O168  1  0.37492037  0.00308406  0.16264873  1
  O2-  O169  1  0.37593403  -0.00095785  0.66654362  1
  O2-  O170  1  0.37527011  0.25016109  0.16275439  1
  O2-  O171  1  0.37442923  0.25165819  0.67001430  1
  O2-  O172  1  0.37498056  0.49802960  0.16270572  1
  O2-  O173  1  0.37520826  0.49967867  0.66724497  1
  O2-  O174  1  0.37513462  0.74849320  0.16419797  1
  O2-  O175  1  0.37543522  0.74983114  0.66260932  1
  O2-  O176  1  0.62529108  0.00054346  0.16350237  1
  O2-  O177  1  0.62473838  -0.00057397  0.66736207  1
  O2-  O178  1  0.62494784  0.25091850  0.16303789  1
  O2-  O179  1  0.62520846  0.24836056  0.66446291  1
  O2-  O180  1  0.62451490  0.50160029  0.16476739  1
  O2-  O181  1  0.62491600  0.50323578  0.66348809  1
  O2-  O182  1  0.62520060  0.74719095  0.16636473  1
  O2-  O183  1  0.62521634  0.74882553  0.66498552  1
  O2-  O184  1  0.87570771  0.00114285  0.16459904  1
  O2-  O185  1  0.87478215  0.00022583  0.66782700  1
  O2-  O186  1  0.87499447  0.24741182  0.16264749  1
  O2-  O187  1  0.87524049  0.24985743  0.66781025  1
  O2-  O188  1  0.87489556  0.50004870  0.16620023  1
  O2-  O189  1  0.87412519  0.50107398  0.66242239  1
  O2-  O190  1  0.87570699  0.75120052  0.16827237  1
  O2-  O191  1  0.87360966  0.74861520  0.66205137  1
  O2-  O192  1  -0.00180432  0.12494398  0.16425388  1
  O2-  O193  1  0.00084783  0.12472505  0.66488779  1
  O2-  O194  1  0.00189037  0.37483658  0.16687654  1
  O2-  O195  1  0.00015446  0.37460919  0.66428208  1
  O2-  O196  1  0.00115436  0.62467887  0.16554469  1
  O2-  O197  1  -0.00372356  0.62514878  0.66283356  1
  O2-  O198  1  -0.00021765  0.87565392  0.16643692  1
  O2-  O199  1  -0.00063538  0.87537748  0.66263391  1
  O2-  O200  1  0.25212809  0.12574044  0.16296524  1
  O2-  O201  1  0.24705573  0.12470457  0.66450296  1
  O2-  O202  1  0.25135274  0.37443290  0.16428037  1
  O2-  O203  1  0.25037245  0.37474299  0.66855135  1
  O2-  O204  1  0.25033828  0.62454004  0.16297525  1
  O2-  O205  1  0.25129267  0.62438801  0.66315604  1
  O2-  O206  1  0.24784707  0.87546985  0.16303461  1
  O2-  O207  1  0.25134580  0.87620192  0.66237200  1
  O2-  O208  1  0.49889621  0.12594564  0.16181421  1
  O2-  O209  1  0.50150366  0.12488826  0.66602711  1
  O2-  O210  1  0.49792308  0.37534467  0.16324934  1
  O2-  O211  1  0.49825439  0.37516637  0.66813436  1
  O2-  O212  1  0.50194269  0.62408080  0.16285975  1
  O2-  O213  1  0.50191426  0.62567161  0.66500262  1
  O2-  O214  1  0.50016701  0.87464641  0.16358730  1
  O2-  O215  1  0.50063620  0.87434018  0.66847372  1
  O2-  O216  1  0.75141406  0.12492497  0.16255171  1
  O2-  O217  1  0.75034807  0.12482169  0.66756346  1
  O2-  O218  1  0.74899620  0.37547063  0.16434273  1
  O2-  O219  1  0.75046363  0.37504715  0.66464236  1
  O2-  O220  1  0.74735693  0.62444181  0.16734415  1
  O2-  O221  1  0.74980141  0.62493752  0.66358371  1
  O2-  O222  1  0.75246391  0.87490580  0.16794337  1
  O2-  O223  1  0.74869093  0.87461041  0.66850429  1
  O2-  O224  1  0.12498698  0.00095774  0.34746531  1
  O2-  O225  1  0.12516496  0.00012386  0.84394681  1
  O2-  O226  1  0.12514212  0.24879278  0.34959714  1
  O2-  O227  1  0.12504869  0.24969402  0.84874793  1
  O2-  O228  1  0.12509094  0.49875410  0.34869183  1
  O2-  O229  1  0.12535489  0.50022255  0.84790834  1
  O2-  O230  1  0.12473411  0.75175073  0.34706341  1
  O2-  O231  1  0.12450856  0.74945403  0.84313795  1
  O2-  O232  1  0.37526997  -0.00224658  0.34435082  1
  O2-  O233  1  0.37419232  0.00339541  0.85055202  1
  O2-  O234  1  0.37483472  0.25138557  0.34763197  1
  O2-  O235  1  0.37483752  0.25000670  0.85327483  1
  O2-  O236  1  0.37580161  0.50095090  0.34673766  1
  O2-  O237  1  0.37509475  0.49868068  0.84925541  1
  O2-  O238  1  0.37583985  0.75052773  0.34497687  1
  O2-  O239  1  0.37507099  0.74755285  0.84586173  1
  O2-  O240  1  0.62542355  -0.00028278  0.34640984  1
  O2-  O241  1  0.62500826  0.00171255  0.84917814  1
  O2-  O242  1  0.62539039  0.24867342  0.34664271  1
  O2-  O243  1  0.62418592  0.25014951  0.84598250  1
  O2-  O244  1  0.62502158  0.50344537  0.34985089  1
  O2-  O245  1  0.62432588  0.50100480  0.84653941  1
  O2-  O246  1  0.62589305  0.74829367  0.35056480  1
  O2-  O247  1  0.62482371  0.74705239  0.84862304  1
  O2-  O248  1  0.87519631  -0.00049443  0.34701775  1
  O2-  O249  1  0.87535222  0.00176701  0.85118828  1
  O2-  O250  1  0.87571590  0.25027661  0.34591057  1
  O2-  O251  1  0.87524271  0.24709292  0.85117414  1
  O2-  O252  1  0.87471165  0.50117326  0.34862071  1
  O2-  O253  1  0.87464701  0.49923392  0.84693584  1
  O2-  O254  1  0.87409010  0.74914341  0.34990647  1
  O2-  O255  1  0.87510594  0.75155645  0.84679688  1
  O2-  O256  1  0.00203823  0.12483231  0.34914684  1
  O2-  O257  1  -0.00094036  0.12496315  0.84808378  1
  O2-  O258  1  0.00006390  0.37453914  0.34617530  1
  O2-  O259  1  0.00122439  0.37495463  0.84906364  1
  O2-  O260  1  -0.00331836  0.62522018  0.34927901  1
  O2-  O261  1  0.00164760  0.62457000  0.84577581  1
  O2-  O262  1  0.00029402  0.87565106  0.34679351  1
  O2-  O263  1  0.00131967  0.87542794  0.84580622  1
  O2-  O264  1  0.24693872  0.12517395  0.34796423  1
  O2-  O265  1  0.25094941  0.12624879  0.84823116  1
  O2-  O266  1  0.24911859  0.37429139  0.34600797  1
  O2-  O267  1  0.25234395  0.37399715  0.85200494  1
  O2-  O268  1  0.25193672  0.62525588  0.34620518  1
  O2-  O269  1  0.24975006  0.62420592  0.84454687  1
  O2-  O270  1  0.25014069  0.87542609  0.34380706  1
  O2-  O271  1  0.24803805  0.87502785  0.84445258  1
  O2-  O272  1  0.50187671  0.12490637  0.34517689  1
  O2-  O273  1  0.49881679  0.12558149  0.84941752  1
  O2-  O274  1  0.49854205  0.37548662  0.34805553  1
  O2-  O275  1  0.49852785  0.37534019  0.84885797  1
  O2-  O276  1  0.50126294  0.62509273  0.34741077  1
  O2-  O277  1  0.50072229  0.62394035  0.84873825  1
  O2-  O278  1  0.50010087  0.87433187  0.34619210  1
  O2-  O279  1  0.49905599  0.87499816  0.85107678  1
  O2-  O280  1  0.74965727  0.12448138  0.34626053  1
  O2-  O281  1  0.75083377  0.12479664  0.84972906  1
  O2-  O282  1  0.75253296  0.37535242  0.34675650  1
  O2-  O283  1  0.74714111  0.37526402  0.84692334  1
  O2-  O284  1  0.75051771  0.62536492  0.35209337  1
  O2-  O285  1  0.74734928  0.62495224  0.84890754  1
  O2-  O286  1  0.75027773  0.87481875  0.34957716  1
  O2-  O287  1  0.75147782  0.87457444  0.85133332  1
