# generated using pymatgen
data_BaYFeCuO5
_symmetry_space_group_name_H-M   'P 1'
_cell_length_a   15.68589896
_cell_length_b   15.68005733
_cell_length_c   15.52237293
_cell_angle_alpha   89.98971427
_cell_angle_beta   89.99116672
_cell_angle_gamma   89.98988921
_symmetry_Int_Tables_number   1
_chemical_formula_structural   BaYFeCuO5
_chemical_formula_sum   'Ba32 Y32 Fe32 Cu32 O160'
_cell_volume   3817.81740640
_cell_formula_units_Z   32
loop_
 _symmetry_equiv_pos_site_id
 _symmetry_equiv_pos_as_xyz
  1  'x, y, z'
loop_
 _atom_type_symbol
 _atom_type_oxidation_number
  Ba2+  2.0
  Y3+  3.0
  Fe3+  3.0
  Cu2+  2.0
  O2-  -2.0
loop_
 _atom_site_type_symbol
 _atom_site_label
 _atom_site_symmetry_multiplicity
 _atom_site_fract_x
 _atom_site_fract_y
 _atom_site_fract_z
 _atom_site_occupancy
  Ba2+  Ba0  1  -0.00391661  -0.00297704  0.01166976  1
  Ba2+  Ba1  1  0.00580237  0.00394331  0.51110626  1
  Ba2+  Ba2  1  0.00332869  0.24384501  0.02205636  1
  Ba2+  Ba3  1  -0.00029710  0.25397696  0.49967148  1
  Ba2+  Ba4  1  0.00433428  0.50637381  0.01504020  1
  Ba2+  Ba5  1  -0.00125127  0.49796394  0.51169940  1
  Ba2+  Ba6  1  -0.00143872  0.75167715  0.00593586  1
  Ba2+  Ba7  1  0.00586226  0.74368291  0.52435344  1
  Ba2+  Ba8  1  0.25127205  0.00150214  0.01835254  1
  Ba2+  Ba9  1  0.24966569  -0.00081272  0.50558740  1
  Ba2+  Ba10  1  0.25080716  0.24817677  0.01739106  1
  Ba2+  Ba11  1  0.24865432  0.25101050  0.50595613  1
  Ba2+  Ba12  1  0.24412065  0.49819325  0.00724214  1
  Ba2+  Ba13  1  0.24928532  0.50173720  0.52085552  1
  Ba2+  Ba14  1  0.24348688  0.75214723  0.00613285  1
  Ba2+  Ba15  1  0.24867996  0.74842292  0.52010959  1
  Ba2+  Ba16  1  0.50029238  0.00269417  0.02161333  1
  Ba2+  Ba17  1  0.49685838  0.00522789  0.50706361  1
  Ba2+  Ba18  1  0.50007148  0.24842988  0.00490900  1
  Ba2+  Ba19  1  0.49692121  0.24530402  0.51670815  1
  Ba2+  Ba20  1  0.50363122  0.49447366  -0.00075588  1
  Ba2+  Ba21  1  0.49716799  0.50611335  0.51731557  1
  Ba2+  Ba22  1  0.50499906  0.75530429  0.01207066  1
  Ba2+  Ba23  1  0.49639092  0.74416540  0.50585463  1
  Ba2+  Ba24  1  0.75204551  -0.00214024  0.01211078  1
  Ba2+  Ba25  1  0.74843906  0.00978026  0.51079383  1
  Ba2+  Ba26  1  0.74532224  0.24374134  0.01443952  1
  Ba2+  Ba27  1  0.75567317  0.24846973  0.51220582  1
  Ba2+  Ba28  1  0.74592422  0.50506815  0.01441372  1
  Ba2+  Ba29  1  0.75555200  0.50233997  0.51183332  1
  Ba2+  Ba30  1  0.75337654  0.75370824  0.01217367  1
  Ba2+  Ba31  1  0.74833820  0.73892185  0.51145494  1
  Y3+  Y32  1  -0.00085991  0.00056364  0.25560591  1
  Y3+  Y33  1  -0.00061789  -0.00250099  0.75835693  1
  Y3+  Y34  1  0.00154959  0.25130682  0.25882174  1
  Y3+  Y35  1  -0.00279013  0.25045504  0.75461008  1
  Y3+  Y36  1  0.00098277  0.49910326  0.25529286  1
  Y3+  Y37  1  -0.00078497  0.50097427  0.75782714  1
  Y3+  Y38  1  -0.00119743  0.74873307  0.25070447  1
  Y3+  Y39  1  0.00124698  0.75071152  0.76252922  1
  Y3+  Y40  1  0.25105714  0.00012758  0.25781383  1
  Y3+  Y41  1  0.24862858  -0.00113820  0.75633962  1
  Y3+  Y42  1  0.24709360  0.24999268  0.25712298  1
  Y3+  Y43  1  0.25278749  0.25138819  0.75725521  1
  Y3+  Y44  1  0.24669945  0.49962576  0.25285897  1
  Y3+  Y45  1  0.25042271  0.50009818  0.76164706  1
  Y3+  Y46  1  0.25071703  0.75097511  0.25339846  1
  Y3+  Y47  1  0.24681339  0.74949544  0.76128480  1
  Y3+  Y48  1  0.49945797  0.00063996  0.26173584  1
  Y3+  Y49  1  0.50121692  0.00157318  0.75378411  1
  Y3+  Y50  1  0.50118352  0.24766422  0.25964736  1
  Y3+  Y51  1  0.49935988  0.25060306  0.75522409  1
  Y3+  Y52  1  0.50219774  0.50211651  0.25886018  1
  Y3+  Y53  1  0.49949730  0.49877815  0.75612764  1
  Y3+  Y54  1  0.50058749  0.74975958  0.25942172  1
  Y3+  Y55  1  0.50123368  0.74919187  0.75543500  1
  Y3+  Y56  1  0.75039250  0.00162900  0.25845291  1
  Y3+  Y57  1  0.75063458  -0.00010239  0.75546951  1
  Y3+  Y58  1  0.75053207  0.24951830  0.26210317  1
  Y3+  Y59  1  0.75012187  0.24968938  0.75311816  1
  Y3+  Y60  1  0.75045126  0.50141662  0.26075231  1
  Y3+  Y61  1  0.75047249  0.49935872  0.75378214  1
  Y3+  Y62  1  0.75028575  0.74776739  0.25696429  1
  Y3+  Y63  1  0.75072471  0.75089457  0.75709995  1
  Fe3+  Fe64  1  0.87750779  0.62534953  0.37491404  1
  Fe3+  Fe65  1  0.62553291  0.87449643  0.38127054  1
  Fe3+  Fe66  1  0.37238529  0.62455583  0.37379763  1
  Fe3+  Fe67  1  0.87488537  0.12526301  0.87571460  1
  Fe3+  Fe68  1  0.12338831  0.37284856  0.87876090  1
  Fe3+  Fe69  1  0.37348125  0.12578707  0.37575493  1
  Fe3+  Fe70  1  0.12482039  0.12499158  0.87709146  1
  Fe3+  Fe71  1  0.62509654  0.12404313  0.87382232  1
  Fe3+  Fe72  1  0.87657083  0.12457167  0.37581820  1
  Fe3+  Fe73  1  0.37418276  0.37688127  0.37799211  1
  Fe3+  Fe74  1  0.87353109  0.37429429  0.88118530  1
  Fe3+  Fe75  1  0.37565284  0.62528966  0.87972215  1
  Fe3+  Fe76  1  0.87408362  0.62449221  0.87637681  1
  Fe3+  Fe77  1  0.87629562  0.87350289  0.38103570  1
  Fe3+  Fe78  1  0.62554182  0.62557131  0.87511678  1
  Fe3+  Fe79  1  0.37648160  0.87647858  0.87770477  1
  Fe3+  Fe80  1  0.12541352  0.62528100  0.37390512  1
  Fe3+  Fe81  1  0.12451062  0.87293378  0.37667605  1
  Fe3+  Fe82  1  0.62477180  0.37542940  0.38182189  1
  Fe3+  Fe83  1  0.37481504  0.12438181  0.87510904  1
  Fe3+  Fe84  1  0.62561088  0.87560308  0.14224312  1
  Fe3+  Fe85  1  0.12497414  0.37498841  0.63916409  1
  Fe3+  Fe86  1  0.62481740  0.37529455  0.63520659  1
  Fe3+  Fe87  1  0.62465819  0.37452253  0.14003549  1
  Fe3+  Fe88  1  0.37426408  0.87477772  0.63702676  1
  Fe3+  Fe89  1  0.87418564  0.37487295  0.13542565  1
  Fe3+  Fe90  1  0.37615692  0.37490234  0.13716941  1
  Fe3+  Fe91  1  0.12479107  0.87572817  0.13751154  1
  Fe3+  Fe92  1  0.87573537  0.87466856  0.63364028  1
  Fe3+  Fe93  1  0.62495258  0.87451782  0.63360633  1
  Fe3+  Fe94  1  0.37639202  0.62498735  0.13263401  1
  Fe3+  Fe95  1  0.12524125  0.12573547  0.63768716  1
  Cu2+  Cu96  1  0.62496373  0.12576390  0.37521509  1
  Cu2+  Cu97  1  0.12500690  0.12465694  0.36164549  1
  Cu2+  Cu98  1  0.37395256  0.87376938  0.36495792  1
  Cu2+  Cu99  1  0.12532655  0.87667613  0.86528844  1
  Cu2+  Cu100  1  0.87555486  0.37623998  0.37205271  1
  Cu2+  Cu101  1  0.12420195  0.62427197  0.87371701  1
  Cu2+  Cu102  1  0.62455512  0.87582493  0.85953906  1
  Cu2+  Cu103  1  0.62495385  0.62448324  0.37429227  1
  Cu2+  Cu104  1  0.62645402  0.37414261  0.85992421  1
  Cu2+  Cu105  1  0.37527226  0.37420559  0.86551864  1
  Cu2+  Cu106  1  0.87380400  0.87558537  0.87199778  1
  Cu2+  Cu107  1  0.12569647  0.37648300  0.36239494  1
  Cu2+  Cu108  1  0.62448354  0.62472644  0.15231940  1
  Cu2+  Cu109  1  0.62514816  0.12545584  0.15652730  1
  Cu2+  Cu110  1  0.87398488  0.87519227  0.14316967  1
  Cu2+  Cu111  1  0.12465635  0.37435908  0.14838227  1
  Cu2+  Cu112  1  0.37420120  0.37545244  0.65033514  1
  Cu2+  Cu113  1  0.37571205  0.12587852  0.15496279  1
  Cu2+  Cu114  1  0.62485520  0.12507944  0.64007145  1
  Cu2+  Cu115  1  0.62494019  0.62510192  0.64179997  1
  Cu2+  Cu116  1  0.87580449  0.62564991  0.65369631  1
  Cu2+  Cu117  1  0.37606070  0.87514594  0.15213077  1
  Cu2+  Cu118  1  0.12479446  0.87473449  0.65245904  1
  Cu2+  Cu119  1  0.12497041  0.62420859  0.65829359  1
  Cu2+  Cu120  1  0.87432892  0.62438632  0.14858004  1
  Cu2+  Cu121  1  0.87617367  0.37499471  0.64056628  1
  Cu2+  Cu122  1  0.37404774  0.62593379  0.65775511  1
  Cu2+  Cu123  1  0.12561713  0.62615903  0.13940636  1
  Cu2+  Cu124  1  0.12497509  0.12392707  0.15353921  1
  Cu2+  Cu125  1  0.87435933  0.12565739  0.15324494  1
  Cu2+  Cu126  1  0.87652532  0.12434743  0.64966785  1
  Cu2+  Cu127  1  0.37328576  0.12450814  0.65079423  1
  O2-  O128  1  0.12581943  0.12469798  -0.00297860  1
  O2-  O129  1  0.12589395  0.12639576  0.51732947  1
  O2-  O130  1  0.12357419  0.37142266  -0.00101156  1
  O2-  O131  1  0.12561588  0.37625374  0.51891514  1
  O2-  O132  1  0.12551943  0.62550635  0.00601400  1
  O2-  O133  1  0.12651926  0.62499006  0.49384740  1
  O2-  O134  1  0.12464688  0.87792122  0.01684404  1
  O2-  O135  1  0.12474005  0.87135008  0.49682073  1
  O2-  O136  1  0.37616402  0.12418648  -0.00505617  1
  O2-  O137  1  0.37204252  0.12576887  0.49619197  1
  O2-  O138  1  0.37800982  0.37306102  0.01713890  1
  O2-  O139  1  0.37274606  0.37833762  0.49768819  1
  O2-  O140  1  0.37810378  0.62492397  0.00575227  1
  O2-  O141  1  0.37046523  0.62449739  0.49389705  1
  O2-  O142  1  0.37833010  0.87856966  -0.00274697  1
  O2-  O143  1  0.37292976  0.87264956  0.51713510  1
  O2-  O144  1  0.62473243  0.12343287  -0.00616519  1
  O2-  O145  1  0.62398508  0.12608660  0.50711788  1
  O2-  O146  1  0.62508063  0.37334778  0.02005325  1
  O2-  O147  1  0.62419888  0.37604163  0.50808253  1
  O2-  O148  1  0.62480319  0.62584985  -0.00485673  1
  O2-  O149  1  0.62395051  0.62411945  0.50735046  1
  O2-  O150  1  0.62533686  0.87713301  0.02160175  1
  O2-  O151  1  0.62481356  0.87358287  0.50776236  1
  O2-  O152  1  0.87360855  0.12545504  -0.00441319  1
  O2-  O153  1  0.87833134  0.12475663  0.49628659  1
  O2-  O154  1  0.87261146  0.37375088  0.00710078  1
  O2-  O155  1  0.87658327  0.37603778  0.50701901  1
  O2-  O156  1  0.87221979  0.62439560  -0.00363885  1
  O2-  O157  1  0.87918534  0.62560942  0.49509169  1
  O2-  O158  1  0.87319882  0.87605387  0.00720189  1
  O2-  O159  1  0.87744004  0.87307032  0.50647464  1
  O2-  O160  1  0.12514889  -0.00061266  0.16853539  1
  O2-  O161  1  0.12470623  0.00039809  0.66359063  1
  O2-  O162  1  0.12500116  0.24851591  0.16581902  1
  O2-  O163  1  0.12552574  0.25034423  0.66740873  1
  O2-  O164  1  0.12469527  0.49944504  0.16158373  1
  O2-  O165  1  0.12570368  0.49984485  0.66862109  1
  O2-  O166  1  0.12605507  0.75247257  0.16325231  1
  O2-  O167  1  0.12502064  0.74882095  0.66708785  1
  O2-  O168  1  0.37651519  0.00134627  0.16688795  1
  O2-  O169  1  0.37410513  -0.00098053  0.66249274  1
  O2-  O170  1  0.37510243  0.25054012  0.16669900  1
  O2-  O171  1  0.37459047  0.24928763  0.66323429  1
  O2-  O172  1  0.37611943  0.50062928  0.16170895  1
  O2-  O173  1  0.37446535  0.50172273  0.66772055  1
  O2-  O174  1  0.37645452  0.74838561  0.16073296  1
  O2-  O175  1  0.37423660  0.75075769  0.66881275  1
  O2-  O176  1  0.62459031  0.00106641  0.17005161  1
  O2-  O177  1  0.62548267  -0.00314349  0.66076886  1
  O2-  O178  1  0.62584831  0.24988566  0.16803112  1
  O2-  O179  1  0.62433110  0.25271997  0.66292367  1
  O2-  O180  1  0.62509225  0.49967455  0.16619016  1
  O2-  O181  1  0.62432685  0.49754123  0.66485223  1
  O2-  O182  1  0.62496489  0.74958228  0.16679286  1
  O2-  O183  1  0.62547548  0.75287272  0.66393631  1
  O2-  O184  1  0.87416021  0.00207703  0.16760776  1
  O2-  O185  1  0.87565832  -0.00240209  0.66050162  1
  O2-  O186  1  0.87416791  0.25177955  0.16361531  1
  O2-  O187  1  0.87519043  0.24819016  0.66473475  1
  O2-  O188  1  0.87461431  0.49803092  0.16126770  1
  O2-  O189  1  0.87529570  0.50226060  0.66645193  1
  O2-  O190  1  0.87301090  0.74812798  0.16381094  1
  O2-  O191  1  0.87521861  0.75166516  0.66351578  1
  O2-  O192  1  -0.00068623  0.12502243  0.16320080  1
  O2-  O193  1  0.00113041  0.12451468  0.66657752  1
  O2-  O194  1  -0.00180222  0.37416401  0.16178506  1
  O2-  O195  1  0.00193449  0.37567867  0.66868531  1
  O2-  O196  1  -0.00112889  0.62562478  0.16057464  1
  O2-  O197  1  0.00016128  0.62503961  0.66578374  1
  O2-  O198  1  0.00080179  0.87541592  0.16506493  1
  O2-  O199  1  -0.00129631  0.87426751  0.66411386  1
  O2-  O200  1  0.25067035  0.12454985  0.16321556  1
  O2-  O201  1  0.24884712  0.12487749  0.66731496  1
  O2-  O202  1  0.25062247  0.37454909  0.16305652  1
  O2-  O203  1  0.24976701  0.37609817  0.66822684  1
  O2-  O204  1  0.25383928  0.62469456  0.15846141  1
  O2-  O205  1  0.24965499  0.62521558  0.66909412  1
  O2-  O206  1  0.25077817  0.87643258  0.16325540  1
  O2-  O207  1  0.24967908  0.87386925  0.66756735  1
  O2-  O208  1  0.50035228  0.12547275  0.16695921  1
  O2-  O209  1  0.49762186  0.12456723  0.66219992  1
  O2-  O210  1  0.50038049  0.37452755  0.17169182  1
  O2-  O211  1  0.50005028  0.37559219  0.66223373  1
  O2-  O212  1  0.49851713  0.62526897  0.16583204  1
  O2-  O213  1  0.49828096  0.62550133  0.66455671  1
  O2-  O214  1  0.50095164  0.87534734  0.17066962  1
  O2-  O215  1  0.50072508  0.87465964  0.66310597  1
  O2-  O216  1  0.74987221  0.12542572  0.16669752  1
  O2-  O217  1  0.75218276  0.12485762  0.66148475  1
  O2-  O218  1  0.75073638  0.37512697  0.16853359  1
  O2-  O219  1  0.74794514  0.37512234  0.66202927  1
  O2-  O220  1  0.74932186  0.62389041  0.16606458  1
  O2-  O221  1  0.75188085  0.62489427  0.66144671  1
  O2-  O222  1  0.74822379  0.87551403  0.17217692  1
  O2-  O223  1  0.75080903  0.87474941  0.65976332  1
  O2-  O224  1  0.12510728  -0.00152583  0.35057037  1
  O2-  O225  1  0.12477184  0.00157203  0.84493108  1
  O2-  O226  1  0.12468108  0.25068736  0.35083844  1
  O2-  O227  1  0.12429792  0.24972013  0.84461114  1
  O2-  O228  1  0.12511866  0.50130249  0.34376002  1
  O2-  O229  1  0.12452584  0.49668561  0.84986692  1
  O2-  O230  1  0.12477337  0.74960762  0.34137676  1
  O2-  O231  1  0.12477987  0.75161365  0.85183508  1
  O2-  O232  1  0.37389027  -0.00005609  0.35050653  1
  O2-  O233  1  0.37550634  0.00038347  0.84178687  1
  O2-  O234  1  0.37431069  0.25136254  0.34732538  1
  O2-  O235  1  0.37632240  0.24906245  0.84634638  1
  O2-  O236  1  0.37425269  0.50014182  0.34096217  1
  O2-  O237  1  0.37639120  0.50104784  0.85271154  1
  O2-  O238  1  0.37489544  0.74889830  0.34379669  1
  O2-  O239  1  0.37582791  0.74928640  0.85085235  1
  O2-  O240  1  0.62545298  -0.00338542  0.35297891  1
  O2-  O241  1  0.62525938  0.00061883  0.84234773  1
  O2-  O242  1  0.62478002  0.25342425  0.34993035  1
  O2-  O243  1  0.62507573  0.24920686  0.84584833  1
  O2-  O244  1  0.62515050  0.49724442  0.34840446  1
  O2-  O245  1  0.62486159  0.50001324  0.84805238  1
  O2-  O246  1  0.62494777  0.75293938  0.34997909  1
  O2-  O247  1  0.62477105  0.74998452  0.84630162  1
  O2-  O248  1  0.87551691  -0.00222052  0.35001989  1
  O2-  O249  1  0.87435606  0.00201683  0.84400131  1
  O2-  O250  1  0.87646638  0.24881589  0.34737564  1
  O2-  O251  1  0.87376082  0.25103699  0.84653281  1
  O2-  O252  1  0.87586778  0.50199765  0.34460472  1
  O2-  O253  1  0.87369716  0.49813984  0.84892431  1
  O2-  O254  1  0.87566015  0.75112666  0.34530046  1
  O2-  O255  1  0.87400092  0.74853437  0.84723341  1
  O2-  O256  1  0.00044814  0.12449217  0.34616725  1
  O2-  O257  1  -0.00052138  0.12526336  0.84619484  1
  O2-  O258  1  0.00213118  0.37569846  0.34651349  1
  O2-  O259  1  -0.00292265  0.37434462  0.84948308  1
  O2-  O260  1  0.00099761  0.62496450  0.34120230  1
  O2-  O261  1  -0.00245318  0.62446591  0.84825865  1
  O2-  O262  1  -0.00137432  0.87501787  0.34653297  1
  O2-  O263  1  0.00127056  0.87550745  0.84896694  1
  O2-  O264  1  0.24963248  0.12534065  0.34620138  1
  O2-  O265  1  0.25013481  0.12528405  0.84646179  1
  O2-  O266  1  0.25037840  0.37539522  0.34519556  1
  O2-  O267  1  0.24915507  0.37439088  0.85021974  1
  O2-  O268  1  0.24915111  0.62530956  0.33833240  1
  O2-  O269  1  0.25300849  0.62470290  0.85304768  1
  O2-  O270  1  0.24890030  0.87418603  0.34541891  1
  O2-  O271  1  0.25125457  0.87512887  0.84960188  1
  O2-  O272  1  0.49735141  0.12468029  0.34913723  1
  O2-  O273  1  0.50017225  0.12541056  0.84310972  1
  O2-  O274  1  0.50025410  0.37600767  0.35126874  1
  O2-  O275  1  0.50119483  0.37490859  0.84756307  1
  O2-  O276  1  0.49746995  0.62495850  0.34837418  1
  O2-  O277  1  0.49944364  0.62463498  0.84693047  1
  O2-  O278  1  0.50085048  0.87455130  0.35432680  1
  O2-  O279  1  0.49970205  0.87476747  0.84428250  1
  O2-  O280  1  0.75257323  0.12489556  0.34936705  1
  O2-  O281  1  0.74985425  0.12518504  0.84271324  1
  O2-  O282  1  0.74771594  0.37520324  0.35205856  1
  O2-  O283  1  0.75194749  0.37459849  0.84630334  1
  O2-  O284  1  0.75259246  0.62547827  0.34930903  1
  O2-  O285  1  0.74952362  0.62463348  0.84242479  1
  O2-  O286  1  0.75148001  0.87440254  0.35487701  1
  O2-  O287  1  0.74781325  0.87535493  0.84372995  1
