# generated using pymatgen
data_BaYFeCuO5
_symmetry_space_group_name_H-M   'P 1'
_cell_length_a   15.66814433
_cell_length_b   15.66765079
_cell_length_c   15.48070775
_cell_angle_alpha   89.99449861
_cell_angle_beta   90.00069420
_cell_angle_gamma   89.99677258
_symmetry_Int_Tables_number   1
_chemical_formula_structural   BaYFeCuO5
_chemical_formula_sum   'Ba32 Y32 Fe32 Cu32 O160'
_cell_volume   3800.25077074
_cell_formula_units_Z   32
loop_
 _symmetry_equiv_pos_site_id
 _symmetry_equiv_pos_as_xyz
  1  'x, y, z'
loop_
 _atom_type_symbol
 _atom_type_oxidation_number
  Ba2+  2.0
  Y3+  3.0
  Fe3+  3.0
  Cu2+  2.0
  O2-  -2.0
loop_
 _atom_site_type_symbol
 _atom_site_label
 _atom_site_symmetry_multiplicity
 _atom_site_fract_x
 _atom_site_fract_y
 _atom_site_fract_z
 _atom_site_occupancy
  Ba2+  Ba0  1  -0.00016667  -0.00161969  0.01857417  1
  Ba2+  Ba1  1  -0.00168928  -0.00973664  0.50589405  1
  Ba2+  Ba2  1  -0.00915400  0.25265210  0.01140139  1
  Ba2+  Ba3  1  -0.00086384  0.26222646  0.51815435  1
  Ba2+  Ba4  1  -0.00776984  0.50449709  0.00280106  1
  Ba2+  Ba5  1  0.00123893  0.50297935  0.52248530  1
  Ba2+  Ba6  1  0.00157269  0.74416451  0.00647048  1
  Ba2+  Ba7  1  0.00119335  0.74304493  0.51108875  1
  Ba2+  Ba8  1  0.25332594  -0.01192647  0.01328340  1
  Ba2+  Ba9  1  0.25382163  0.00285303  0.50146682  1
  Ba2+  Ba10  1  0.25559742  0.25639371  0.00702273  1
  Ba2+  Ba11  1  0.25864318  0.25500952  0.51734049  1
  Ba2+  Ba12  1  0.25582182  0.50421519  0.00664945  1
  Ba2+  Ba13  1  0.24881232  0.50119226  0.52228535  1
  Ba2+  Ba14  1  0.25386529  0.75222531  0.01450640  1
  Ba2+  Ba15  1  0.24429473  0.74103834  0.50548739  1
  Ba2+  Ba16  1  0.50276517  -0.01026377  0.00245946  1
  Ba2+  Ba17  1  0.50208532  0.00752151  0.50703686  1
  Ba2+  Ba18  1  0.49868180  0.25226549  0.00217755  1
  Ba2+  Ba19  1  0.49934189  0.25073537  0.52306698  1
  Ba2+  Ba20  1  0.49708453  0.50619592  0.01037807  1
  Ba2+  Ba21  1  0.50096687  0.49883584  0.52769095  1
  Ba2+  Ba22  1  0.50167703  0.75213696  0.01252679  1
  Ba2+  Ba23  1  0.50467159  0.74319308  0.51219558  1
  Ba2+  Ba24  1  0.74266425  -0.00062421  0.00660594  1
  Ba2+  Ba25  1  0.74501180  -0.00466079  0.51068219  1
  Ba2+  Ba26  1  0.75588008  0.24918899  0.00749660  1
  Ba2+  Ba27  1  0.74343197  0.25675423  0.52354824  1
  Ba2+  Ba28  1  0.75466683  0.50700824  0.00619340  1
  Ba2+  Ba29  1  0.74932557  0.50035054  0.52878946  1
  Ba2+  Ba30  1  0.74327307  0.74516591  0.00687222  1
  Ba2+  Ba31  1  0.75160439  0.74645348  0.51913085  1
  Y3+  Y32  1  0.00077948  -0.00134233  0.25905164  1
  Y3+  Y33  1  -0.00061483  -0.00144802  0.75509860  1
  Y3+  Y34  1  -0.00241041  0.25152869  0.25445054  1
  Y3+  Y35  1  -0.00108741  0.25300532  0.75897741  1
  Y3+  Y36  1  -0.00143716  0.50148689  0.25395323  1
  Y3+  Y37  1  -0.00094208  0.50240285  0.76024293  1
  Y3+  Y38  1  0.00217999  0.74839448  0.25893829  1
  Y3+  Y39  1  -0.00064376  0.74625265  0.75652016  1
  Y3+  Y40  1  0.25150750  -0.00213401  0.26000075  1
  Y3+  Y41  1  0.25305676  -0.00066442  0.75668579  1
  Y3+  Y42  1  0.25302840  0.25037544  0.25702588  1
  Y3+  Y43  1  0.25258132  0.25129024  0.75787207  1
  Y3+  Y44  1  0.25092599  0.50095903  0.25523250  1
  Y3+  Y45  1  0.24970409  0.50132229  0.75859862  1
  Y3+  Y46  1  0.24932951  0.75079214  0.25947793  1
  Y3+  Y47  1  0.24932707  0.74791516  0.75681894  1
  Y3+  Y48  1  0.49999175  -0.00253305  0.25803254  1
  Y3+  Y49  1  0.50048792  -0.00010321  0.75916853  1
  Y3+  Y50  1  0.49824599  0.25026079  0.25565587  1
  Y3+  Y51  1  0.49912400  0.24881431  0.75889139  1
  Y3+  Y52  1  0.49964492  0.50137587  0.25009161  1
  Y3+  Y53  1  0.49940714  0.50090011  0.76180434  1
  Y3+  Y54  1  0.50152593  0.75068823  0.25361539  1
  Y3+  Y55  1  0.50131682  0.75036303  0.76195762  1
  Y3+  Y56  1  0.74827247  -0.00163612  0.25586639  1
  Y3+  Y57  1  0.74678028  -0.00097176  0.75871379  1
  Y3+  Y58  1  0.75160248  0.25149381  0.25250122  1
  Y3+  Y59  1  0.74857641  0.25064762  0.76071858  1
  Y3+  Y60  1  0.75109348  0.50196752  0.24825117  1
  Y3+  Y61  1  0.75146894  0.50205109  0.76385575  1
  Y3+  Y62  1  0.74747116  0.74858925  0.25244396  1
  Y3+  Y63  1  0.74953800  0.74827630  0.76218583  1
  Fe3+  Fe64  1  0.37440758  0.62709974  0.87582507  1
  Fe3+  Fe65  1  0.87387508  0.12673049  0.38003205  1
  Fe3+  Fe66  1  0.87298413  0.37694247  0.37580752  1
  Fe3+  Fe67  1  0.62499704  0.37549625  0.87896599  1
  Fe3+  Fe68  1  0.12506645  0.87454575  0.87674231  1
  Fe3+  Fe69  1  0.87339002  0.87255704  0.37589238  1
  Fe3+  Fe70  1  0.12497158  0.12401529  0.88010206  1
  Fe3+  Fe71  1  0.12514052  0.37637846  0.37553855  1
  Fe3+  Fe72  1  0.62528457  0.37699222  0.37404392  1
  Fe3+  Fe73  1  0.37708548  0.37661681  0.37535412  1
  Fe3+  Fe74  1  0.37678136  0.87322799  0.38064033  1
  Fe3+  Fe75  1  0.12456731  0.12777725  0.37958658  1
  Fe3+  Fe76  1  0.12479227  0.37591728  0.87938669  1
  Fe3+  Fe77  1  0.87523681  0.87491717  0.87917128  1
  Fe3+  Fe78  1  0.62555396  0.12726036  0.37623874  1
  Fe3+  Fe79  1  0.87364232  0.62289680  0.37566504  1
  Fe3+  Fe80  1  0.37634475  0.62260598  0.37647820  1
  Fe3+  Fe81  1  0.37457134  0.12336793  0.87989742  1
  Fe3+  Fe82  1  0.62593288  0.62292455  0.37455455  1
  Fe3+  Fe83  1  0.87550419  0.12320558  0.87561003  1
  Fe3+  Fe84  1  0.62450637  0.87407691  0.63942104  1
  Fe3+  Fe85  1  0.12509011  0.37586197  0.13287862  1
  Fe3+  Fe86  1  0.62500707  0.37512558  0.13165040  1
  Fe3+  Fe87  1  0.12587894  0.12494827  0.13449702  1
  Fe3+  Fe88  1  0.12521004  0.87439302  0.63591329  1
  Fe3+  Fe89  1  0.37554413  0.12358830  0.13460883  1
  Fe3+  Fe90  1  0.62422916  0.12481634  0.13497091  1
  Fe3+  Fe91  1  0.87471843  0.87380787  0.13470179  1
  Fe3+  Fe92  1  0.12509634  0.12562198  0.63427182  1
  Fe3+  Fe93  1  0.12557407  0.62551763  0.13660157  1
  Fe3+  Fe94  1  0.37525875  0.87373575  0.63486089  1
  Fe3+  Fe95  1  0.87435085  0.12464056  0.63396009  1
  Cu2+  Cu96  1  0.12554677  0.62565431  0.86695319  1
  Cu2+  Cu97  1  0.12459140  0.62201304  0.37086283  1
  Cu2+  Cu98  1  0.62502170  0.87441867  0.87206787  1
  Cu2+  Cu99  1  0.37638197  0.12677481  0.37342572  1
  Cu2+  Cu100  1  0.62552500  0.87351479  0.36438962  1
  Cu2+  Cu101  1  0.87497771  0.37490066  0.87218798  1
  Cu2+  Cu102  1  0.37482341  0.37590723  0.87263057  1
  Cu2+  Cu103  1  0.62401584  0.62509739  0.87311755  1
  Cu2+  Cu104  1  0.37435696  0.87416307  0.87041743  1
  Cu2+  Cu105  1  0.12483992  0.87429432  0.36779634  1
  Cu2+  Cu106  1  0.62458649  0.12507075  0.86779428  1
  Cu2+  Cu107  1  0.87537839  0.62677298  0.87221117  1
  Cu2+  Cu108  1  0.87536007  0.37622122  0.13842974  1
  Cu2+  Cu109  1  0.62447729  0.62529078  0.13846480  1
  Cu2+  Cu110  1  0.62495750  0.87563925  0.14251160  1
  Cu2+  Cu111  1  0.12503527  0.62470137  0.64443478  1
  Cu2+  Cu112  1  0.62524086  0.12456294  0.65411772  1
  Cu2+  Cu113  1  0.87455417  0.87453023  0.65279633  1
  Cu2+  Cu114  1  0.37483798  0.37517173  0.13805209  1
  Cu2+  Cu115  1  0.37506689  0.12353887  0.64277166  1
  Cu2+  Cu116  1  0.62488224  0.62525751  0.65857135  1
  Cu2+  Cu117  1  0.87614354  0.62717463  0.14050076  1
  Cu2+  Cu118  1  0.87423899  0.37526287  0.65705563  1
  Cu2+  Cu119  1  0.87429443  0.62497718  0.65619802  1
  Cu2+  Cu120  1  0.62451581  0.37574091  0.66034428  1
  Cu2+  Cu121  1  0.37545997  0.37598959  0.65789222  1
  Cu2+  Cu122  1  0.37559347  0.87516232  0.14466959  1
  Cu2+  Cu123  1  0.12536827  0.37488456  0.65655426  1
  Cu2+  Cu124  1  0.37400753  0.62646382  0.15058282  1
  Cu2+  Cu125  1  0.37544977  0.62608154  0.65274742  1
  Cu2+  Cu126  1  0.87494048  0.12324916  0.15105354  1
  Cu2+  Cu127  1  0.12479559  0.87488274  0.15316688  1
  O2-  O128  1  0.12499734  0.12282648  0.00624978  1
  O2-  O129  1  0.12431574  0.12860347  0.50698237  1
  O2-  O130  1  0.12453601  0.37522904  0.00627050  1
  O2-  O131  1  0.12550248  0.37535178  0.49581251  1
  O2-  O132  1  0.12629520  0.62638221  0.01610275  1
  O2-  O133  1  0.12423506  0.62188459  0.50871040  1
  O2-  O134  1  0.12443027  0.87622382  -0.00285534  1
  O2-  O135  1  0.12470976  0.87484493  0.51553955  1
  O2-  O136  1  0.37374512  0.12252604  0.00758779  1
  O2-  O137  1  0.37575785  0.12678085  0.50784241  1
  O2-  O138  1  0.37442635  0.37442572  0.00566198  1
  O2-  O139  1  0.37769345  0.37679360  0.49564915  1
  O2-  O140  1  0.37370580  0.62874718  -0.00310711  1
  O2-  O141  1  0.37732337  0.62068914  0.49668213  1
  O2-  O142  1  0.37458804  0.87443579  0.00875560  1
  O2-  O143  1  0.37634143  0.87415023  0.50800202  1
  O2-  O144  1  0.62400055  0.12436174  0.01472126  1
  O2-  O145  1  0.62616371  0.12902313  0.49690300  1
  O2-  O146  1  0.62548296  0.37402066  0.00555725  1
  O2-  O147  1  0.62483840  0.37698057  0.49424221  1
  O2-  O148  1  0.62328861  0.62472709  0.00604492  1
  O2-  O149  1  0.62656087  0.62128479  0.49476110  1
  O2-  O150  1  0.62570636  0.87550992  0.00742096  1
  O2-  O151  1  0.62525177  0.87308957  0.51881394  1
  O2-  O152  1  0.87739128  0.12163473  -0.00410034  1
  O2-  O153  1  0.87386242  0.12747182  0.50587985  1
  O2-  O154  1  0.87545688  0.37384723  0.00551053  1
  O2-  O155  1  0.87204656  0.37644871  0.49573811  1
  O2-  O156  1  0.87610878  0.62840786  0.00612729  1
  O2-  O157  1  0.87265089  0.62179683  0.49595242  1
  O2-  O158  1  0.87585232  0.87633720  0.00599825  1
  O2-  O159  1  0.87261506  0.87308048  0.49624488  1
  O2-  O160  1  0.12541260  0.00188787  0.16612992  1
  O2-  O161  1  0.12397546  0.00132526  0.66347446  1
  O2-  O162  1  0.12454723  0.24921203  0.15821480  1
  O2-  O163  1  0.12458910  0.24854551  0.66723492  1
  O2-  O164  1  0.12603179  0.49932680  0.16066427  1
  O2-  O165  1  0.12495750  0.49836582  0.66867694  1
  O2-  O166  1  0.12563715  0.75022281  0.16733653  1
  O2-  O167  1  0.12448636  0.75167816  0.66531030  1
  O2-  O168  1  0.37369629  0.00324869  0.16883460  1
  O2-  O169  1  0.37483662  -0.00413393  0.66568341  1
  O2-  O170  1  0.37424045  0.24614361  0.16140571  1
  O2-  O171  1  0.37488963  0.25123379  0.66807679  1
  O2-  O172  1  0.37379651  0.50227732  0.15863616  1
  O2-  O173  1  0.37518355  0.50062270  0.66667789  1
  O2-  O174  1  0.37409942  0.74925033  0.16855377  1
  O2-  O175  1  0.37447484  0.75176531  0.66160012  1
  O2-  O176  1  0.62508132  0.00249669  0.16912746  1
  O2-  O177  1  0.62486536  -0.00094472  0.66584910  1
  O2-  O178  1  0.62508243  0.25025303  0.16161140  1
  O2-  O179  1  0.62481546  0.24990655  0.66675883  1
  O2-  O180  1  0.62471549  0.49761992  0.15747057  1
  O2-  O181  1  0.62465728  0.50074673  0.66863960  1
  O2-  O182  1  0.62421500  0.75013431  0.16416902  1
  O2-  O183  1  0.62566734  0.74999628  0.66730829  1
  O2-  O184  1  0.87618664  -0.00231945  0.16734153  1
  O2-  O185  1  0.87583350  0.00217889  0.66106416  1
  O2-  O186  1  0.87614201  0.24819318  0.16251989  1
  O2-  O187  1  0.87521612  0.24831263  0.66409392  1
  O2-  O188  1  0.87603119  0.50142795  0.15906876  1
  O2-  O189  1  0.87465686  0.49961766  0.66778525  1
  O2-  O190  1  0.87657783  0.75341981  0.16419753  1
  O2-  O191  1  0.87471594  0.74959104  0.66517939  1
  O2-  O192  1  0.00218252  0.12401169  0.16467954  1
  O2-  O193  1  -0.00004802  0.12565896  0.66121943  1
  O2-  O194  1  0.00345015  0.37412722  0.16315056  1
  O2-  O195  1  -0.00037133  0.37406725  0.66530588  1
  O2-  O196  1  0.00273908  0.62585681  0.16633206  1
  O2-  O197  1  -0.00183471  0.62444687  0.66626751  1
  O2-  O198  1  -0.00099886  0.87703720  0.16313712  1
  O2-  O199  1  0.00019146  0.87589402  0.66567947  1
  O2-  O200  1  0.24967073  0.12496317  0.16375653  1
  O2-  O201  1  0.24641301  0.12502075  0.66571006  1
  O2-  O202  1  0.24671865  0.37333416  0.16290706  1
  O2-  O203  1  0.25069890  0.37410709  0.66641942  1
  O2-  O204  1  0.24965131  0.62630855  0.16649609  1
  O2-  O205  1  0.25148822  0.62471185  0.66560404  1
  O2-  O206  1  0.24871371  0.87606621  0.16820379  1
  O2-  O207  1  0.25054858  0.87580337  0.66463329  1
  O2-  O208  1  0.49879496  0.12471694  0.16366816  1
  O2-  O209  1  0.50138861  0.12471367  0.66791753  1
  O2-  O210  1  0.50250547  0.37415932  0.15977204  1
  O2-  O211  1  0.50008974  0.37454110  0.66788961  1
  O2-  O212  1  0.49716412  0.62577067  0.16131848  1
  O2-  O213  1  0.50014990  0.62571619  0.66584151  1
  O2-  O214  1  0.50032245  0.87608810  0.16655891  1
  O2-  O215  1  0.49910054  0.87438448  0.66659709  1
  O2-  O216  1  0.74968598  0.12477644  0.16314365  1
  O2-  O217  1  0.75167233  0.12482677  0.66315113  1
  O2-  O218  1  0.74760256  0.37377433  0.15931805  1
  O2-  O219  1  0.74919195  0.37436220  0.66784196  1
  O2-  O220  1  0.75047226  0.62626305  0.15976403  1
  O2-  O221  1  0.74991679  0.62498166  0.66809920  1
  O2-  O222  1  0.75229827  0.87608067  0.16092859  1
  O2-  O223  1  0.74959331  0.87553577  0.66806728  1
  O2-  O224  1  0.12396490  0.00305131  0.35255142  1
  O2-  O225  1  0.12495547  0.00154014  0.84575310  1
  O2-  O226  1  0.12443918  0.25010515  0.34196398  1
  O2-  O227  1  0.12493229  0.24885296  0.85304137  1
  O2-  O228  1  0.12457872  0.49703850  0.34047924  1
  O2-  O229  1  0.12504107  0.49903479  0.85333277  1
  O2-  O230  1  0.12489372  0.74926418  0.35116217  1
  O2-  O231  1  0.12429400  0.75095055  0.84714289  1
  O2-  O232  1  0.37507407  -0.00320497  0.35280762  1
  O2-  O233  1  0.37386269  0.00205091  0.84920875  1
  O2-  O234  1  0.37531281  0.25288737  0.34292687  1
  O2-  O235  1  0.37391046  0.24640320  0.85233003  1
  O2-  O236  1  0.37591832  0.49951407  0.33914474  1
  O2-  O237  1  0.37372005  0.50240473  0.84973657  1
  O2-  O238  1  0.37471351  0.75013509  0.35177036  1
  O2-  O239  1  0.37390594  0.74936982  0.84387178  1
  O2-  O240  1  0.62595387  0.00009866  0.35181921  1
  O2-  O241  1  0.62488883  0.00086778  0.84880235  1
  O2-  O242  1  0.62613679  0.25116210  0.34098792  1
  O2-  O243  1  0.62461719  0.25114124  0.85129808  1
  O2-  O244  1  0.62527076  0.49983943  0.33687988  1
  O2-  O245  1  0.62495503  0.49766824  0.85205652  1
  O2-  O246  1  0.62578874  0.74858061  0.34706597  1
  O2-  O247  1  0.62509761  0.75016505  0.84965508  1
  O2-  O248  1  0.87604462  0.00191892  0.35150490  1
  O2-  O249  1  0.87585168  -0.00138822  0.84410269  1
  O2-  O250  1  0.87479906  0.24950502  0.34514672  1
  O2-  O251  1  0.87588806  0.24714091  0.84742698  1
  O2-  O252  1  0.87462983  0.49956684  0.33934426  1
  O2-  O253  1  0.87560980  0.50076205  0.85196737  1
  O2-  O254  1  0.87476195  0.74850359  0.34520989  1
  O2-  O255  1  0.87617558  0.75370417  0.84937419  1
  O2-  O256  1  -0.00074502  0.12610911  0.35052765  1
  O2-  O257  1  0.00196737  0.12422988  0.84521356  1
  O2-  O258  1  -0.00142974  0.37364292  0.34450136  1
  O2-  O259  1  0.00303686  0.37399787  0.84967463  1
  O2-  O260  1  -0.00206868  0.62419958  0.34729761  1
  O2-  O261  1  0.00167801  0.62564703  0.84989088  1
  O2-  O262  1  -0.00129861  0.87549022  0.34689101  1
  O2-  O263  1  -0.00066301  0.87660842  0.84816675  1
  O2-  O264  1  0.24677013  0.12560025  0.34946146  1
  O2-  O265  1  0.24927940  0.12456714  0.85060223  1
  O2-  O266  1  0.25093725  0.37440921  0.34422725  1
  O2-  O267  1  0.24676542  0.37379469  0.85035361  1
  O2-  O268  1  0.25194280  0.62390636  0.34827469  1
  O2-  O269  1  0.24979096  0.62561128  0.84772146  1
  O2-  O270  1  0.25177463  0.87569435  0.35270501  1
  O2-  O271  1  0.24794306  0.87622426  0.84602406  1
  O2-  O272  1  0.50281761  0.12501889  0.34485947  1
  O2-  O273  1  0.49752327  0.12430934  0.85246875  1
  O2-  O274  1  0.50082007  0.37512840  0.34016311  1
  O2-  O275  1  0.50196338  0.37421167  0.85143768  1
  O2-  O276  1  0.50058610  0.62524141  0.34244271  1
  O2-  O277  1  0.49799749  0.62529480  0.84855802  1
  O2-  O278  1  0.49909776  0.87444404  0.35020548  1
  O2-  O279  1  0.49952405  0.87584066  0.84926981  1
  O2-  O280  1  0.75167811  0.12490577  0.34555413  1
  O2-  O281  1  0.75099577  0.12411869  0.84771319  1
  O2-  O282  1  0.75023338  0.37485546  0.33941741  1
  O2-  O283  1  0.74779753  0.37371974  0.85116078  1
  O2-  O284  1  0.74998824  0.62435752  0.33981046  1
  O2-  O285  1  0.74987145  0.62579474  0.85187398  1
  O2-  O286  1  0.75093168  0.87562259  0.34315326  1
  O2-  O287  1  0.75278170  0.87638206  0.85163538  1
