# generated using pymatgen
data_BaYFeCuO5
_symmetry_space_group_name_H-M   'P 1'
_cell_length_a   15.65726731
_cell_length_b   15.65399545
_cell_length_c   15.45064507
_cell_angle_alpha   90.00176632
_cell_angle_beta   89.99833889
_cell_angle_gamma   90.00132248
_symmetry_Int_Tables_number   1
_chemical_formula_structural   BaYFeCuO5
_chemical_formula_sum   'Ba32 Y32 Fe32 Cu32 O160'
_cell_volume   3786.93442394
_cell_formula_units_Z   32
loop_
 _symmetry_equiv_pos_site_id
 _symmetry_equiv_pos_as_xyz
  1  'x, y, z'
loop_
 _atom_type_symbol
 _atom_type_oxidation_number
  Ba2+  2.0
  Y3+  3.0
  Fe3+  3.0
  Cu2+  2.0
  O2-  -2.0
loop_
 _atom_site_type_symbol
 _atom_site_label
 _atom_site_symmetry_multiplicity
 _atom_site_fract_x
 _atom_site_fract_y
 _atom_site_fract_z
 _atom_site_occupancy
  Ba2+  Ba0  1  -0.00835259  -0.00147526  0.01653430  1
  Ba2+  Ba1  1  0.00182033  0.00961164  0.50808481  1
  Ba2+  Ba2  1  -0.00586655  0.25349802  0.01166771  1
  Ba2+  Ba3  1  -0.00371619  0.25189832  0.51246011  1
  Ba2+  Ba4  1  0.00801962  0.49655627  0.01038859  1
  Ba2+  Ba5  1  0.00012524  0.48607915  0.50720084  1
  Ba2+  Ba6  1  0.00683894  0.75141611  0.01714052  1
  Ba2+  Ba7  1  0.00577426  0.75493625  0.50229512  1
  Ba2+  Ba8  1  0.25003399  -0.01013657  0.01709446  1
  Ba2+  Ba9  1  0.24943493  0.00079374  0.50585827  1
  Ba2+  Ba10  1  0.24379085  0.25610189  0.00628770  1
  Ba2+  Ba11  1  0.24301918  0.24807807  0.51960129  1
  Ba2+  Ba12  1  0.24191751  0.50541219  0.01078663  1
  Ba2+  Ba13  1  0.25081160  0.49900723  0.50743542  1
  Ba2+  Ba14  1  0.24842858  0.74676419  0.02140441  1
  Ba2+  Ba15  1  0.25698157  0.75176871  0.49655463  1
  Ba2+  Ba16  1  0.50650520  -0.00460754  0.02300394  1
  Ba2+  Ba17  1  0.49756260  0.00722497  0.50699896  1
  Ba2+  Ba18  1  0.51039642  0.24965541  0.01715668  1
  Ba2+  Ba19  1  0.50916809  0.24808676  0.51069353  1
  Ba2+  Ba20  1  0.49930479  0.50125239  0.01662669  1
  Ba2+  Ba21  1  0.50597931  0.50388256  0.50704988  1
  Ba2+  Ba22  1  0.49527271  0.75458669  0.02384392  1
  Ba2+  Ba23  1  0.49510411  0.74154403  0.50308935  1
  Ba2+  Ba24  1  0.75170406  0.00325562  0.02245771  1
  Ba2+  Ba25  1  0.75047749  0.01314034  0.50685143  1
  Ba2+  Ba26  1  0.75299796  0.24670252  0.02169681  1
  Ba2+  Ba27  1  0.75162311  0.25146895  0.50628252  1
  Ba2+  Ba28  1  0.75059777  0.49055407  0.01838882  1
  Ba2+  Ba29  1  0.74496547  0.49110249  0.50733421  1
  Ba2+  Ba30  1  0.74976718  0.75971718  0.01941326  1
  Ba2+  Ba31  1  0.74313134  0.74323321  0.50717264  1
  Y3+  Y32  1  -0.00176466  0.00087411  0.25821567  1
  Y3+  Y33  1  -0.00248460  0.00426119  0.75709456  1
  Y3+  Y34  1  -0.00307986  0.25218865  0.25877484  1
  Y3+  Y35  1  -0.00134969  0.25085000  0.75656039  1
  Y3+  Y36  1  0.00189512  0.49524806  0.25725301  1
  Y3+  Y37  1  0.00237099  0.49712851  0.75830304  1
  Y3+  Y38  1  0.00238115  0.75059489  0.25681901  1
  Y3+  Y39  1  0.00109677  0.74820928  0.75818576  1
  Y3+  Y40  1  0.24981481  -0.00361095  0.25799863  1
  Y3+  Y41  1  0.25025944  0.00231452  0.75627055  1
  Y3+  Y42  1  0.24706392  0.25330929  0.25576592  1
  Y3+  Y43  1  0.24715849  0.25122680  0.75835462  1
  Y3+  Y44  1  0.24818589  0.50049575  0.25702034  1
  Y3+  Y45  1  0.24755594  0.49970078  0.75832582  1
  Y3+  Y46  1  0.25104249  0.74940600  0.25795148  1
  Y3+  Y47  1  0.25047162  0.74682498  0.75650943  1
  Y3+  Y48  1  0.50113719  -0.00005300  0.26008528  1
  Y3+  Y49  1  0.50088918  0.00271215  0.75325022  1
  Y3+  Y50  1  0.50456429  0.25047111  0.25944809  1
  Y3+  Y51  1  0.50215454  0.24913583  0.75323370  1
  Y3+  Y52  1  0.50030270  0.50047992  0.26223622  1
  Y3+  Y53  1  0.50053641  0.50116908  0.75181505  1
  Y3+  Y54  1  0.49729709  0.74868736  0.26203384  1
  Y3+  Y55  1  0.49966014  0.74720851  0.75190462  1
  Y3+  Y56  1  0.75089379  0.00437846  0.25947069  1
  Y3+  Y57  1  0.75137448  0.00496914  0.75439821  1
  Y3+  Y58  1  0.75129628  0.24968008  0.26161883  1
  Y3+  Y59  1  0.75203238  0.24901319  0.75188996  1
  Y3+  Y60  1  0.74947292  0.49582271  0.26215898  1
  Y3+  Y61  1  0.74924431  0.49839598  0.75208180  1
  Y3+  Y62  1  0.74913677  0.75008958  0.26018506  1
  Y3+  Y63  1  0.74884146  0.74825956  0.75433891  1
  Fe3+  Fe64  1  0.62475181  0.87531737  0.87416244  1
  Fe3+  Fe65  1  0.12354288  0.12414826  0.88053346  1
  Fe3+  Fe66  1  0.37576453  0.62549062  0.87759518  1
  Fe3+  Fe67  1  0.62636791  0.12483821  0.87669820  1
  Fe3+  Fe68  1  0.87495148  0.87574928  0.37991736  1
  Fe3+  Fe69  1  0.37650501  0.87484027  0.87614632  1
  Fe3+  Fe70  1  0.87343126  0.37462248  0.87618897  1
  Fe3+  Fe71  1  0.62532018  0.37492627  0.87582765  1
  Fe3+  Fe72  1  0.37635648  0.12463407  0.88076904  1
  Fe3+  Fe73  1  0.62444166  0.87571806  0.37942180  1
  Fe3+  Fe74  1  0.12502804  0.12636235  0.37409103  1
  Fe3+  Fe75  1  0.12468721  0.62387566  0.37875782  1
  Fe3+  Fe76  1  0.87563419  0.62356183  0.37959516  1
  Fe3+  Fe77  1  0.37362691  0.12717006  0.37511634  1
  Fe3+  Fe78  1  0.37637674  0.37550630  0.87935806  1
  Fe3+  Fe79  1  0.87359269  0.87545114  0.87506793  1
  Fe3+  Fe80  1  0.37444713  0.37372585  0.37949810  1
  Fe3+  Fe81  1  0.12517099  0.87504561  0.87641796  1
  Fe3+  Fe82  1  0.87445649  0.62470949  0.88108680  1
  Fe3+  Fe83  1  0.62540284  0.62551252  0.88058491  1
  Fe3+  Fe84  1  0.12435155  0.12483520  0.13460528  1
  Fe3+  Fe85  1  0.87638487  0.62387294  0.63323680  1
  Fe3+  Fe86  1  0.87516724  0.87503441  0.63266527  1
  Fe3+  Fe87  1  0.87555385  0.62401449  0.13636616  1
  Fe3+  Fe88  1  0.37453028  0.87529179  0.63526202  1
  Fe3+  Fe89  1  0.62534601  0.62495078  0.13720607  1
  Fe3+  Fe90  1  0.12538278  0.87544802  0.63623848  1
  Fe3+  Fe91  1  0.62475335  0.87564701  0.63198946  1
  Fe3+  Fe92  1  0.12527122  0.62467898  0.63390712  1
  Fe3+  Fe93  1  0.37510088  0.37465280  0.63526949  1
  Fe3+  Fe94  1  0.37490516  0.12534236  0.13390793  1
  Fe3+  Fe95  1  0.37516206  0.37557189  0.13524746  1
  Cu2+  Cu96  1  0.12457642  0.37482943  0.87242975  1
  Cu2+  Cu97  1  0.37391822  0.62290135  0.37173100  1
  Cu2+  Cu98  1  0.12472762  0.62595129  0.87267800  1
  Cu2+  Cu99  1  0.12567249  0.37358561  0.37313055  1
  Cu2+  Cu100  1  0.62561434  0.62447674  0.37112476  1
  Cu2+  Cu101  1  0.87384207  0.12551179  0.87326623  1
  Cu2+  Cu102  1  0.37532048  0.87604473  0.36483282  1
  Cu2+  Cu103  1  0.87526451  0.37458537  0.37173758  1
  Cu2+  Cu104  1  0.62499255  0.12527190  0.37170381  1
  Cu2+  Cu105  1  0.12487388  0.87567747  0.36451755  1
  Cu2+  Cu106  1  0.62441837  0.37410131  0.37204819  1
  Cu2+  Cu107  1  0.87603295  0.12593236  0.37203488  1
  Cu2+  Cu108  1  0.87485238  0.87417332  0.15691226  1
  Cu2+  Cu109  1  0.37335176  0.62410663  0.63962572  1
  Cu2+  Cu110  1  0.62491073  0.12516459  0.15506157  1
  Cu2+  Cu111  1  0.62540499  0.87444265  0.15887756  1
  Cu2+  Cu112  1  0.62502728  0.37446527  0.64170521  1
  Cu2+  Cu113  1  0.12442482  0.62457489  0.14631649  1
  Cu2+  Cu114  1  0.87519447  0.37542422  0.64310130  1
  Cu2+  Cu115  1  0.12482682  0.37498384  0.64334777  1
  Cu2+  Cu116  1  0.12455783  0.87556236  0.15449162  1
  Cu2+  Cu117  1  0.87564267  0.12574754  0.14427833  1
  Cu2+  Cu118  1  0.87464038  0.37566523  0.15322413  1
  Cu2+  Cu119  1  0.62553712  0.12510441  0.64068363  1
  Cu2+  Cu120  1  0.12482933  0.37439075  0.14220159  1
  Cu2+  Cu121  1  0.37531079  0.87506238  0.15616227  1
  Cu2+  Cu122  1  0.12453213  0.12490502  0.65391131  1
  Cu2+  Cu123  1  0.37409900  0.12588657  0.64928118  1
  Cu2+  Cu124  1  0.62472318  0.37563504  0.15422933  1
  Cu2+  Cu125  1  0.37530896  0.62407237  0.15337073  1
  Cu2+  Cu126  1  0.62515256  0.62484441  0.64100833  1
  Cu2+  Cu127  1  0.87575750  0.12591482  0.64117360  1
  O2-  O128  1  0.12379082  0.12220746  0.00703579  1
  O2-  O129  1  0.12670201  0.12574481  0.49499128  1
  O2-  O130  1  0.12554961  0.37519951  0.00742118  1
  O2-  O131  1  0.12651132  0.37362425  0.50760005  1
  O2-  O132  1  0.12417386  0.62729271  0.00804420  1
  O2-  O133  1  0.12470805  0.62457270  0.50689501  1
  O2-  O134  1  0.12477139  0.87426993  -0.00295006  1
  O2-  O135  1  0.12662058  0.87550442  0.51568079  1
  O2-  O136  1  0.37748113  0.12298123  0.00632333  1
  O2-  O137  1  0.37140240  0.12773282  0.49569583  1
  O2-  O138  1  0.37665139  0.37644370  0.00669823  1
  O2-  O139  1  0.37453256  0.37239372  0.50669443  1
  O2-  O140  1  0.37702090  0.62698253  -0.00199490  1
  O2-  O141  1  0.37294971  0.62361745  0.50615713  1
  O2-  O142  1  0.37784695  0.87518372  -0.00352941  1
  O2-  O143  1  0.37359416  0.87657350  0.51479605  1
  O2-  O144  1  0.62536842  0.12321218  -0.00256250  1
  O2-  O145  1  0.62388592  0.12410228  0.50617561  1
  O2-  O146  1  0.62466528  0.37594333  -0.00355036  1
  O2-  O147  1  0.62353389  0.37439193  0.50666580  1
  O2-  O148  1  0.62516249  0.62664492  0.00719265  1
  O2-  O149  1  0.62550279  0.62548808  0.50614133  1
  O2-  O150  1  0.62517253  0.87460125  -0.00538818  1
  O2-  O151  1  0.62381770  0.87550556  0.50583267  1
  O2-  O152  1  0.87376302  0.12417076  0.00900966  1
  O2-  O153  1  0.87711790  0.12540206  0.50695234  1
  O2-  O154  1  0.87256861  0.37532243  -0.00277569  1
  O2-  O155  1  0.87482971  0.37487915  0.50748603  1
  O2-  O156  1  0.87405241  0.62612302  0.00739199  1
  O2-  O157  1  0.87637865  0.62428986  0.50644720  1
  O2-  O158  1  0.87244913  0.87458646  -0.00451214  1
  O2-  O159  1  0.87615036  0.87511164  0.50625217  1
  O2-  O160  1  0.12526458  0.00114529  0.16335852  1
  O2-  O161  1  0.12468508  -0.00043827  0.66517717  1
  O2-  O162  1  0.12631340  0.24714738  0.16065383  1
  O2-  O163  1  0.12537905  0.24857146  0.66796244  1
  O2-  O164  1  0.12491241  0.49946283  0.16698929  1
  O2-  O165  1  0.12457437  0.50283272  0.66513533  1
  O2-  O166  1  0.12497716  0.75125371  0.16790689  1
  O2-  O167  1  0.12442573  0.74920789  0.66310126  1
  O2-  O168  1  0.37567036  0.00181933  0.16331391  1
  O2-  O169  1  0.37421758  -0.00000117  0.66473278  1
  O2-  O170  1  0.37491222  0.24982095  0.15789806  1
  O2-  O171  1  0.37401781  0.25124129  0.66702700  1
  O2-  O172  1  0.37604358  0.49818454  0.16420489  1
  O2-  O173  1  0.37418728  0.49691814  0.66446728  1
  O2-  O174  1  0.37501268  0.74983602  0.16635461  1
  O2-  O175  1  0.37456740  0.75192216  0.66363319  1
  O2-  O176  1  0.62452254  -0.00062157  0.16618353  1
  O2-  O177  1  0.62557880  -0.00310990  0.66168615  1
  O2-  O178  1  0.62466398  0.25065395  0.16343235  1
  O2-  O179  1  0.62456961  0.24957493  0.66489818  1
  O2-  O180  1  0.62474338  0.50222401  0.16361979  1
  O2-  O181  1  0.62499251  0.50005302  0.66601738  1
  O2-  O182  1  0.62601308  0.74795994  0.16593786  1
  O2-  O183  1  0.62516492  0.75343445  0.66297453  1
  O2-  O184  1  0.87499824  -0.00176231  0.16728320  1
  O2-  O185  1  0.87550780  -0.00317736  0.66243200  1
  O2-  O186  1  0.87431051  0.25209781  0.16523179  1
  O2-  O187  1  0.87606748  0.25046928  0.66512456  1
  O2-  O188  1  0.87446625  0.50144687  0.16459455  1
  O2-  O189  1  0.87621895  0.50332141  0.66529006  1
  O2-  O190  1  0.87417292  0.74802705  0.16720507  1
  O2-  O191  1  0.87561585  0.74973867  0.66145324  1
  O2-  O192  1  0.00274841  0.12450129  0.16386325  1
  O2-  O193  1  0.00118662  0.12483767  0.66640541  1
  O2-  O194  1  -0.00127260  0.37507689  0.16539737  1
  O2-  O195  1  0.00043681  0.37527982  0.66574541  1
  O2-  O196  1  -0.00301279  0.62552420  0.16628671  1
  O2-  O197  1  0.00071904  0.62618873  0.66332586  1
  O2-  O198  1  -0.00048387  0.87395389  0.16583676  1
  O2-  O199  1  -0.00071220  0.87387311  0.66289726  1
  O2-  O200  1  0.25047861  0.12427930  0.15761518  1
  O2-  O201  1  0.24914634  0.12557272  0.66845253  1
  O2-  O202  1  0.25321191  0.37531026  0.16424630  1
  O2-  O203  1  0.25201844  0.37417111  0.66584108  1
  O2-  O204  1  0.25125600  0.62441784  0.16604798  1
  O2-  O205  1  0.24641300  0.62465362  0.66468101  1
  O2-  O206  1  0.25018705  0.87500349  0.16349148  1
  O2-  O207  1  0.24947616  0.87571270  0.66877947  1
  O2-  O208  1  0.49846309  0.12537222  0.16337047  1
  O2-  O209  1  0.49870590  0.12487885  0.66345382  1
  O2-  O210  1  0.49850987  0.37477856  0.16448156  1
  O2-  O211  1  0.49751920  0.37445511  0.66342634  1
  O2-  O212  1  0.50181624  0.62553187  0.16410964  1
  O2-  O213  1  0.49953487  0.62478974  0.66342845  1
  O2-  O214  1  0.50048282  0.87422972  0.16676076  1
  O2-  O215  1  0.50041230  0.87584446  0.66132588  1
  O2-  O216  1  0.74875149  0.12449919  0.16690420  1
  O2-  O217  1  0.75070875  0.12490300  0.66247960  1
  O2-  O218  1  0.74925704  0.37641625  0.16539262  1
  O2-  O219  1  0.75020595  0.37604376  0.66274118  1
  O2-  O220  1  0.75011457  0.62528845  0.16298609  1
  O2-  O221  1  0.75338393  0.62591717  0.66376706  1
  O2-  O222  1  0.74996390  0.87413948  0.16824555  1
  O2-  O223  1  0.75063977  0.87332991  0.65714623  1
  O2-  O224  1  0.12579149  0.00059885  0.34696184  1
  O2-  O225  1  0.12526979  0.00081282  0.84669153  1
  O2-  O226  1  0.12548069  0.24870504  0.34268584  1
  O2-  O227  1  0.12599567  0.24685089  0.85229615  1
  O2-  O228  1  0.12457501  0.50195568  0.35048078  1
  O2-  O229  1  0.12506954  0.49993317  0.84911796  1
  O2-  O230  1  0.12423879  0.74870493  0.35286646  1
  O2-  O231  1  0.12495023  0.75247880  0.84347628  1
  O2-  O232  1  0.37422429  0.00147525  0.34747923  1
  O2-  O233  1  0.37572776  0.00156527  0.84663455  1
  O2-  O234  1  0.37450811  0.25130341  0.34155965  1
  O2-  O235  1  0.37514551  0.24946167  0.85304875  1
  O2-  O236  1  0.37423144  0.49624106  0.34905093  1
  O2-  O237  1  0.37634058  0.49952138  0.84806436  1
  O2-  O238  1  0.37478076  0.75079348  0.35165317  1
  O2-  O239  1  0.37601973  0.75000229  0.84315323  1
  O2-  O240  1  0.62536083  -0.00260601  0.35035197  1
  O2-  O241  1  0.62459719  0.00021722  0.84216303  1
  O2-  O242  1  0.62449048  0.24963296  0.34807384  1
  O2-  O243  1  0.62369229  0.25001755  0.84622512  1
  O2-  O244  1  0.62518447  0.49970920  0.34796111  1
  O2-  O245  1  0.62490851  0.50199414  0.84881060  1
  O2-  O246  1  0.62505159  0.75288724  0.35026769  1
  O2-  O247  1  0.62538713  0.74835874  0.84525035  1
  O2-  O248  1  0.87486277  -0.00262569  0.35113485  1
  O2-  O249  1  0.87421745  -0.00147934  0.84488479  1
  O2-  O250  1  0.87569866  0.25009228  0.34866696  1
  O2-  O251  1  0.87452463  0.25187044  0.84749974  1
  O2-  O252  1  0.87573437  0.50248522  0.34920136  1
  O2-  O253  1  0.87359201  0.50152053  0.84846624  1
  O2-  O254  1  0.87551842  0.74999859  0.35277161  1
  O2-  O255  1  0.87387326  0.74867686  0.84485148  1
  O2-  O256  1  0.00162636  0.12407032  0.34626678  1
  O2-  O257  1  0.00188471  0.12424354  0.85079844  1
  O2-  O258  1  0.00022283  0.37507864  0.34962073  1
  O2-  O259  1  -0.00230038  0.37591473  0.84823544  1
  O2-  O260  1  0.00003656  0.62601526  0.35078478  1
  O2-  O261  1  -0.00398566  0.62554776  0.84822851  1
  O2-  O262  1  -0.00216236  0.87449431  0.35057774  1
  O2-  O263  1  -0.00076653  0.87467596  0.84415190  1
  O2-  O264  1  0.24994605  0.12522500  0.33979457  1
  O2-  O265  1  0.25071993  0.12456053  0.85378272  1
  O2-  O266  1  0.25240576  0.37450789  0.34814419  1
  O2-  O267  1  0.25358832  0.37491027  0.85046834  1
  O2-  O268  1  0.24662286  0.62490852  0.35004065  1
  O2-  O269  1  0.25260424  0.62467782  0.84683549  1
  O2-  O270  1  0.25018637  0.87475143  0.34855619  1
  O2-  O271  1  0.25119497  0.87607481  0.84770468  1
  O2-  O272  1  0.49766638  0.12509769  0.34693938  1
  O2-  O273  1  0.49935126  0.12522764  0.84628917  1
  O2-  O274  1  0.49701031  0.37448621  0.34926525  1
  O2-  O275  1  0.49961562  0.37528490  0.84597567  1
  O2-  O276  1  0.49953926  0.62433834  0.34879204  1
  O2-  O277  1  0.50186642  0.62506378  0.84647117  1
  O2-  O278  1  0.50148074  0.87554521  0.35117821  1
  O2-  O279  1  0.50040439  0.87484682  0.84076031  1
  O2-  O280  1  0.75070050  0.12501754  0.35095378  1
  O2-  O281  1  0.74806863  0.12513019  0.84444676  1
  O2-  O282  1  0.75021195  0.37508368  0.35030963  1
  O2-  O283  1  0.74888630  0.37626319  0.84320355  1
  O2-  O284  1  0.75363882  0.62600502  0.34844269  1
  O2-  O285  1  0.74934119  0.62600627  0.84900569  1
  O2-  O286  1  0.75033848  0.87361001  0.35308714  1
  O2-  O287  1  0.74907780  0.87396156  0.83921334  1
