# generated using pymatgen
data_BaYFeCuO5
_symmetry_space_group_name_H-M   'P 1'
_cell_length_a   15.67205852
_cell_length_b   15.66593006
_cell_length_c   15.47831966
_cell_angle_alpha   90.00113486
_cell_angle_beta   90.00043824
_cell_angle_gamma   89.99863443
_symmetry_Int_Tables_number   1
_chemical_formula_structural   BaYFeCuO5
_chemical_formula_sum   'Ba32 Y32 Fe32 Cu32 O160'
_cell_volume   3800.19637434
_cell_formula_units_Z   32
loop_
 _symmetry_equiv_pos_site_id
 _symmetry_equiv_pos_as_xyz
  1  'x, y, z'
loop_
 _atom_type_symbol
 _atom_type_oxidation_number
  Ba2+  2.0
  Y3+  3.0
  Fe3+  3.0
  Cu2+  2.0
  O2-  -2.0
loop_
 _atom_site_type_symbol
 _atom_site_label
 _atom_site_symmetry_multiplicity
 _atom_site_fract_x
 _atom_site_fract_y
 _atom_site_fract_z
 _atom_site_occupancy
  Ba2+  Ba0  1  0.00461149  0.00023882  0.00686054  1
  Ba2+  Ba1  1  0.00450021  0.00388793  0.51412401  1
  Ba2+  Ba2  1  0.00011369  0.25031940  0.00583523  1
  Ba2+  Ba3  1  -0.00024285  0.23971266  0.51845808  1
  Ba2+  Ba4  1  -0.00324363  0.49825689  0.01310982  1
  Ba2+  Ba5  1  0.00551654  0.50359762  0.51123313  1
  Ba2+  Ba6  1  0.00182717  0.75156331  0.01193155  1
  Ba2+  Ba7  1  0.01008844  0.75311854  0.50692078  1
  Ba2+  Ba8  1  0.24421878  0.00562017  0.00688582  1
  Ba2+  Ba9  1  0.25173743  -0.00222462  0.50313318  1
  Ba2+  Ba10  1  0.24915958  0.24542121  0.00618986  1
  Ba2+  Ba11  1  0.25103371  0.23902094  0.51948485  1
  Ba2+  Ba12  1  0.25075556  0.49972702  0.01859170  1
  Ba2+  Ba13  1  0.25266531  0.51062960  0.51126454  1
  Ba2+  Ba14  1  0.24354612  0.74836421  0.01656982  1
  Ba2+  Ba15  1  0.25353095  0.75104325  0.49956938  1
  Ba2+  Ba16  1  0.50135144  0.00570853  0.01544961  1
  Ba2+  Ba17  1  0.50178755  0.00286665  0.51389635  1
  Ba2+  Ba18  1  0.49688053  0.24883649  0.01142515  1
  Ba2+  Ba19  1  0.50537713  0.24274082  0.51663957  1
  Ba2+  Ba20  1  0.50315032  0.50201727  0.01182837  1
  Ba2+  Ba21  1  0.49565151  0.50243571  0.51092628  1
  Ba2+  Ba22  1  0.50662877  0.74399543  0.01659796  1
  Ba2+  Ba23  1  0.49171168  0.75381392  0.50540998  1
  Ba2+  Ba24  1  0.75009219  0.00014672  0.01698038  1
  Ba2+  Ba25  1  0.74335650  0.00677958  0.51581321  1
  Ba2+  Ba26  1  0.75293080  0.25333975  0.01143842  1
  Ba2+  Ba27  1  0.74372461  0.24174061  0.51654614  1
  Ba2+  Ba28  1  0.74970270  0.49971611  0.00555017  1
  Ba2+  Ba29  1  0.74507679  0.49420515  0.51176957  1
  Ba2+  Ba30  1  0.74804611  0.74612784  0.01295400  1
  Ba2+  Ba31  1  0.74452245  0.75689347  0.51142981  1
  Y3+  Y32  1  0.00195333  0.00041490  0.25274014  1
  Y3+  Y33  1  0.00173484  0.00011592  0.76216060  1
  Y3+  Y34  1  -0.00165233  0.24857684  0.25209668  1
  Y3+  Y35  1  0.00046652  0.24910383  0.76162830  1
  Y3+  Y36  1  -0.00112526  0.49974970  0.25589809  1
  Y3+  Y37  1  -0.00004501  0.49848062  0.75822796  1
  Y3+  Y38  1  0.00219678  0.75088639  0.25529215  1
  Y3+  Y39  1  0.00152612  0.75239770  0.75961370  1
  Y3+  Y40  1  0.24906174  -0.00026436  0.25140415  1
  Y3+  Y41  1  0.24923864  0.00236323  0.76374579  1
  Y3+  Y42  1  0.25161226  0.24796817  0.25173483  1
  Y3+  Y43  1  0.24964895  0.24670211  0.76241495  1
  Y3+  Y44  1  0.25298099  0.50162286  0.25828775  1
  Y3+  Y45  1  0.25061157  0.50142401  0.75483604  1
  Y3+  Y46  1  0.25092114  0.75076107  0.25695709  1
  Y3+  Y47  1  0.24962870  0.74961015  0.75783746  1
  Y3+  Y48  1  0.50102231  0.00203080  0.25512427  1
  Y3+  Y49  1  0.49961744  0.00194812  0.75895992  1
  Y3+  Y50  1  0.49999792  0.24760894  0.25479941  1
  Y3+  Y51  1  0.50086713  0.24900263  0.75848246  1
  Y3+  Y52  1  0.49758526  0.50157969  0.25696188  1
  Y3+  Y53  1  0.50165297  0.50045414  0.75715533  1
  Y3+  Y54  1  0.49886814  0.74834639  0.25653201  1
  Y3+  Y55  1  0.50015029  0.74893735  0.75733578  1
  Y3+  Y56  1  0.74809588  0.00256109  0.25631254  1
  Y3+  Y57  1  0.74938407  0.00048201  0.75622549  1
  Y3+  Y58  1  0.75026522  0.24818571  0.25528513  1
  Y3+  Y59  1  0.74886381  0.25149245  0.75823745  1
  Y3+  Y60  1  0.75076729  0.49953271  0.25443869  1
  Y3+  Y61  1  0.74760460  0.49778777  0.76017148  1
  Y3+  Y62  1  0.74829961  0.74936749  0.25552593  1
  Y3+  Y63  1  0.74857867  0.75076118  0.75902758  1
  Fe3+  Fe64  1  0.12572136  0.37280573  0.38099786  1
  Fe3+  Fe65  1  0.62554316  0.12577474  0.87770207  1
  Fe3+  Fe66  1  0.87551028  0.37355725  0.38109473  1
  Fe3+  Fe67  1  0.12512666  0.62511229  0.37480469  1
  Fe3+  Fe68  1  0.87451699  0.62565952  0.38055605  1
  Fe3+  Fe69  1  0.87543820  0.87627920  0.38020726  1
  Fe3+  Fe70  1  0.37429318  0.37298247  0.38056020  1
  Fe3+  Fe71  1  0.87488671  0.12425979  0.37625946  1
  Fe3+  Fe72  1  0.37557674  0.12442253  0.37474807  1
  Fe3+  Fe73  1  0.12519394  0.12501038  0.37386057  1
  Fe3+  Fe74  1  0.12519781  0.62368590  0.87627965  1
  Fe3+  Fe75  1  0.62417257  0.87659985  0.37572823  1
  Fe3+  Fe76  1  0.37484044  0.37601066  0.87662617  1
  Fe3+  Fe77  1  0.87374890  0.12430090  0.87663071  1
  Fe3+  Fe78  1  0.62472276  0.62465224  0.37939357  1
  Fe3+  Fe79  1  0.37527450  0.62510224  0.87781147  1
  Fe3+  Fe80  1  0.62499635  0.87508761  0.87792211  1
  Fe3+  Fe81  1  0.37507340  0.87460636  0.88242688  1
  Fe3+  Fe82  1  0.87487814  0.62552473  0.87505839  1
  Fe3+  Fe83  1  0.62435995  0.37352700  0.37807858  1
  Fe3+  Fe84  1  0.87456248  0.87490965  0.13780326  1
  Fe3+  Fe85  1  0.37567573  0.87487840  0.13498738  1
  Fe3+  Fe86  1  0.62451407  0.37507576  0.13832885  1
  Fe3+  Fe87  1  0.37455160  0.87619750  0.64072584  1
  Fe3+  Fe88  1  0.12692639  0.87610853  0.64016278  1
  Fe3+  Fe89  1  0.12549007  0.37491264  0.13857655  1
  Fe3+  Fe90  1  0.87508610  0.87626508  0.63515255  1
  Fe3+  Fe91  1  0.12597288  0.37422785  0.63494642  1
  Fe3+  Fe92  1  0.87531249  0.62601681  0.63340769  1
  Fe3+  Fe93  1  0.87498271  0.37399120  0.63499672  1
  Fe3+  Fe94  1  0.37514028  0.37396549  0.63491028  1
  Fe3+  Fe95  1  0.62446416  0.62588186  0.63478870  1
  Cu2+  Cu96  1  0.62478598  0.62503225  0.87132829  1
  Cu2+  Cu97  1  0.37548390  0.87668417  0.35811897  1
  Cu2+  Cu98  1  0.12542254  0.87378002  0.87488175  1
  Cu2+  Cu99  1  0.62395632  0.37479560  0.86449246  1
  Cu2+  Cu100  1  0.12516385  0.87620768  0.36025367  1
  Cu2+  Cu101  1  0.87498881  0.37540189  0.87238004  1
  Cu2+  Cu102  1  0.37536763  0.62524535  0.37227031  1
  Cu2+  Cu103  1  0.12413042  0.12557022  0.87301352  1
  Cu2+  Cu104  1  0.37620694  0.12494600  0.87390817  1
  Cu2+  Cu105  1  0.12589279  0.37634281  0.86257461  1
  Cu2+  Cu106  1  0.62469610  0.12549348  0.36971574  1
  Cu2+  Cu107  1  0.87415455  0.87493100  0.86528923  1
  Cu2+  Cu108  1  0.87523616  0.62517971  0.15279651  1
  Cu2+  Cu109  1  0.12434606  0.12569993  0.14116553  1
  Cu2+  Cu110  1  0.62434259  0.37517500  0.64923958  1
  Cu2+  Cu111  1  0.62429269  0.12471329  0.64820251  1
  Cu2+  Cu112  1  0.62549778  0.12597437  0.14738402  1
  Cu2+  Cu113  1  0.37504087  0.62528899  0.14907790  1
  Cu2+  Cu114  1  0.62412740  0.87509641  0.65124864  1
  Cu2+  Cu115  1  0.37465511  0.12480718  0.13993225  1
  Cu2+  Cu116  1  0.62565248  0.62340911  0.14472972  1
  Cu2+  Cu117  1  0.87511944  0.12462070  0.65306482  1
  Cu2+  Cu118  1  0.37530464  0.37512771  0.14960812  1
  Cu2+  Cu119  1  0.12456198  0.62614321  0.65030807  1
  Cu2+  Cu120  1  0.87474928  0.37495834  0.14182120  1
  Cu2+  Cu121  1  0.62485709  0.87488241  0.15041318  1
  Cu2+  Cu122  1  0.12486407  0.62405975  0.15335119  1
  Cu2+  Cu123  1  0.37465091  0.12427321  0.65510455  1
  Cu2+  Cu124  1  0.87497065  0.12460742  0.14726502  1
  Cu2+  Cu125  1  0.37468528  0.62676167  0.64187892  1
  Cu2+  Cu126  1  0.12536797  0.12426972  0.65660683  1
  Cu2+  Cu127  1  0.12499603  0.87485115  0.14157178  1
  O2-  O128  1  0.12331347  0.12683984  0.00663374  1
  O2-  O129  1  0.12581018  0.12391102  0.49453286  1
  O2-  O130  1  0.12511649  0.37703710  0.01809722  1
  O2-  O131  1  0.12587471  0.37221537  0.50696074  1
  O2-  O132  1  0.12405620  0.62193185  -0.00352934  1
  O2-  O133  1  0.12502699  0.62659151  0.49589145  1
  O2-  O134  1  0.12427397  0.87289533  0.00823171  1
  O2-  O135  1  0.12760067  0.87674409  0.51969184  1
  O2-  O136  1  0.37594999  0.12538712  0.00668379  1
  O2-  O137  1  0.37485180  0.12393063  0.49529356  1
  O2-  O138  1  0.37509765  0.37775660  -0.00301466  1
  O2-  O139  1  0.37376848  0.37217577  0.50665786  1
  O2-  O140  1  0.37510369  0.62387783  -0.00221955  1
  O2-  O141  1  0.37550118  0.62671384  0.50632565  1
  O2-  O142  1  0.37580991  0.87306714  0.00794934  1
  O2-  O143  1  0.37335938  0.87675047  0.52011291  1
  O2-  O144  1  0.62681713  0.12573536  -0.00196974  1
  O2-  O145  1  0.62379304  0.12425473  0.50604416  1
  O2-  O146  1  0.62471454  0.37607987  0.01762486  1
  O2-  O147  1  0.62492470  0.37321682  0.49859223  1
  O2-  O148  1  0.62621818  0.62380150  0.00700859  1
  O2-  O149  1  0.62451067  0.62569062  0.50644726  1
  O2-  O150  1  0.62638727  0.87389245  -0.00195491  1
  O2-  O151  1  0.62335334  0.87657980  0.49640340  1
  O2-  O152  1  0.87319374  0.12443455  -0.00305814  1
  O2-  O153  1  0.87595876  0.12389166  0.49654423  1
  O2-  O154  1  0.87519780  0.37643666  0.00649786  1
  O2-  O155  1  0.87560819  0.37269501  0.50677497  1
  O2-  O156  1  0.87523488  0.62521803  -0.00457556  1
  O2-  O157  1  0.87510828  0.62594270  0.50651071  1
  O2-  O158  1  0.87394538  0.87291782  0.01728775  1
  O2-  O159  1  0.87583015  0.87697897  0.50707990  1
  O2-  O160  1  0.12453433  0.00029587  0.16258875  1
  O2-  O161  1  0.12464954  0.00002648  0.66933774  1
  O2-  O162  1  0.12504302  0.25179535  0.16697606  1
  O2-  O163  1  0.12488019  0.25068582  0.66345904  1
  O2-  O164  1  0.12529605  0.49938372  0.17062019  1
  O2-  O165  1  0.12458730  0.49852191  0.65791301  1
  O2-  O166  1  0.12473530  0.74786288  0.16537896  1
  O2-  O167  1  0.12414798  0.75131859  0.66655844  1
  O2-  O168  1  0.37594725  -0.00279315  0.16185311  1
  O2-  O169  1  0.37518542  0.00019807  0.67036300  1
  O2-  O170  1  0.37523413  0.25062541  0.16419706  1
  O2-  O171  1  0.37454779  0.25058638  0.66301662  1
  O2-  O172  1  0.37482879  0.50090745  0.16787739  1
  O2-  O173  1  0.37433050  0.49753341  0.65918602  1
  O2-  O174  1  0.37573955  0.75106223  0.16410808  1
  O2-  O175  1  0.37495367  0.75218759  0.66823402  1
  O2-  O176  1  0.62553989  0.00085636  0.16196398  1
  O2-  O177  1  0.62472137  -0.00082734  0.66598725  1
  O2-  O178  1  0.62496710  0.25074247  0.16513533  1
  O2-  O179  1  0.62463214  0.25072805  0.66558728  1
  O2-  O180  1  0.62473199  0.49808922  0.17067635  1
  O2-  O181  1  0.62574941  0.50224735  0.66193823  1
  O2-  O182  1  0.62542484  0.74971812  0.16680943  1
  O2-  O183  1  0.62589999  0.74834364  0.66259451  1
  O2-  O184  1  0.87403426  -0.00055973  0.16510911  1
  O2-  O185  1  0.87475076  -0.00148424  0.66301822  1
  O2-  O186  1  0.87473048  0.24830957  0.16423669  1
  O2-  O187  1  0.87574931  0.25161883  0.66261729  1
  O2-  O188  1  0.87540931  0.50175233  0.16963643  1
  O2-  O189  1  0.87541730  0.49972069  0.65764209  1
  O2-  O190  1  0.87442549  0.75014456  0.16978361  1
  O2-  O191  1  0.87463183  0.75080208  0.65981861  1
  O2-  O192  1  -0.00125547  0.12503603  0.16447277  1
  O2-  O193  1  0.00012887  0.12483611  0.66401207  1
  O2-  O194  1  0.00123538  0.37586548  0.16920692  1
  O2-  O195  1  0.00046989  0.37502635  0.66083798  1
  O2-  O196  1  0.00006225  0.62460766  0.16646927  1
  O2-  O197  1  -0.00238857  0.62520352  0.66043088  1
  O2-  O198  1  -0.00189758  0.87405111  0.16839589  1
  O2-  O199  1  -0.00079675  0.87543495  0.66492684  1
  O2-  O200  1  0.24965433  0.12504348  0.16307481  1
  O2-  O201  1  0.24996044  0.12512251  0.66754563  1
  O2-  O202  1  0.25051261  0.37618295  0.16794499  1
  O2-  O203  1  0.24966607  0.37447866  0.66127050  1
  O2-  O204  1  0.24999415  0.62452623  0.16410074  1
  O2-  O205  1  0.24835214  0.62548237  0.66466307  1
  O2-  O206  1  0.25283525  0.87385900  0.16349973  1
  O2-  O207  1  0.24996753  0.87603243  0.67327510  1
  O2-  O208  1  0.50138709  0.12537764  0.16301658  1
  O2-  O209  1  0.49895049  0.12482488  0.66567196  1
  O2-  O210  1  0.49976587  0.37552327  0.16719362  1
  O2-  O211  1  0.49793565  0.37528311  0.66138587  1
  O2-  O212  1  0.49915013  0.62430660  0.16634578  1
  O2-  O213  1  0.50271806  0.62528699  0.66293077  1
  O2-  O214  1  0.49965364  0.87406544  0.16155948  1
  O2-  O215  1  0.49982515  0.87505842  0.66745501  1
  O2-  O216  1  0.74997491  0.12518372  0.16471298  1
  O2-  O217  1  0.75055880  0.12546125  0.66257549  1
  O2-  O218  1  0.74851165  0.37521829  0.16810373  1
  O2-  O219  1  0.75184186  0.37532378  0.66232224  1
  O2-  O220  1  0.75134387  0.62468701  0.16888169  1
  O2-  O221  1  0.75079464  0.62531217  0.65891147  1
  O2-  O222  1  0.74969133  0.87438101  0.16807680  1
  O2-  O223  1  0.75091478  0.87482212  0.65998108  1
  O2-  O224  1  0.12504766  0.00057104  0.34511902  1
  O2-  O225  1  0.12468677  -0.00052998  0.85198042  1
  O2-  O226  1  0.12431958  0.25083435  0.34742802  1
  O2-  O227  1  0.12492039  0.25215107  0.84857272  1
  O2-  O228  1  0.12422983  0.49785838  0.35300646  1
  O2-  O229  1  0.12505853  0.50119182  0.84086221  1
  O2-  O230  1  0.12472934  0.75057626  0.34895202  1
  O2-  O231  1  0.12477541  0.74719485  0.84762155  1
  O2-  O232  1  0.37463199  0.00093194  0.34437697  1
  O2-  O233  1  0.37548312  -0.00267306  0.85310810  1
  O2-  O234  1  0.37431583  0.25056911  0.34636155  1
  O2-  O235  1  0.37501196  0.25181799  0.84722722  1
  O2-  O236  1  0.37444404  0.49638899  0.35232199  1
  O2-  O237  1  0.37528209  0.50079642  0.84134831  1
  O2-  O238  1  0.37524929  0.75220840  0.34891685  1
  O2-  O239  1  0.37548040  0.75036920  0.84867028  1
  O2-  O240  1  0.62527710  -0.00105890  0.34451404  1
  O2-  O241  1  0.62534406  -0.00001551  0.84717837  1
  O2-  O242  1  0.62550613  0.25219621  0.34563472  1
  O2-  O243  1  0.62520214  0.24994475  0.84837927  1
  O2-  O244  1  0.62586806  0.50042149  0.35221567  1
  O2-  O245  1  0.62469557  0.49852066  0.84642304  1
  O2-  O246  1  0.62565293  0.74878650  0.35002428  1
  O2-  O247  1  0.62493856  0.75197122  0.84512270  1
  O2-  O248  1  0.87511220  -0.00114775  0.34714391  1
  O2-  O249  1  0.87434901  0.00014183  0.84685979  1
  O2-  O250  1  0.87580749  0.25104494  0.34721212  1
  O2-  O251  1  0.87471899  0.24837038  0.84652135  1
  O2-  O252  1  0.87546524  0.50011951  0.35461446  1
  O2-  O253  1  0.87487475  0.50190347  0.84207385  1
  O2-  O254  1  0.87474594  0.74983619  0.35421839  1
  O2-  O255  1  0.87474609  0.74959055  0.84361702  1
  O2-  O256  1  -0.00006979  0.12488207  0.34539987  1
  O2-  O257  1  -0.00203013  0.12519166  0.84765334  1
  O2-  O258  1  -0.00008332  0.37550320  0.35290460  1
  O2-  O259  1  0.00197754  0.37587764  0.84559611  1
  O2-  O260  1  -0.00162532  0.62506659  0.34975668  1
  O2-  O261  1  0.00018323  0.62467801  0.84258690  1
  O2-  O262  1  -0.00192188  0.87450399  0.35205361  1
  O2-  O263  1  -0.00113845  0.87431357  0.84866175  1
  O2-  O264  1  0.24985889  0.12486847  0.34395596  1
  O2-  O265  1  0.24988520  0.12558734  0.85196808  1
  O2-  O266  1  0.24948584  0.37438171  0.35145911  1
  O2-  O267  1  0.25091610  0.37613993  0.84470745  1
  O2-  O268  1  0.24798885  0.62514577  0.34715257  1
  O2-  O269  1  0.25070519  0.62430193  0.84569424  1
  O2-  O270  1  0.25047901  0.87537769  0.34831608  1
  O2-  O271  1  0.25322489  0.87396077  0.85356131  1
  O2-  O272  1  0.49829065  0.12544809  0.34507851  1
  O2-  O273  1  0.50262823  0.12548782  0.84793892  1
  O2-  O274  1  0.49844431  0.37507254  0.35022911  1
  O2-  O275  1  0.49904282  0.37575698  0.84536445  1
  O2-  O276  1  0.50321207  0.62469093  0.34994374  1
  O2-  O277  1  0.49809716  0.62465858  0.84563301  1
  O2-  O278  1  0.50074677  0.87462080  0.34480494  1
  O2-  O279  1  0.49889634  0.87456484  0.84921528  1
  O2-  O280  1  0.75211982  0.12547414  0.34720754  1
  O2-  O281  1  0.74917466  0.12517344  0.84349491  1
  O2-  O282  1  0.75209438  0.37593018  0.35076008  1
  O2-  O283  1  0.74796222  0.37575433  0.84740065  1
  O2-  O284  1  0.75034504  0.62466116  0.35280561  1
  O2-  O285  1  0.75121284  0.62495304  0.84295046  1
  O2-  O286  1  0.75124528  0.87413675  0.35038386  1
  O2-  O287  1  0.74888716  0.87468298  0.84390528  1
