# generated using pymatgen
data_BaYFeCuO5
_symmetry_space_group_name_H-M   'P 1'
_cell_length_a   15.68312666
_cell_length_b   15.68762605
_cell_length_c   15.51838198
_cell_angle_alpha   90.00221350
_cell_angle_beta   90.00071322
_cell_angle_gamma   90.00515561
_symmetry_Int_Tables_number   1
_chemical_formula_structural   BaYFeCuO5
_chemical_formula_sum   'Ba32 Y32 Fe32 Cu32 O160'
_cell_volume   3818.00342569
_cell_formula_units_Z   32
loop_
 _symmetry_equiv_pos_site_id
 _symmetry_equiv_pos_as_xyz
  1  'x, y, z'
loop_
 _atom_type_symbol
 _atom_type_oxidation_number
  Ba2+  2.0
  Y3+  3.0
  Fe3+  3.0
  Cu2+  2.0
  O2-  -2.0
loop_
 _atom_site_type_symbol
 _atom_site_label
 _atom_site_symmetry_multiplicity
 _atom_site_fract_x
 _atom_site_fract_y
 _atom_site_fract_z
 _atom_site_occupancy
  Ba2+  Ba0  1  -0.00175469  -0.00763151  0.01394684  1
  Ba2+  Ba1  1  -0.00178849  0.00058341  0.52341936  1
  Ba2+  Ba2  1  -0.00489998  0.25595925  0.01360436  1
  Ba2+  Ba3  1  -0.00245474  0.23649928  0.51098854  1
  Ba2+  Ba4  1  0.00174340  0.50426925  0.01383650  1
  Ba2+  Ba5  1  -0.00023097  0.50091636  0.50668989  1
  Ba2+  Ba6  1  0.00463240  0.74876499  0.01578146  1
  Ba2+  Ba7  1  0.00041984  0.76266564  0.51787832  1
  Ba2+  Ba8  1  0.25331995  -0.00917510  0.01089501  1
  Ba2+  Ba9  1  0.25034879  -0.00273162  0.50763807  1
  Ba2+  Ba10  1  0.25465288  0.25527920  0.01399190  1
  Ba2+  Ba11  1  0.25054683  0.23882392  0.50697192  1
  Ba2+  Ba12  1  0.24672475  0.50420783  -0.00104799  1
  Ba2+  Ba13  1  0.25748212  0.50770594  0.50723656  1
  Ba2+  Ba14  1  0.24837126  0.75104174  0.00154078  1
  Ba2+  Ba15  1  0.25811396  0.75400785  0.50449959  1
  Ba2+  Ba16  1  0.50042885  -0.00468335  0.01500786  1
  Ba2+  Ba17  1  0.49982563  -0.00232827  0.50533097  1
  Ba2+  Ba18  1  0.50094683  0.24976288  0.01886066  1
  Ba2+  Ba19  1  0.50442507  0.24435111  0.50158711  1
  Ba2+  Ba20  1  0.50047766  0.50044735  0.00631419  1
  Ba2+  Ba21  1  0.50083247  0.50839259  0.50765312  1
  Ba2+  Ba22  1  0.49948123  0.75415616  0.00654926  1
  Ba2+  Ba23  1  0.49846244  0.74971413  0.51396501  1
  Ba2+  Ba24  1  0.74674691  -0.00222141  0.01835791  1
  Ba2+  Ba25  1  0.75107677  0.00046232  0.52218206  1
  Ba2+  Ba26  1  0.74955741  0.25076017  0.01837752  1
  Ba2+  Ba27  1  0.74864976  0.24037778  0.50671162  1
  Ba2+  Ba28  1  0.75125412  0.50087823  0.02051769  1
  Ba2+  Ba29  1  0.74031664  0.49999313  0.50638295  1
  Ba2+  Ba30  1  0.74773974  0.75053239  0.01918607  1
  Ba2+  Ba31  1  0.74442931  0.75741546  0.52131527  1
  Y3+  Y32  1  -0.00241527  -0.00096708  0.25280702  1
  Y3+  Y33  1  0.00053699  -0.00064912  0.75802498  1
  Y3+  Y34  1  -0.00302550  0.24711071  0.25825855  1
  Y3+  Y35  1  -0.00006873  0.24780050  0.75583312  1
  Y3+  Y36  1  -0.00017549  0.50213174  0.25723976  1
  Y3+  Y37  1  0.00277877  0.50073621  0.75766634  1
  Y3+  Y38  1  0.00100939  0.75130421  0.25191823  1
  Y3+  Y39  1  0.00289152  0.75247645  0.76056591  1
  Y3+  Y40  1  0.25358993  -0.00210496  0.25333876  1
  Y3+  Y41  1  0.24873114  -0.00284696  0.76230387  1
  Y3+  Y42  1  0.25261636  0.24797370  0.25783503  1
  Y3+  Y43  1  0.24846104  0.24983597  0.75799622  1
  Y3+  Y44  1  0.25170079  0.50278368  0.25930353  1
  Y3+  Y45  1  0.25029412  0.50353419  0.75747480  1
  Y3+  Y46  1  0.25128911  0.75123286  0.25383276  1
  Y3+  Y47  1  0.25108312  0.75038803  0.76236080  1
  Y3+  Y48  1  0.49837308  -0.00098917  0.25227301  1
  Y3+  Y49  1  0.50177588  -0.00272832  0.76215771  1
  Y3+  Y50  1  0.49954828  0.24815208  0.25795593  1
  Y3+  Y51  1  0.50218479  0.24999445  0.75818679  1
  Y3+  Y52  1  0.49950365  0.50081527  0.26070845  1
  Y3+  Y53  1  0.49929623  0.50283600  0.75548794  1
  Y3+  Y54  1  0.49831742  0.75126372  0.25510959  1
  Y3+  Y55  1  0.49907828  0.75043398  0.76098152  1
  Y3+  Y56  1  0.75072207  0.00037170  0.25268230  1
  Y3+  Y57  1  0.74848355  -0.00035250  0.75732175  1
  Y3+  Y58  1  0.75116304  0.24722239  0.25889059  1
  Y3+  Y59  1  0.74969203  0.24774967  0.75482811  1
  Y3+  Y60  1  0.74946938  0.50022720  0.25910219  1
  Y3+  Y61  1  0.74751952  0.49996590  0.75511558  1
  Y3+  Y62  1  0.74910523  0.75154896  0.25225278  1
  Y3+  Y63  1  0.74663609  0.75270359  0.75755789  1
  Fe3+  Fe64  1  0.87431152  0.87609781  0.37487949  1
  Fe3+  Fe65  1  0.62562787  0.12590195  0.87856939  1
  Fe3+  Fe66  1  0.62558167  0.12191286  0.37406159  1
  Fe3+  Fe67  1  0.37561599  0.37433263  0.38097076  1
  Fe3+  Fe68  1  0.62610099  0.62425743  0.87647733  1
  Fe3+  Fe69  1  0.87439461  0.62516802  0.87457290  1
  Fe3+  Fe70  1  0.87459892  0.62829859  0.37980708  1
  Fe3+  Fe71  1  0.62508539  0.87537952  0.37410165  1
  Fe3+  Fe72  1  0.12459085  0.12572659  0.88135964  1
  Fe3+  Fe73  1  0.37547803  0.12535047  0.87954348  1
  Fe3+  Fe74  1  0.87381275  0.87434305  0.87703348  1
  Fe3+  Fe75  1  0.87397256  0.37593602  0.87399449  1
  Fe3+  Fe76  1  0.87462477  0.37418649  0.38032043  1
  Fe3+  Fe77  1  0.87443355  0.12500822  0.87813268  1
  Fe3+  Fe78  1  0.12485794  0.62755311  0.38037100  1
  Fe3+  Fe79  1  0.62511861  0.62777476  0.37570207  1
  Fe3+  Fe80  1  0.12521584  0.37400269  0.38125635  1
  Fe3+  Fe81  1  0.12448725  0.12177187  0.37401517  1
  Fe3+  Fe82  1  0.12466391  0.87618110  0.37397349  1
  Fe3+  Fe83  1  0.37610408  0.37473254  0.87525988  1
  Fe3+  Fe84  1  0.62433753  0.37565408  0.14149243  1
  Fe3+  Fe85  1  0.12536054  0.12488867  0.13405809  1
  Fe3+  Fe86  1  0.12574174  0.62742544  0.63445343  1
  Fe3+  Fe87  1  0.62371044  0.37413537  0.63552532  1
  Fe3+  Fe88  1  0.37580098  0.12382373  0.63944790  1
  Fe3+  Fe89  1  0.37503602  0.37440008  0.63417445  1
  Fe3+  Fe90  1  0.12570101  0.37459571  0.63304137  1
  Fe3+  Fe91  1  0.87490395  0.37478422  0.63261858  1
  Fe3+  Fe92  1  0.37507071  0.62398793  0.13789027  1
  Fe3+  Fe93  1  0.87446998  0.62622989  0.63286772  1
  Fe3+  Fe94  1  0.12588696  0.37597202  0.14117634  1
  Fe3+  Fe95  1  0.37498745  0.87541381  0.64193080  1
  Cu2+  Cu96  1  0.37520661  0.12339027  0.36132972  1
  Cu2+  Cu97  1  0.62587985  0.37504044  0.86166012  1
  Cu2+  Cu98  1  0.37568821  0.62697084  0.37308673  1
  Cu2+  Cu99  1  0.37557848  0.87514988  0.36043289  1
  Cu2+  Cu100  1  0.12396378  0.87544627  0.87353539  1
  Cu2+  Cu101  1  0.12386909  0.62524569  0.87185720  1
  Cu2+  Cu102  1  0.37583834  0.87525385  0.87398282  1
  Cu2+  Cu103  1  0.62588764  0.87516468  0.87421614  1
  Cu2+  Cu104  1  0.37562856  0.62463878  0.86378774  1
  Cu2+  Cu105  1  0.87492218  0.12139774  0.37168371  1
  Cu2+  Cu106  1  0.62511604  0.37425901  0.36563412  1
  Cu2+  Cu107  1  0.12439874  0.37436437  0.86099309  1
  Cu2+  Cu108  1  0.87467080  0.87463748  0.65463400  1
  Cu2+  Cu109  1  0.37469110  0.12517940  0.14674731  1
  Cu2+  Cu110  1  0.87522664  0.37537600  0.15777773  1
  Cu2+  Cu111  1  0.37516600  0.87340663  0.14203085  1
  Cu2+  Cu112  1  0.62388452  0.87434622  0.14094630  1
  Cu2+  Cu113  1  0.62320330  0.12448031  0.65259331  1
  Cu2+  Cu114  1  0.12664106  0.87506306  0.65504770  1
  Cu2+  Cu115  1  0.62305314  0.87566457  0.65412758  1
  Cu2+  Cu116  1  0.37493876  0.37619630  0.15646667  1
  Cu2+  Cu117  1  0.62373088  0.62414961  0.15230080  1
  Cu2+  Cu118  1  0.87536214  0.12493308  0.14537674  1
  Cu2+  Cu119  1  0.12605721  0.87440080  0.14092782  1
  Cu2+  Cu120  1  0.87483437  0.62480706  0.15363753  1
  Cu2+  Cu121  1  0.62475772  0.12548291  0.15057244  1
  Cu2+  Cu122  1  0.87443501  0.12463352  0.64303327  1
  Cu2+  Cu123  1  0.12670659  0.62439568  0.14443139  1
  Cu2+  Cu124  1  0.62475227  0.62560074  0.65121937  1
  Cu2+  Cu125  1  0.87469156  0.87418974  0.14726906  1
  Cu2+  Cu126  1  0.37476138  0.62656126  0.64332261  1
  Cu2+  Cu127  1  0.12662150  0.12413900  0.65508138  1
  O2-  O128  1  0.12462522  0.12820456  0.00711278  1
  O2-  O129  1  0.12498981  0.12055963  0.49448328  1
  O2-  O130  1  0.12480364  0.37656764  0.02092377  1
  O2-  O131  1  0.12555855  0.37317349  0.50714661  1
  O2-  O132  1  0.12448762  0.62271138  0.00701527  1
  O2-  O133  1  0.12461801  0.62873588  0.50727525  1
  O2-  O134  1  0.12401313  0.87440835  0.00666318  1
  O2-  O135  1  0.12387248  0.87829926  0.49380583  1
  O2-  O136  1  0.37520920  0.12877534  -0.00050626  1
  O2-  O137  1  0.37515382  0.12244986  0.51910732  1
  O2-  O138  1  0.37596955  0.37469743  -0.00483238  1
  O2-  O139  1  0.37551821  0.37314448  0.50793620  1
  O2-  O140  1  0.37420603  0.62139861  0.01775516  1
  O2-  O141  1  0.37529714  0.62763629  0.50821857  1
  O2-  O142  1  0.37592309  0.87369910  0.00770971  1
  O2-  O143  1  0.37561377  0.87649677  0.52123079  1
  O2-  O144  1  0.62677554  0.12816332  -0.00150579  1
  O2-  O145  1  0.62488027  0.12072207  0.49465863  1
  O2-  O146  1  0.62541776  0.37630469  0.02100354  1
  O2-  O147  1  0.62305024  0.37367045  0.51580680  1
  O2-  O148  1  0.62795024  0.62146860  -0.00380178  1
  O2-  O149  1  0.62610273  0.62901822  0.49606807  1
  O2-  O150  1  0.62604508  0.87429267  0.00690372  1
  O2-  O151  1  0.62500008  0.87640131  0.49408527  1
  O2-  O152  1  0.87453270  0.12837471  -0.00224295  1
  O2-  O153  1  0.87463916  0.12266303  0.50737766  1
  O2-  O154  1  0.87448599  0.37714090  -0.00610493  1
  O2-  O155  1  0.87493459  0.37344542  0.50650768  1
  O2-  O156  1  0.87453325  0.62266233  -0.00587191  1
  O2-  O157  1  0.87446385  0.62840613  0.50538460  1
  O2-  O158  1  0.87385270  0.87250504  -0.00296366  1
  O2-  O159  1  0.87462513  0.87669645  0.49493415  1
  O2-  O160  1  0.12528104  0.00283600  0.15782621  1
  O2-  O161  1  0.12559109  -0.00041273  0.66794477  1
  O2-  O162  1  0.12477414  0.24905719  0.16752280  1
  O2-  O163  1  0.12524873  0.25185393  0.66268518  1
  O2-  O164  1  0.12498059  0.49824552  0.17511073  1
  O2-  O165  1  0.12427284  0.50029169  0.65873088  1
  O2-  O166  1  0.12490190  0.74956334  0.16528254  1
  O2-  O167  1  0.12438162  0.74900765  0.66403198  1
  O2-  O168  1  0.37480535  0.00049793  0.16189395  1
  O2-  O169  1  0.37475550  -0.00001595  0.67135493  1
  O2-  O170  1  0.37481701  0.25112259  0.16714245  1
  O2-  O171  1  0.37337063  0.25125943  0.66331132  1
  O2-  O172  1  0.37494209  0.50025012  0.17313122  1
  O2-  O173  1  0.37459638  0.49727817  0.66045797  1
  O2-  O174  1  0.37547776  0.74738308  0.16658510  1
  O2-  O175  1  0.37460991  0.75197333  0.66923657  1
  O2-  O176  1  0.62479538  0.00192014  0.16007221  1
  O2-  O177  1  0.62377123  0.00043176  0.66613177  1
  O2-  O178  1  0.62510914  0.25066160  0.16852474  1
  O2-  O179  1  0.62507633  0.25043992  0.66477211  1
  O2-  O180  1  0.62553380  0.49918403  0.17139339  1
  O2-  O181  1  0.62415151  0.49938414  0.66222642  1
  O2-  O182  1  0.62488708  0.74756018  0.16251036  1
  O2-  O183  1  0.62513888  0.75006737  0.66389410  1
  O2-  O184  1  0.87502996  -0.00063781  0.15886252  1
  O2-  O185  1  0.87534954  -0.00188277  0.66756906  1
  O2-  O186  1  0.87550132  0.25014784  0.16714403  1
  O2-  O187  1  0.87564071  0.25341655  0.66241393  1
  O2-  O188  1  0.87527251  0.50060574  0.17119514  1
  O2-  O189  1  0.87649316  0.50012618  0.65583592  1
  O2-  O190  1  0.87517109  0.74909784  0.16367562  1
  O2-  O191  1  0.87497776  0.74889421  0.66088597  1
  O2-  O192  1  0.00159497  0.12611106  0.16223317  1
  O2-  O193  1  0.00214868  0.12509380  0.66516887  1
  O2-  O194  1  0.00014147  0.37514813  0.16998834  1
  O2-  O195  1  0.00078347  0.37543181  0.65892307  1
  O2-  O196  1  -0.00086671  0.62373760  0.16718144  1
  O2-  O197  1  0.00012107  0.62492799  0.65864351  1
  O2-  O198  1  -0.00130422  0.87439594  0.16190107  1
  O2-  O199  1  0.00122639  0.87534228  0.66310802  1
  O2-  O200  1  0.24837940  0.12671521  0.16410535  1
  O2-  O201  1  0.25113971  0.12554612  0.66912021  1
  O2-  O202  1  0.24993111  0.37414415  0.17207584  1
  O2-  O203  1  0.24924595  0.37536851  0.66180921  1
  O2-  O204  1  0.25213231  0.62366308  0.17132123  1
  O2-  O205  1  0.24653574  0.62473973  0.66489343  1
  O2-  O206  1  0.25051042  0.87452445  0.16631833  1
  O2-  O207  1  0.25045558  0.87541776  0.66981395  1
  O2-  O208  1  0.49955496  0.12632375  0.16478961  1
  O2-  O209  1  0.49887119  0.12627666  0.66825893  1
  O2-  O210  1  0.49982172  0.37476629  0.16880978  1
  O2-  O211  1  0.49839410  0.37425049  0.66527242  1
  O2-  O212  1  0.49932101  0.62276830  0.16702708  1
  O2-  O213  1  0.50103052  0.62542910  0.66556587  1
  O2-  O214  1  0.49993818  0.87471743  0.16520892  1
  O2-  O215  1  0.49941183  0.87488884  0.66992480  1
  O2-  O216  1  0.75052009  0.12622997  0.16348777  1
  O2-  O217  1  0.74753753  0.12507038  0.66269081  1
  O2-  O218  1  0.75034158  0.37527558  0.16840600  1
  O2-  O219  1  0.75096763  0.37614195  0.66056421  1
  O2-  O220  1  0.74963904  0.62340321  0.16431467  1
  O2-  O221  1  0.75182584  0.62397692  0.65908265  1
  O2-  O222  1  0.75080344  0.87430675  0.16212412  1
  O2-  O223  1  0.74823566  0.87545901  0.66186322  1
  O2-  O224  1  0.12593055  -0.00095610  0.33812990  1
  O2-  O225  1  0.12459998  0.00384120  0.85200855  1
  O2-  O226  1  0.12517840  0.25075165  0.35028346  1
  O2-  O227  1  0.12402570  0.24826869  0.84745649  1
  O2-  O228  1  0.12396805  0.49996358  0.35859541  1
  O2-  O229  1  0.12531789  0.49835700  0.84344567  1
  O2-  O230  1  0.12503065  0.74986764  0.34749044  1
  O2-  O231  1  0.12462545  0.75036803  0.84813592  1
  O2-  O232  1  0.37515417  -0.00073736  0.34649171  1
  O2-  O233  1  0.37461544  0.00307099  0.85025311  1
  O2-  O234  1  0.37399897  0.25108043  0.35223205  1
  O2-  O235  1  0.37455839  0.24966781  0.84271131  1
  O2-  O236  1  0.37482510  0.49727683  0.35535825  1
  O2-  O237  1  0.37443924  0.49912727  0.84384892  1
  O2-  O238  1  0.37425224  0.75170808  0.34850478  1
  O2-  O239  1  0.37519121  0.74830305  0.85131287  1
  O2-  O240  1  0.62398899  -0.00120624  0.34015304  1
  O2-  O241  1  0.62558060  0.00272153  0.84882831  1
  O2-  O242  1  0.62541247  0.24871048  0.35016253  1
  O2-  O243  1  0.62593465  0.24995123  0.84603738  1
  O2-  O244  1  0.62556959  0.50071571  0.35281929  1
  O2-  O245  1  0.62525921  0.50009764  0.84390565  1
  O2-  O246  1  0.62540337  0.75090750  0.34252131  1
  O2-  O247  1  0.62512685  0.74766772  0.84723518  1
  O2-  O248  1  0.87511367  -0.00271792  0.34010705  1
  O2-  O249  1  0.87498611  0.00093065  0.84881468  1
  O2-  O250  1  0.87571903  0.25204733  0.35158577  1
  O2-  O251  1  0.87549603  0.24988278  0.84323971  1
  O2-  O252  1  0.87611199  0.50109889  0.35643987  1
  O2-  O253  1  0.87504563  0.50007841  0.83785887  1
  O2-  O254  1  0.87559538  0.74912409  0.34610704  1
  O2-  O255  1  0.87480330  0.74964740  0.84283144  1
  O2-  O256  1  0.00171227  0.12456141  0.34437362  1
  O2-  O257  1  0.00034406  0.12612077  0.84800001  1
  O2-  O258  1  0.00045670  0.37560334  0.35341282  1
  O2-  O259  1  -0.00110405  0.37525261  0.84237523  1
  O2-  O260  1  -0.00003302  0.62468542  0.35188452  1
  O2-  O261  1  -0.00236678  0.62413277  0.84136418  1
  O2-  O262  1  -0.00005177  0.87442143  0.34255770  1
  O2-  O263  1  -0.00262447  0.87551045  0.84592403  1
  O2-  O264  1  0.24987586  0.12482337  0.34757398  1
  O2-  O265  1  0.24871470  0.12699111  0.85124703  1
  O2-  O266  1  0.24947935  0.37483656  0.35493224  1
  O2-  O267  1  0.25046737  0.37479206  0.84569662  1
  O2-  O268  1  0.24676301  0.62448043  0.35348807  1
  O2-  O269  1  0.25150681  0.62395971  0.84898606  1
  O2-  O270  1  0.25061698  0.87544076  0.34917767  1
  O2-  O271  1  0.25028262  0.87506612  0.85219695  1
  O2-  O272  1  0.49999206  0.12512858  0.34827527  1
  O2-  O273  1  0.50042168  0.12666309  0.84832154  1
  O2-  O274  1  0.49795416  0.37376964  0.35222200  1
  O2-  O275  1  0.50020723  0.37533821  0.84666182  1
  O2-  O276  1  0.50181478  0.62511488  0.34824245  1
  O2-  O277  1  0.50065395  0.62317928  0.84895700  1
  O2-  O278  1  0.49963295  0.87504688  0.34775285  1
  O2-  O279  1  0.50024799  0.87506267  0.85182296  1
  O2-  O280  1  0.74867112  0.12438340  0.34567491  1
  O2-  O281  1  0.75058797  0.12606217  0.84397539  1
  O2-  O282  1  0.75250539  0.37581075  0.35158619  1
  O2-  O283  1  0.75066983  0.37523730  0.84156918  1
  O2-  O284  1  0.75171609  0.62471807  0.34753315  1
  O2-  O285  1  0.75023467  0.62430587  0.83999263  1
  O2-  O286  1  0.74985272  0.87435592  0.34247657  1
  O2-  O287  1  0.75180355  0.87509108  0.84383867  1
