# generated using pymatgen
data_BaYFeCuO5
_symmetry_space_group_name_H-M   'P 1'
_cell_length_a   15.67016200
_cell_length_b   15.66951756
_cell_length_c   15.47748778
_cell_angle_alpha   90.00090295
_cell_angle_beta   89.99726889
_cell_angle_gamma   90.01457938
_symmetry_Int_Tables_number   1
_chemical_formula_structural   BaYFeCuO5
_chemical_formula_sum   'Ba32 Y32 Fe32 Cu32 O160'
_cell_volume   3800.40225220
_cell_formula_units_Z   32
loop_
 _symmetry_equiv_pos_site_id
 _symmetry_equiv_pos_as_xyz
  1  'x, y, z'
loop_
 _atom_type_symbol
 _atom_type_oxidation_number
  Ba2+  2.0
  Y3+  3.0
  Fe3+  3.0
  Cu2+  2.0
  O2-  -2.0
loop_
 _atom_site_type_symbol
 _atom_site_label
 _atom_site_symmetry_multiplicity
 _atom_site_fract_x
 _atom_site_fract_y
 _atom_site_fract_z
 _atom_site_occupancy
  Ba2+  Ba0  1  0.00000800  -0.00273602  0.01131261  1
  Ba2+  Ba1  1  0.00492199  0.00389197  0.52221184  1
  Ba2+  Ba2  1  0.00127357  0.24997392  0.00609594  1
  Ba2+  Ba3  1  -0.00750310  0.24966469  0.51754639  1
  Ba2+  Ba4  1  -0.00156754  0.50320672  0.01294997  1
  Ba2+  Ba5  1  -0.00773455  0.50483653  0.50654198  1
  Ba2+  Ba6  1  -0.00185996  0.75008551  0.01698044  1
  Ba2+  Ba7  1  0.00335549  0.74090492  0.51115538  1
  Ba2+  Ba8  1  0.24864021  0.00067776  0.02633772  1
  Ba2+  Ba9  1  0.24683850  -0.00680223  0.51417631  1
  Ba2+  Ba10  1  0.25073621  0.24963917  0.00618978  1
  Ba2+  Ba11  1  0.24795973  0.24960437  0.51555491  1
  Ba2+  Ba12  1  0.24989731  0.49894755  -0.00677266  1
  Ba2+  Ba13  1  0.24594290  0.50376655  0.51084045  1
  Ba2+  Ba14  1  0.24655151  0.75040572  0.01983570  1
  Ba2+  Ba15  1  0.24424247  0.75310835  0.51148416  1
  Ba2+  Ba16  1  0.49490143  0.00554919  0.02421356  1
  Ba2+  Ba17  1  0.49353610  -0.00576707  0.50614955  1
  Ba2+  Ba18  1  0.50202430  0.25224701  0.01298115  1
  Ba2+  Ba19  1  0.50410572  0.25996939  0.51178241  1
  Ba2+  Ba20  1  0.49804274  0.49287189  -0.00395263  1
  Ba2+  Ba21  1  0.50809951  0.49556523  0.51708743  1
  Ba2+  Ba22  1  0.48962773  0.74903321  0.00605018  1
  Ba2+  Ba23  1  0.49762161  0.75062850  0.51157659  1
  Ba2+  Ba24  1  0.75777650  0.00240617  0.00503851  1
  Ba2+  Ba25  1  0.75539323  0.00495640  0.51169064  1
  Ba2+  Ba26  1  0.74696761  0.25292469  0.01188009  1
  Ba2+  Ba27  1  0.75419671  0.26045292  0.51044813  1
  Ba2+  Ba28  1  0.75440166  0.49624550  0.01318268  1
  Ba2+  Ba29  1  0.75349079  0.49689361  0.51272171  1
  Ba2+  Ba30  1  0.76265928  0.74934842  0.00634393  1
  Ba2+  Ba31  1  0.75290100  0.73746878  0.51245915  1
  Y3+  Y32  1  0.00045640  -0.00174557  0.25272267  1
  Y3+  Y33  1  -0.00091167  0.00015196  0.75894323  1
  Y3+  Y34  1  -0.00191199  0.25275458  0.25714217  1
  Y3+  Y35  1  -0.00183695  0.24971745  0.75668875  1
  Y3+  Y36  1  -0.00328187  0.50273717  0.25984330  1
  Y3+  Y37  1  -0.00202069  0.50184210  0.75572648  1
  Y3+  Y38  1  -0.00066296  0.74655141  0.25623905  1
  Y3+  Y39  1  -0.00117005  0.74770642  0.75764996  1
  Y3+  Y40  1  0.25047921  -0.00185514  0.25887203  1
  Y3+  Y41  1  0.24841272  -0.00171883  0.75104994  1
  Y3+  Y42  1  0.24931807  0.24867078  0.25707289  1
  Y3+  Y43  1  0.24994597  0.25226845  0.75655628  1
  Y3+  Y44  1  0.24662222  0.50260778  0.26101033  1
  Y3+  Y45  1  0.25040413  0.49965371  0.75535654  1
  Y3+  Y46  1  0.24800682  0.75048566  0.26079609  1
  Y3+  Y47  1  0.24868252  0.74926396  0.75314044  1
  Y3+  Y48  1  0.49839560  0.00011968  0.25950827  1
  Y3+  Y49  1  0.49918352  -0.00155947  0.75294516  1
  Y3+  Y50  1  0.50344220  0.25159784  0.25700555  1
  Y3+  Y51  1  0.50160134  0.25496772  0.75763589  1
  Y3+  Y52  1  0.50343146  0.49760576  0.25794955  1
  Y3+  Y53  1  0.50177313  0.49751298  0.75791782  1
  Y3+  Y54  1  0.49822247  0.75133211  0.25810279  1
  Y3+  Y55  1  0.49909374  0.74897953  0.75642908  1
  Y3+  Y56  1  0.75046191  -0.00006323  0.25461493  1
  Y3+  Y57  1  0.75381664  -0.00010461  0.75940898  1
  Y3+  Y58  1  0.74902475  0.25508257  0.25727171  1
  Y3+  Y59  1  0.75100160  0.25276159  0.75701932  1
  Y3+  Y60  1  0.75256508  0.49779333  0.25899409  1
  Y3+  Y61  1  0.75085054  0.49962079  0.75756451  1
  Y3+  Y62  1  0.75384732  0.74786879  0.25476594  1
  Y3+  Y63  1  0.75354521  0.74719183  0.76005534  1
  Fe3+  Fe64  1  0.62527914  0.62498920  0.88013108  1
  Fe3+  Fe65  1  0.12256100  0.87508526  0.37597372  1
  Fe3+  Fe66  1  0.87562951  0.87468681  0.38008961  1
  Fe3+  Fe67  1  0.12585962  0.87479029  0.87562446  1
  Fe3+  Fe68  1  0.62435476  0.87558367  0.87944686  1
  Fe3+  Fe69  1  0.12608451  0.12430313  0.87470896  1
  Fe3+  Fe70  1  0.37301181  0.87638870  0.87537505  1
  Fe3+  Fe71  1  0.12336066  0.37490057  0.38118330  1
  Fe3+  Fe72  1  0.37507227  0.12387603  0.87323998  1
  Fe3+  Fe73  1  0.62415376  0.12457165  0.87546032  1
  Fe3+  Fe74  1  0.62550321  0.62435004  0.37659126  1
  Fe3+  Fe75  1  0.37460092  0.12601210  0.37958194  1
  Fe3+  Fe76  1  0.37460894  0.37547451  0.38039529  1
  Fe3+  Fe77  1  0.37558975  0.62476567  0.38097071  1
  Fe3+  Fe78  1  0.12353700  0.12503646  0.37688501  1
  Fe3+  Fe79  1  0.87591030  0.37517265  0.87700499  1
  Fe3+  Fe80  1  0.62588188  0.12569321  0.37998860  1
  Fe3+  Fe81  1  0.12488850  0.62546912  0.87596317  1
  Fe3+  Fe82  1  0.87564640  0.12488999  0.37629254  1
  Fe3+  Fe83  1  0.62676354  0.87413361  0.37956687  1
  Fe3+  Fe84  1  0.12341469  0.37590420  0.63614365  1
  Fe3+  Fe85  1  0.37562333  0.12575775  0.63329690  1
  Fe3+  Fe86  1  0.87579164  0.87375843  0.63499242  1
  Fe3+  Fe87  1  0.62526897  0.87435486  0.13388783  1
  Fe3+  Fe88  1  0.37433206  0.62277397  0.13906354  1
  Fe3+  Fe89  1  0.62585884  0.12528167  0.63356862  1
  Fe3+  Fe90  1  0.87509684  0.12672035  0.13713794  1
  Fe3+  Fe91  1  0.37378854  0.37627957  0.13996056  1
  Fe3+  Fe92  1  0.37573205  0.62413321  0.63615133  1
  Fe3+  Fe93  1  0.62432200  0.62475198  0.13371359  1
  Fe3+  Fe94  1  0.62688857  0.87397368  0.63438251  1
  Fe3+  Fe95  1  0.12525081  0.37630546  0.13874555  1
  Cu2+  Cu96  1  0.87387045  0.62535671  0.37119960  1
  Cu2+  Cu97  1  0.87527612  0.12581850  0.86379696  1
  Cu2+  Cu98  1  0.62574548  0.37552700  0.37232382  1
  Cu2+  Cu99  1  0.62647200  0.37454603  0.87307502  1
  Cu2+  Cu100  1  0.37463000  0.37405901  0.86015274  1
  Cu2+  Cu101  1  0.12402936  0.62525338  0.37389945  1
  Cu2+  Cu102  1  0.12418161  0.37508473  0.86036191  1
  Cu2+  Cu103  1  0.37415400  0.87422508  0.37404253  1
  Cu2+  Cu104  1  0.37441526  0.62544133  0.86077531  1
  Cu2+  Cu105  1  0.87609029  0.62417471  0.87300263  1
  Cu2+  Cu106  1  0.87543899  0.37502854  0.37239706  1
  Cu2+  Cu107  1  0.87674603  0.87458024  0.87196617  1
  Cu2+  Cu108  1  0.87478170  0.62449698  0.64458149  1
  Cu2+  Cu109  1  0.37478866  0.12651279  0.15652517  1
  Cu2+  Cu110  1  0.37494838  0.87374669  0.63961585  1
  Cu2+  Cu111  1  0.62553772  0.12512307  0.15295883  1
  Cu2+  Cu112  1  0.12482565  0.87439682  0.15229380  1
  Cu2+  Cu113  1  0.62486844  0.37659807  0.14091552  1
  Cu2+  Cu114  1  0.12456864  0.12606264  0.15203132  1
  Cu2+  Cu115  1  0.87527546  0.37590518  0.64440438  1
  Cu2+  Cu116  1  0.87473936  0.87535378  0.14226722  1
  Cu2+  Cu117  1  0.87413755  0.12480366  0.65229894  1
  Cu2+  Cu118  1  0.12501037  0.12595235  0.65038767  1
  Cu2+  Cu119  1  0.87569913  0.37527812  0.15078723  1
  Cu2+  Cu120  1  0.37485088  0.87444449  0.15488291  1
  Cu2+  Cu121  1  0.12540857  0.62400790  0.15225479  1
  Cu2+  Cu122  1  0.87487059  0.62422614  0.14250679  1
  Cu2+  Cu123  1  0.62680149  0.37536614  0.64461427  1
  Cu2+  Cu124  1  0.12439477  0.62403929  0.64158864  1
  Cu2+  Cu125  1  0.12310678  0.87403535  0.64972176  1
  Cu2+  Cu126  1  0.37505049  0.37535461  0.64747236  1
  Cu2+  Cu127  1  0.62562905  0.62522440  0.65342152  1
  O2-  O128  1  0.12833618  0.12410597  -0.00511160  1
  O2-  O129  1  0.12395059  0.12493778  0.49669003  1
  O2-  O130  1  0.12780399  0.37515251  0.01864136  1
  O2-  O131  1  0.12328873  0.37411513  0.50789213  1
  O2-  O132  1  0.12689763  0.62582218  -0.00348471  1
  O2-  O133  1  0.12565236  0.62455554  0.50743203  1
  O2-  O134  1  0.12782681  0.87583449  -0.00425744  1
  O2-  O135  1  0.12152357  0.87615562  0.49655133  1
  O2-  O136  1  0.37464974  0.12311184  -0.00671905  1
  O2-  O137  1  0.37479903  0.12609183  0.50554171  1
  O2-  O138  1  0.37288935  0.37576551  0.01962334  1
  O2-  O139  1  0.37501496  0.37432032  0.50067114  1
  O2-  O140  1  0.37327391  0.62305388  0.01866845  1
  O2-  O141  1  0.37676871  0.62479724  0.50777275  1
  O2-  O142  1  0.37335340  0.87792477  -0.00463718  1
  O2-  O143  1  0.37534007  0.87430195  0.50634420  1
  O2-  O144  1  0.62148144  0.12311168  -0.00442273  1
  O2-  O145  1  0.62634747  0.12529961  0.50626808  1
  O2-  O146  1  0.62386307  0.37447957  0.00742477  1
  O2-  O147  1  0.62625154  0.37520286  0.50831225  1
  O2-  O148  1  0.62279661  0.62599829  0.00704201  1
  O2-  O149  1  0.62418345  0.62545071  0.49707429  1
  O2-  O150  1  0.62340796  0.87631165  0.00634054  1
  O2-  O151  1  0.62707944  0.87377270  0.50679693  1
  O2-  O152  1  0.87504053  0.12656168  0.01636891  1
  O2-  O153  1  0.87645601  0.12323282  0.49673537  1
  O2-  O154  1  0.87656184  0.37358200  -0.00204973  1
  O2-  O155  1  0.87627288  0.37530251  0.50782636  1
  O2-  O156  1  0.87653567  0.62435118  0.00800691  1
  O2-  O157  1  0.87373824  0.62541781  0.50719921  1
  O2-  O158  1  0.87568325  0.87644778  0.00683418  1
  O2-  O159  1  0.87531301  0.87503750  0.50654428  1
  O2-  O160  1  0.12539079  0.00049494  0.16298589  1
  O2-  O161  1  0.12419727  0.00038671  0.66079772  1
  O2-  O162  1  0.12515397  0.25118833  0.16788004  1
  O2-  O163  1  0.12544658  0.25163734  0.66306461  1
  O2-  O164  1  0.12518399  0.49951850  0.17120513  1
  O2-  O165  1  0.12526509  0.49737016  0.66456375  1
  O2-  O166  1  0.12531156  0.74930606  0.16451719  1
  O2-  O167  1  0.12519969  0.75018245  0.66299727  1
  O2-  O168  1  0.37552593  0.00076463  0.16659329  1
  O2-  O169  1  0.37586939  0.00253010  0.65839867  1
  O2-  O170  1  0.37483198  0.25100806  0.16773504  1
  O2-  O171  1  0.37608347  0.24795520  0.66258722  1
  O2-  O172  1  0.37456482  0.50010007  0.17405570  1
  O2-  O173  1  0.37647937  0.50154982  0.66440038  1
  O2-  O174  1  0.37531900  0.74886069  0.16636898  1
  O2-  O175  1  0.37582581  0.74701094  0.66358452  1
  O2-  O176  1  0.62414357  -0.00206809  0.16609894  1
  O2-  O177  1  0.62513369  -0.00077121  0.65883006  1
  O2-  O178  1  0.62470964  0.24941440  0.16573372  1
  O2-  O179  1  0.62514343  0.24661092  0.66344762  1
  O2-  O180  1  0.62462551  0.50352239  0.16448602  1
  O2-  O181  1  0.62492988  0.50140701  0.66786515  1
  O2-  O182  1  0.62316240  0.75035917  0.16202472  1
  O2-  O183  1  0.62661983  0.75204965  0.66532335  1
  O2-  O184  1  0.87407096  0.00225318  0.16639479  1
  O2-  O185  1  0.87501941  -0.00195472  0.66285782  1
  O2-  O186  1  0.87477401  0.25016032  0.16702169  1
  O2-  O187  1  0.87424097  0.24846319  0.66396844  1
  O2-  O188  1  0.87481133  0.49876472  0.16604181  1
  O2-  O189  1  0.87453166  0.50054943  0.66649484  1
  O2-  O190  1  0.87529441  0.74995138  0.16581515  1
  O2-  O191  1  0.87356917  0.75228936  0.66443301  1
  O2-  O192  1  -0.00024906  0.12547766  0.16313631  1
  O2-  O193  1  -0.00041240  0.12526575  0.66425821  1
  O2-  O194  1  0.00041644  0.37549216  0.16655861  1
  O2-  O195  1  0.00168371  0.37419792  0.66400173  1
  O2-  O196  1  0.00144436  0.62428469  0.16492872  1
  O2-  O197  1  -0.00051322  0.62525425  0.66487821  1
  O2-  O198  1  0.00136774  0.87541943  0.16346909  1
  O2-  O199  1  -0.00212179  0.87473302  0.66247873  1
  O2-  O200  1  0.24936568  0.12546277  0.16686938  1
  O2-  O201  1  0.25197369  0.12526216  0.65820054  1
  O2-  O202  1  0.24990843  0.37514795  0.17381741  1
  O2-  O203  1  0.24841099  0.37488208  0.66157167  1
  O2-  O204  1  0.25041905  0.62565576  0.17081155  1
  O2-  O205  1  0.25279786  0.62391965  0.66082362  1
  O2-  O206  1  0.25002140  0.87476335  0.16636071  1
  O2-  O207  1  0.24767961  0.87512378  0.65911869  1
  O2-  O208  1  0.50041851  0.12471514  0.16834421  1
  O2-  O209  1  0.50095238  0.12345606  0.65694093  1
  O2-  O210  1  0.49776690  0.37506742  0.16823123  1
  O2-  O211  1  0.50015324  0.37531167  0.66497710  1
  O2-  O212  1  0.50034177  0.62577705  0.16664593  1
  O2-  O213  1  0.49953101  0.62577674  0.66458316  1
  O2-  O214  1  0.50141294  0.87579362  0.16580257  1
  O2-  O215  1  0.50370826  0.87400389  0.66290697  1
  O2-  O216  1  0.75031429  0.12507883  0.16710498  1
  O2-  O217  1  0.74790032  0.12261703  0.66340860  1
  O2-  O218  1  0.75168435  0.37523523  0.16459372  1
  O2-  O219  1  0.75084634  0.37540607  0.66645426  1
  O2-  O220  1  0.74686867  0.62653136  0.16204234  1
  O2-  O221  1  0.74893842  0.62551996  0.66846446  1
  O2-  O222  1  0.74650358  0.87461839  0.16576872  1
  O2-  O223  1  0.75078746  0.87606954  0.66375934  1
  O2-  O224  1  0.12417156  0.00035026  0.34453631  1
  O2-  O225  1  0.12591870  -0.00002651  0.84211323  1
  O2-  O226  1  0.12536490  0.25057870  0.34930420  1
  O2-  O227  1  0.12568251  0.24978745  0.84682231  1
  O2-  O228  1  0.12498772  0.49761030  0.35380634  1
  O2-  O229  1  0.12649630  0.49990561  0.84745458  1
  O2-  O230  1  0.12400894  0.75157209  0.34793843  1
  O2-  O231  1  0.12574990  0.74998980  0.84409592  1
  O2-  O232  1  0.37581496  0.00347454  0.35090978  1
  O2-  O233  1  0.37536654  -0.00056701  0.83784165  1
  O2-  O234  1  0.37467024  0.24898648  0.34979751  1
  O2-  O235  1  0.37512123  0.24915405  0.84581808  1
  O2-  O236  1  0.37497237  0.50089944  0.35311131  1
  O2-  O237  1  0.37461846  0.49907787  0.84975551  1
  O2-  O238  1  0.37610835  0.74685372  0.34974003  1
  O2-  O239  1  0.37617803  0.75189903  0.84607645  1
  O2-  O240  1  0.62481497  0.00008088  0.35199053  1
  O2-  O241  1  0.62467818  -0.00174927  0.84250792  1
  O2-  O242  1  0.62511360  0.24733013  0.35021987  1
  O2-  O243  1  0.62485749  0.24816718  0.84626919  1
  O2-  O244  1  0.62468950  0.50131766  0.34660465  1
  O2-  O245  1  0.62445814  0.50259474  0.85217055  1
  O2-  O246  1  0.62533597  0.75135558  0.34603952  1
  O2-  O247  1  0.62335093  0.75053089  0.85116495  1
  O2-  O248  1  0.87402905  -0.00134116  0.34760703  1
  O2-  O249  1  0.87476741  0.00117672  0.84762900  1
  O2-  O250  1  0.87431554  0.24787262  0.34804447  1
  O2-  O251  1  0.87537391  0.25062631  0.84681582  1
  O2-  O252  1  0.87465161  0.50022259  0.34971336  1
  O2-  O253  1  0.87518783  0.49850653  0.84833086  1
  O2-  O254  1  0.87357936  0.75338145  0.34923614  1
  O2-  O255  1  0.87541405  0.74946490  0.84787904  1
  O2-  O256  1  -0.00033127  0.12487111  0.34310282  1
  O2-  O257  1  0.00112445  0.12488184  0.84823403  1
  O2-  O258  1  0.00259386  0.37444448  0.34942391  1
  O2-  O259  1  -0.00044289  0.37443079  0.84614773  1
  O2-  O260  1  -0.00111873  0.62563118  0.34930866  1
  O2-  O261  1  0.00204135  0.62437936  0.84656916  1
  O2-  O262  1  -0.00214574  0.87539176  0.34576228  1
  O2-  O263  1  0.00290608  0.87560373  0.84536946  1
  O2-  O264  1  0.25032066  0.12504539  0.34999845  1
  O2-  O265  1  0.25064604  0.12547567  0.83950472  1
  O2-  O266  1  0.24865248  0.37482605  0.35343274  1
  O2-  O267  1  0.24973263  0.37464886  0.84644806  1
  O2-  O268  1  0.25264308  0.62503776  0.35360933  1
  O2-  O269  1  0.24977144  0.62452227  0.84352712  1
  O2-  O270  1  0.24720036  0.87542325  0.34939402  1
  O2-  O271  1  0.24984415  0.87477574  0.83985596  1
  O2-  O272  1  0.50052165  0.12465170  0.35325117  1
  O2-  O273  1  0.49961627  0.12410223  0.83855666  1
  O2-  O274  1  0.49810392  0.37453959  0.34936732  1
  O2-  O275  1  0.49919822  0.37493302  0.84911344  1
  O2-  O276  1  0.49939495  0.62560785  0.34773731  1
  O2-  O277  1  0.50079881  0.62560627  0.85047840  1
  O2-  O278  1  0.50373256  0.87525221  0.35103526  1
  O2-  O279  1  0.50055411  0.87512951  0.84611066  1
  O2-  O280  1  0.74894699  0.12309030  0.34959492  1
  O2-  O281  1  0.74934575  0.12346829  0.84737663  1
  O2-  O282  1  0.75017713  0.37507267  0.34888769  1
  O2-  O283  1  0.75224231  0.37437912  0.84810872  1
  O2-  O284  1  0.74812381  0.62606970  0.34494575  1
  O2-  O285  1  0.74764684  0.62669455  0.85241510  1
  O2-  O286  1  0.75028699  0.87620425  0.35024717  1
  O2-  O287  1  0.74664633  0.87497361  0.84980170  1
