# generated using pymatgen
data_BaYFeCuO5
_symmetry_space_group_name_H-M   'P 1'
_cell_length_a   15.67231020
_cell_length_b   15.67445641
_cell_length_c   15.48960268
_cell_angle_alpha   89.99079757
_cell_angle_beta   90.00132666
_cell_angle_gamma   90.00142505
_symmetry_Int_Tables_number   1
_chemical_formula_structural   BaYFeCuO5
_chemical_formula_sum   'Ba32 Y32 Fe32 Cu32 O160'
_cell_volume   3805.09741369
_cell_formula_units_Z   32
loop_
 _symmetry_equiv_pos_site_id
 _symmetry_equiv_pos_as_xyz
  1  'x, y, z'
loop_
 _atom_type_symbol
 _atom_type_oxidation_number
  Ba2+  2.0
  Y3+  3.0
  Fe3+  3.0
  Cu2+  2.0
  O2-  -2.0
loop_
 _atom_site_type_symbol
 _atom_site_label
 _atom_site_symmetry_multiplicity
 _atom_site_fract_x
 _atom_site_fract_y
 _atom_site_fract_z
 _atom_site_occupancy
  Ba2+  Ba0  1  0.00101656  -0.00836388  0.01754237  1
  Ba2+  Ba1  1  0.00517614  -0.00636828  0.49636303  1
  Ba2+  Ba2  1  0.00576151  0.25805938  0.01665179  1
  Ba2+  Ba3  1  0.00245176  0.25528507  0.51365178  1
  Ba2+  Ba4  1  0.00012382  0.50171151  0.00626072  1
  Ba2+  Ba5  1  0.00063343  0.50319994  0.51292367  1
  Ba2+  Ba6  1  -0.00606856  0.74763421  0.00665571  1
  Ba2+  Ba7  1  0.00296273  0.74942516  0.49731451  1
  Ba2+  Ba8  1  0.24100466  -0.00006115  0.01728917  1
  Ba2+  Ba9  1  0.24767243  -0.00384561  0.51268613  1
  Ba2+  Ba10  1  0.24387854  0.25884380  0.01506651  1
  Ba2+  Ba11  1  0.24664801  0.24360618  0.51096185  1
  Ba2+  Ba12  1  0.24686895  0.49810922  0.01280415  1
  Ba2+  Ba13  1  0.23985077  0.50281713  0.51175187  1
  Ba2+  Ba14  1  0.24556877  0.74362677  0.01206123  1
  Ba2+  Ba15  1  0.24073195  0.75443021  0.51130966  1
  Ba2+  Ba16  1  0.50391357  -0.00565676  0.01033505  1
  Ba2+  Ba17  1  0.50108485  0.00128563  0.52274505  1
  Ba2+  Ba18  1  0.49897488  0.26058900  0.00528768  1
  Ba2+  Ba19  1  0.50581695  0.24233102  0.51584987  1
  Ba2+  Ba20  1  0.49889862  0.50230306  0.01949129  1
  Ba2+  Ba21  1  0.51030310  0.50224265  0.51131872  1
  Ba2+  Ba22  1  0.50487096  0.74332390  0.02195978  1
  Ba2+  Ba23  1  0.50654525  0.75339831  0.51620813  1
  Ba2+  Ba24  1  0.75307170  -0.01224605  0.01163688  1
  Ba2+  Ba25  1  0.74337809  -0.00191362  0.50714433  1
  Ba2+  Ba26  1  0.75088716  0.26040424  0.00637267  1
  Ba2+  Ba27  1  0.74489379  0.25199194  0.51738031  1
  Ba2+  Ba28  1  0.75400879  0.50514963  0.01235743  1
  Ba2+  Ba29  1  0.74971971  0.50224597  0.51256411  1
  Ba2+  Ba30  1  0.75507099  0.74757013  0.01710177  1
  Ba2+  Ba31  1  0.74973957  0.74793061  0.50059344  1
  Y3+  Y32  1  0.00114327  -0.00295744  0.25738586  1
  Y3+  Y33  1  -0.00095423  -0.00312035  0.75943265  1
  Y3+  Y34  1  0.00164744  0.25064786  0.25580512  1
  Y3+  Y35  1  0.00067804  0.25338584  0.75839871  1
  Y3+  Y36  1  -0.00128701  0.50214021  0.25786322  1
  Y3+  Y37  1  0.00146985  0.50124250  0.75848426  1
  Y3+  Y38  1  -0.00173089  0.75025959  0.25894139  1
  Y3+  Y39  1  -0.00032049  0.74854388  0.75917279  1
  Y3+  Y40  1  0.24532279  -0.00002612  0.25814590  1
  Y3+  Y41  1  0.24998283  -0.00195474  0.75484310  1
  Y3+  Y42  1  0.24783051  0.25065879  0.25455155  1
  Y3+  Y43  1  0.24871308  0.25134917  0.75726038  1
  Y3+  Y44  1  0.24930592  0.50019977  0.25759945  1
  Y3+  Y45  1  0.24477730  0.50096638  0.75635472  1
  Y3+  Y46  1  0.24703575  0.74921325  0.26099894  1
  Y3+  Y47  1  0.24701625  0.75019502  0.75303299  1
  Y3+  Y48  1  0.50211266  0.00038433  0.25569046  1
  Y3+  Y49  1  0.50044693  -0.00009049  0.75602863  1
  Y3+  Y50  1  0.50045600  0.24967854  0.25740485  1
  Y3+  Y51  1  0.50137381  0.24951327  0.75518560  1
  Y3+  Y52  1  0.50030008  0.50211887  0.25940969  1
  Y3+  Y53  1  0.50310665  0.50040937  0.75332476  1
  Y3+  Y54  1  0.50218246  0.74733601  0.25823116  1
  Y3+  Y55  1  0.50135574  0.75004763  0.75325218  1
  Y3+  Y56  1  0.75169929  -0.00246952  0.25750083  1
  Y3+  Y57  1  0.75013018  -0.00088136  0.75822105  1
  Y3+  Y58  1  0.75026281  0.24905658  0.25849844  1
  Y3+  Y59  1  0.74903373  0.25161287  0.75600498  1
  Y3+  Y60  1  0.75181703  0.50436865  0.25880399  1
  Y3+  Y61  1  0.75037678  0.50025862  0.75653688  1
  Y3+  Y62  1  0.75277179  0.74841367  0.25723039  1
  Y3+  Y63  1  0.75216826  0.74876509  0.75904637  1
  Fe3+  Fe64  1  0.87519591  0.37603828  0.87573661  1
  Fe3+  Fe65  1  0.37502463  0.12393620  0.37512985  1
  Fe3+  Fe66  1  0.62555300  0.12537381  0.88029837  1
  Fe3+  Fe67  1  0.62506006  0.87266579  0.87684612  1
  Fe3+  Fe68  1  0.37493316  0.37735885  0.87339028  1
  Fe3+  Fe69  1  0.37400468  0.12500240  0.87988418  1
  Fe3+  Fe70  1  0.12493481  0.37482213  0.37642136  1
  Fe3+  Fe71  1  0.87479921  0.37526734  0.37775379  1
  Fe3+  Fe72  1  0.37506218  0.62497310  0.87439995  1
  Fe3+  Fe73  1  0.87540869  0.12524821  0.37975703  1
  Fe3+  Fe74  1  0.62545760  0.37457800  0.37664514  1
  Fe3+  Fe75  1  0.12444266  0.12509667  0.87891600  1
  Fe3+  Fe76  1  0.37476960  0.87325959  0.87947971  1
  Fe3+  Fe77  1  0.37568187  0.87571819  0.37619165  1
  Fe3+  Fe78  1  0.37507667  0.37429718  0.38038537  1
  Fe3+  Fe79  1  0.37477533  0.62571500  0.38071406  1
  Fe3+  Fe80  1  0.62478891  0.62425035  0.87575491  1
  Fe3+  Fe81  1  0.87575093  0.12473497  0.88144653  1
  Fe3+  Fe82  1  0.62420683  0.87541757  0.37380684  1
  Fe3+  Fe83  1  0.12523124  0.87393470  0.87748407  1
  Fe3+  Fe84  1  0.87556005  0.12444355  0.63511442  1
  Fe3+  Fe85  1  0.37480110  0.12578629  0.13237361  1
  Fe3+  Fe86  1  0.37443329  0.37499348  0.63249232  1
  Fe3+  Fe87  1  0.62598455  0.37625656  0.13873045  1
  Fe3+  Fe88  1  0.12309217  0.12370013  0.63845812  1
  Fe3+  Fe89  1  0.87530962  0.12550915  0.13491079  1
  Fe3+  Fe90  1  0.12384757  0.62516972  0.14026279  1
  Fe3+  Fe91  1  0.62597722  0.12520335  0.13306815  1
  Fe3+  Fe92  1  0.37427606  0.87361581  0.13437941  1
  Fe3+  Fe93  1  0.87553110  0.62578515  0.63811528  1
  Fe3+  Fe94  1  0.87547580  0.87465890  0.63654255  1
  Fe3+  Fe95  1  0.37441294  0.62554712  0.63293085  1
  Cu2+  Cu96  1  0.12523241  0.37562721  0.87166247  1
  Cu2+  Cu97  1  0.62451494  0.37606068  0.86171252  1
  Cu2+  Cu98  1  0.12456498  0.12582377  0.36211381  1
  Cu2+  Cu99  1  0.12535430  0.62550984  0.86338816  1
  Cu2+  Cu100  1  0.62511571  0.12459805  0.37146719  1
  Cu2+  Cu101  1  0.87550276  0.62463101  0.36682279  1
  Cu2+  Cu102  1  0.12574388  0.87466510  0.37073081  1
  Cu2+  Cu103  1  0.12493399  0.62401706  0.37266607  1
  Cu2+  Cu104  1  0.62517991  0.62529970  0.37352883  1
  Cu2+  Cu105  1  0.87474001  0.87434110  0.87341327  1
  Cu2+  Cu106  1  0.87477573  0.87502207  0.36584868  1
  Cu2+  Cu107  1  0.87464905  0.62473924  0.87292699  1
  Cu2+  Cu108  1  0.12503449  0.37471980  0.65094945  1
  Cu2+  Cu109  1  0.62705089  0.62610670  0.64125493  1
  Cu2+  Cu110  1  0.87532929  0.37530095  0.64983472  1
  Cu2+  Cu111  1  0.37406467  0.12483820  0.65296193  1
  Cu2+  Cu112  1  0.87448542  0.37545764  0.15251483  1
  Cu2+  Cu113  1  0.62664962  0.12413566  0.64471314  1
  Cu2+  Cu114  1  0.12529567  0.87313887  0.15284250  1
  Cu2+  Cu115  1  0.37481767  0.87468318  0.64873404  1
  Cu2+  Cu116  1  0.12433826  0.12528161  0.14912668  1
  Cu2+  Cu117  1  0.62591708  0.62456262  0.15439225  1
  Cu2+  Cu118  1  0.37575095  0.37545085  0.15398080  1
  Cu2+  Cu119  1  0.62723255  0.87494229  0.65396620  1
  Cu2+  Cu120  1  0.12220317  0.87530807  0.64414488  1
  Cu2+  Cu121  1  0.87566330  0.87397349  0.14465624  1
  Cu2+  Cu122  1  0.12433102  0.37744171  0.14567635  1
  Cu2+  Cu123  1  0.87610160  0.62470945  0.14407012  1
  Cu2+  Cu124  1  0.62490195  0.37510213  0.65120823  1
  Cu2+  Cu125  1  0.37419084  0.62504129  0.15491616  1
  Cu2+  Cu126  1  0.12315723  0.62628084  0.64236649  1
  Cu2+  Cu127  1  0.62497385  0.87438386  0.15087340  1
  O2-  O128  1  0.12530142  0.12593159  -0.00098531  1
  O2-  O129  1  0.12323939  0.12408752  0.51801144  1
  O2-  O130  1  0.12528087  0.37712194  0.00681342  1
  O2-  O131  1  0.12621282  0.37264097  0.49695804  1
  O2-  O132  1  0.12517350  0.62450513  0.01938776  1
  O2-  O133  1  0.12424314  0.62497726  0.50827753  1
  O2-  O134  1  0.12763435  0.87373882  -0.00219903  1
  O2-  O135  1  0.12452079  0.87640320  0.50639541  1
  O2-  O136  1  0.37428058  0.12689096  0.00531624  1
  O2-  O137  1  0.37586806  0.12303219  0.49527981  1
  O2-  O138  1  0.37561000  0.37831879  -0.00618440  1
  O2-  O139  1  0.37472632  0.37247241  0.50525342  1
  O2-  O140  1  0.37586424  0.62390184  -0.00571246  1
  O2-  O141  1  0.37511493  0.62698700  0.50626239  1
  O2-  O142  1  0.37415814  0.87223183  0.00508717  1
  O2-  O143  1  0.37736779  0.87806397  0.49611847  1
  O2-  O144  1  0.62587410  0.12576214  0.00661297  1
  O2-  O145  1  0.62542632  0.12395261  0.50658350  1
  O2-  O146  1  0.62386132  0.37692632  0.01801012  1
  O2-  O147  1  0.62468138  0.37247564  0.49708020  1
  O2-  O148  1  0.62329060  0.62343820  -0.00388290  1
  O2-  O149  1  0.62589469  0.62626607  0.50680706  1
  O2-  O150  1  0.62330156  0.87185905  -0.00294786  1
  O2-  O151  1  0.62279367  0.87759573  0.49444020  1
  O2-  O152  1  0.87506821  0.12553804  0.00764087  1
  O2-  O153  1  0.87528572  0.12498274  0.50799461  1
  O2-  O154  1  0.87527273  0.37545448  -0.00355762  1
  O2-  O155  1  0.87387630  0.37335402  0.49750583  1
  O2-  O156  1  0.87511199  0.62417271  0.00837118  1
  O2-  O157  1  0.87512168  0.62620356  0.51743765  1
  O2-  O158  1  0.87547283  0.87460572  0.00920879  1
  O2-  O159  1  0.87495575  0.87585851  0.51656523  1
  O2-  O160  1  0.12508778  -0.00126472  0.16273666  1
  O2-  O161  1  0.12393076  0.00142475  0.66916501  1
  O2-  O162  1  0.12523114  0.25103047  0.16342129  1
  O2-  O163  1  0.12539655  0.24911170  0.66583899  1
  O2-  O164  1  0.12570211  0.50161636  0.16908733  1
  O2-  O165  1  0.12438412  0.49853417  0.66369060  1
  O2-  O166  1  0.12634006  0.74930503  0.16872195  1
  O2-  O167  1  0.12460284  0.75107582  0.66579137  1
  O2-  O168  1  0.37540790  0.00063652  0.15488213  1
  O2-  O169  1  0.37553576  -0.00042490  0.66860759  1
  O2-  O170  1  0.37572933  0.24811327  0.16162783  1
  O2-  O171  1  0.37465485  0.25173240  0.66310459  1
  O2-  O172  1  0.37562367  0.50020371  0.16878138  1
  O2-  O173  1  0.37572262  0.49979102  0.65543820  1
  O2-  O174  1  0.37545328  0.75142807  0.16341141  1
  O2-  O175  1  0.37481104  0.74891650  0.66217844  1
  O2-  O176  1  0.62501008  0.00225757  0.15900878  1
  O2-  O177  1  0.62543970  -0.00141297  0.66933854  1
  O2-  O178  1  0.62476042  0.24830276  0.16330548  1
  O2-  O179  1  0.62503245  0.25066197  0.66734313  1
  O2-  O180  1  0.62459579  0.50004490  0.16862086  1
  O2-  O181  1  0.62448499  0.49899231  0.66108493  1
  O2-  O182  1  0.62406004  0.74892364  0.16401255  1
  O2-  O183  1  0.62577034  0.75185568  0.66333466  1
  O2-  O184  1  0.87510796  0.00315645  0.16394378  1
  O2-  O185  1  0.87483915  0.00119052  0.66814299  1
  O2-  O186  1  0.87431641  0.24830267  0.16273457  1
  O2-  O187  1  0.87464003  0.24912817  0.66319106  1
  O2-  O188  1  0.87439443  0.49875952  0.16719972  1
  O2-  O189  1  0.87562742  0.49969648  0.66365899  1
  O2-  O190  1  0.87520857  0.74983170  0.16715625  1
  O2-  O191  1  0.87439130  0.75051504  0.66943718  1
  O2-  O192  1  -0.00150488  0.12570582  0.16459754  1
  O2-  O193  1  -0.00208401  0.12617712  0.66811815  1
  O2-  O194  1  -0.00205565  0.37440441  0.16640748  1
  O2-  O195  1  0.00092141  0.37358713  0.66410595  1
  O2-  O196  1  0.00143052  0.62513785  0.16904579  1
  O2-  O197  1  -0.00213819  0.62496948  0.66940602  1
  O2-  O198  1  0.00182394  0.87520933  0.16678734  1
  O2-  O199  1  -0.00289151  0.87570854  0.67048309  1
  O2-  O200  1  0.25159489  0.12520473  0.16214145  1
  O2-  O201  1  0.24891338  0.12438652  0.66552245  1
  O2-  O202  1  0.25206443  0.37540044  0.16522987  1
  O2-  O203  1  0.25173715  0.37507884  0.66188535  1
  O2-  O204  1  0.24964638  0.62502508  0.16793995  1
  O2-  O205  1  0.25215692  0.62486039  0.66215098  1
  O2-  O206  1  0.25216847  0.87532871  0.16348148  1
  O2-  O207  1  0.24985215  0.87609977  0.66370305  1
  O2-  O208  1  0.50031243  0.12495175  0.15871311  1
  O2-  O209  1  0.49875042  0.12464505  0.66739294  1
  O2-  O210  1  0.50109460  0.37489315  0.16683077  1
  O2-  O211  1  0.49799437  0.37382191  0.66097290  1
  O2-  O212  1  0.49944174  0.62439883  0.16491218  1
  O2-  O213  1  0.49770084  0.62585442  0.66057173  1
  O2-  O214  1  0.49812215  0.87585488  0.15938384  1
  O2-  O215  1  0.50164970  0.87566318  0.66440359  1
  O2-  O216  1  0.74964347  0.12524268  0.16338642  1
  O2-  O217  1  0.75386706  0.12534625  0.66702647  1
  O2-  O218  1  0.74927603  0.37390656  0.16549676  1
  O2-  O219  1  0.74935587  0.37425600  0.66499624  1
  O2-  O220  1  0.74962690  0.62506778  0.16537030  1
  O2-  O221  1  0.75245448  0.62420164  0.66765386  1
  O2-  O222  1  0.74840652  0.87549588  0.16538650  1
  O2-  O223  1  0.75138929  0.87674639  0.66737820  1
  O2-  O224  1  0.12484023  0.00166872  0.34723517  1
  O2-  O225  1  0.12601342  -0.00001467  0.84835785  1
  O2-  O226  1  0.12549139  0.25110475  0.34567032  1
  O2-  O227  1  0.12551261  0.24769433  0.84678184  1
  O2-  O228  1  0.12589548  0.49766401  0.34947846  1
  O2-  O229  1  0.12591266  0.50201828  0.84799285  1
  O2-  O230  1  0.12570048  0.74907172  0.35097400  1
  O2-  O231  1  0.12608853  0.75059942  0.84791504  1
  O2-  O232  1  0.37482658  0.00004132  0.33820704  1
  O2-  O233  1  0.37546346  -0.00043741  0.85359284  1
  O2-  O234  1  0.37490384  0.25099695  0.34576369  1
  O2-  O235  1  0.37572668  0.24851557  0.84757288  1
  O2-  O236  1  0.37530652  0.49908686  0.35394349  1
  O2-  O237  1  0.37485734  0.50084450  0.83802225  1
  O2-  O238  1  0.37502731  0.74958821  0.34779172  1
  O2-  O239  1  0.37540697  0.75135606  0.84536386  1
  O2-  O240  1  0.62534906  -0.00187622  0.34115603  1
  O2-  O241  1  0.62453323  0.00112025  0.85220862  1
  O2-  O242  1  0.62465588  0.25195803  0.34396576  1
  O2-  O243  1  0.62381310  0.24822397  0.85193362  1
  O2-  O244  1  0.62429208  0.49792202  0.35006706  1
  O2-  O245  1  0.62436579  0.50049761  0.84350591  1
  O2-  O246  1  0.62463859  0.75186180  0.34717699  1
  O2-  O247  1  0.62354460  0.74970103  0.84388367  1
  O2-  O248  1  0.87559034  0.00163153  0.34906837  1
  O2-  O249  1  0.87393005  0.00307792  0.85124658  1
  O2-  O250  1  0.87523239  0.24922502  0.34635709  1
  O2-  O251  1  0.87455015  0.24843214  0.84759762  1
  O2-  O252  1  0.87495741  0.49922006  0.34986117  1
  O2-  O253  1  0.87429817  0.49869541  0.84608953  1
  O2-  O254  1  0.87513480  0.74981099  0.35125829  1
  O2-  O255  1  0.87509112  0.74982362  0.85061370  1
  O2-  O256  1  -0.00154097  0.12525310  0.35063630  1
  O2-  O257  1  -0.00107184  0.12471330  0.84958760  1
  O2-  O258  1  -0.00019971  0.37413537  0.34769791  1
  O2-  O259  1  -0.00145371  0.37483578  0.84705976  1
  O2-  O260  1  -0.00093537  0.62472879  0.35081973  1
  O2-  O261  1  0.00159723  0.62471332  0.85184464  1
  O2-  O262  1  -0.00101151  0.87559554  0.35034922  1
  O2-  O263  1  0.00167917  0.87572926  0.85075959  1
  O2-  O264  1  0.25028442  0.12554707  0.34592293  1
  O2-  O265  1  0.25150577  0.12462221  0.84800207  1
  O2-  O266  1  0.25172311  0.37423836  0.34799924  1
  O2-  O267  1  0.25192073  0.37489085  0.84410062  1
  O2-  O268  1  0.25321429  0.62431881  0.35039255  1
  O2-  O269  1  0.25053136  0.62593676  0.84498939  1
  O2-  O270  1  0.25214031  0.87569127  0.34614711  1
  O2-  O271  1  0.25175295  0.87490044  0.84656960  1
  O2-  O272  1  0.49788046  0.12506822  0.34107269  1
  O2-  O273  1  0.49985688  0.12461198  0.85248422  1
  O2-  O274  1  0.49830184  0.37429616  0.34844849  1
  O2-  O275  1  0.49912166  0.37451581  0.84373202  1
  O2-  O276  1  0.49657363  0.62480804  0.34869348  1
  O2-  O277  1  0.49996983  0.62483195  0.84102360  1
  O2-  O278  1  0.49929852  0.87539851  0.34021989  1
  O2-  O279  1  0.49858965  0.87590231  0.84770369  1
  O2-  O280  1  0.75365109  0.12486649  0.34800355  1
  O2-  O281  1  0.74960579  0.12589323  0.85199531  1
  O2-  O282  1  0.75041553  0.37429121  0.34565843  1
  O2-  O283  1  0.74993638  0.37335644  0.84855177  1
  O2-  O284  1  0.75174219  0.62540455  0.34930650  1
  O2-  O285  1  0.74788777  0.62483842  0.84803565  1
  O2-  O286  1  0.74989989  0.87553309  0.34853562  1
  O2-  O287  1  0.74794250  0.87571501  0.84860636  1
