# generated using pymatgen
data_BaYFeCuO5
_symmetry_space_group_name_H-M   'P 1'
_cell_length_a   15.65502260
_cell_length_b   15.65550268
_cell_length_c   15.45081308
_cell_angle_alpha   89.99349464
_cell_angle_beta   89.99709631
_cell_angle_gamma   90.00014596
_symmetry_Int_Tables_number   1
_chemical_formula_structural   BaYFeCuO5
_chemical_formula_sum   'Ba32 Y32 Fe32 Cu32 O160'
_cell_volume   3786.79723395
_cell_formula_units_Z   32
loop_
 _symmetry_equiv_pos_site_id
 _symmetry_equiv_pos_as_xyz
  1  'x, y, z'
loop_
 _atom_type_symbol
 _atom_type_oxidation_number
  Ba2+  2.0
  Y3+  3.0
  Fe3+  3.0
  Cu2+  2.0
  O2-  -2.0
loop_
 _atom_site_type_symbol
 _atom_site_label
 _atom_site_symmetry_multiplicity
 _atom_site_fract_x
 _atom_site_fract_y
 _atom_site_fract_z
 _atom_site_occupancy
  Ba2+  Ba0  1  -0.00106452  -0.00354818  0.01172521  1
  Ba2+  Ba1  1  -0.00468034  -0.00499884  0.51282300  1
  Ba2+  Ba2  1  0.00564249  0.24513662  0.01270930  1
  Ba2+  Ba3  1  -0.00733577  0.25096232  0.50795059  1
  Ba2+  Ba4  1  0.00996673  0.50474940  0.00984743  1
  Ba2+  Ba5  1  -0.00221815  0.50225502  0.51922325  1
  Ba2+  Ba6  1  0.00377549  0.75282041  0.01055209  1
  Ba2+  Ba7  1  -0.00010489  0.75108328  0.52230298  1
  Ba2+  Ba8  1  0.24503081  -0.00944434  0.01091688  1
  Ba2+  Ba9  1  0.24512095  -0.00393882  0.51128649  1
  Ba2+  Ba10  1  0.24300590  0.25634098  0.01672840  1
  Ba2+  Ba11  1  0.24781258  0.25012248  0.50673103  1
  Ba2+  Ba12  1  0.24476912  0.50247598  0.01653229  1
  Ba2+  Ba13  1  0.24422234  0.50475505  0.50140881  1
  Ba2+  Ba14  1  0.24626271  0.75185057  0.01172899  1
  Ba2+  Ba15  1  0.24186693  0.74842792  0.50705291  1
  Ba2+  Ba16  1  0.49716508  -0.01075928  0.01131328  1
  Ba2+  Ba17  1  0.50573203  0.00060292  0.51206996  1
  Ba2+  Ba18  1  0.49406282  0.25315955  0.01194761  1
  Ba2+  Ba19  1  0.50153342  0.24198488  0.50629790  1
  Ba2+  Ba20  1  0.48880604  0.50167326  0.01865064  1
  Ba2+  Ba21  1  0.50317808  0.51090534  0.50077821  1
  Ba2+  Ba22  1  0.49197855  0.75541852  0.01687314  1
  Ba2+  Ba23  1  0.50732821  0.74551486  0.50626478  1
  Ba2+  Ba24  1  0.75925321  -0.00432532  0.01033054  1
  Ba2+  Ba25  1  0.75441739  0.00001527  0.51197083  1
  Ba2+  Ba26  1  0.75778678  0.24277891  0.00713349  1
  Ba2+  Ba27  1  0.75753494  0.24248002  0.50614720  1
  Ba2+  Ba28  1  0.75530397  0.50515676  0.01072041  1
  Ba2+  Ba29  1  0.75405007  0.50769685  0.51728543  1
  Ba2+  Ba30  1  0.75668835  0.75664837  0.01437573  1
  Ba2+  Ba31  1  0.75018481  0.74975115  0.52154761  1
  Y3+  Y32  1  -0.00041082  -0.00073649  0.25567072  1
  Y3+  Y33  1  -0.00169883  -0.00268125  0.75970036  1
  Y3+  Y34  1  0.00052824  0.24838070  0.25667570  1
  Y3+  Y35  1  -0.00143488  0.24896435  0.75922156  1
  Y3+  Y36  1  0.00255028  0.50093843  0.25319819  1
  Y3+  Y37  1  0.00226225  0.50116715  0.76060695  1
  Y3+  Y38  1  0.00136321  0.75209731  0.25213541  1
  Y3+  Y39  1  0.00244670  0.75227210  0.76042781  1
  Y3+  Y40  1  0.24611635  -0.00338428  0.25728799  1
  Y3+  Y41  1  0.24925603  -0.00362763  0.75770579  1
  Y3+  Y42  1  0.24608144  0.25206761  0.25778036  1
  Y3+  Y43  1  0.24890416  0.24958237  0.75709404  1
  Y3+  Y44  1  0.24814193  0.50148383  0.25561099  1
  Y3+  Y45  1  0.24633525  0.50139206  0.75997474  1
  Y3+  Y46  1  0.24817050  0.75040834  0.25560623  1
  Y3+  Y47  1  0.24641707  0.75187918  0.75969158  1
  Y3+  Y48  1  0.50025325  -0.00284648  0.25621736  1
  Y3+  Y49  1  0.49841915  -0.00180318  0.75792147  1
  Y3+  Y50  1  0.49991876  0.24969095  0.25770913  1
  Y3+  Y51  1  0.49907102  0.24874229  0.75676248  1
  Y3+  Y52  1  0.49845372  0.50339276  0.25955701  1
  Y3+  Y53  1  0.50124211  0.50136055  0.75484836  1
  Y3+  Y54  1  0.49847542  0.74994994  0.25794822  1
  Y3+  Y55  1  0.50058466  0.75094848  0.75561806  1
  Y3+  Y56  1  0.75363525  0.00024349  0.25546998  1
  Y3+  Y57  1  0.75466579  -0.00099726  0.75896510  1
  Y3+  Y58  1  0.75268103  0.24557280  0.25780294  1
  Y3+  Y59  1  0.75440007  0.24795306  0.75764154  1
  Y3+  Y60  1  0.75008179  0.50294187  0.25653105  1
  Y3+  Y61  1  0.75106843  0.50143521  0.75610377  1
  Y3+  Y62  1  0.75108812  0.75164487  0.25403576  1
  Y3+  Y63  1  0.75120440  0.75161353  0.75670571  1
  Fe3+  Fe64  1  0.87558790  0.37671843  0.37508132  1
  Fe3+  Fe65  1  0.62482337  0.12421457  0.88110568  1
  Fe3+  Fe66  1  0.37378402  0.37584146  0.87605276  1
  Fe3+  Fe67  1  0.37434172  0.62599305  0.87707563  1
  Fe3+  Fe68  1  0.12319574  0.12440087  0.37951420  1
  Fe3+  Fe69  1  0.87564831  0.62676207  0.37431411  1
  Fe3+  Fe70  1  0.37434107  0.12335948  0.37670731  1
  Fe3+  Fe71  1  0.12552128  0.12412266  0.87699539  1
  Fe3+  Fe72  1  0.87656881  0.37523943  0.87977452  1
  Fe3+  Fe73  1  0.37361307  0.12404670  0.88008753  1
  Fe3+  Fe74  1  0.37414566  0.87409718  0.37974099  1
  Fe3+  Fe75  1  0.62483765  0.37516516  0.88050233  1
  Fe3+  Fe76  1  0.62712298  0.37500564  0.37907099  1
  Fe3+  Fe77  1  0.87575019  0.62613632  0.87712971  1
  Fe3+  Fe78  1  0.62693330  0.87504267  0.37545025  1
  Fe3+  Fe79  1  0.62406926  0.62550171  0.88038018  1
  Fe3+  Fe80  1  0.62503460  0.87432057  0.87740749  1
  Fe3+  Fe81  1  0.87604113  0.87374155  0.37603315  1
  Fe3+  Fe82  1  0.12201260  0.62584844  0.37518313  1
  Fe3+  Fe83  1  0.37451439  0.37553780  0.37904510  1
  Fe3+  Fe84  1  0.62455570  0.62655484  0.13436586  1
  Fe3+  Fe85  1  0.37274473  0.12429495  0.13533521  1
  Fe3+  Fe86  1  0.62530912  0.37487416  0.13460052  1
  Fe3+  Fe87  1  0.12442241  0.37509943  0.63707440  1
  Fe3+  Fe88  1  0.37532004  0.37569650  0.63296030  1
  Fe3+  Fe89  1  0.62640363  0.12433454  0.64031450  1
  Fe3+  Fe90  1  0.37380906  0.62502782  0.63612750  1
  Fe3+  Fe91  1  0.12402582  0.12453339  0.63574145  1
  Fe3+  Fe92  1  0.37526175  0.87418176  0.63441200  1
  Fe3+  Fe93  1  0.87587016  0.37540652  0.13432065  1
  Fe3+  Fe94  1  0.62647459  0.37446817  0.63406335  1
  Fe3+  Fe95  1  0.62462047  0.12375296  0.13451324  1
  Cu2+  Cu96  1  0.87620613  0.12403155  0.87373816  1
  Cu2+  Cu97  1  0.12537689  0.37417870  0.87313837  1
  Cu2+  Cu98  1  0.12481801  0.87545956  0.87144379  1
  Cu2+  Cu99  1  0.12334258  0.37559392  0.36628038  1
  Cu2+  Cu100  1  0.62751047  0.62652335  0.37013059  1
  Cu2+  Cu101  1  0.12343630  0.87433973  0.37292398  1
  Cu2+  Cu102  1  0.37489535  0.87401801  0.87112678  1
  Cu2+  Cu103  1  0.12565638  0.62594945  0.87219517  1
  Cu2+  Cu104  1  0.62525742  0.12386424  0.36099978  1
  Cu2+  Cu105  1  0.87551724  0.87417677  0.87170866  1
  Cu2+  Cu106  1  0.37355801  0.62609275  0.36484823  1
  Cu2+  Cu107  1  0.87591198  0.12351930  0.37135567  1
  Cu2+  Cu108  1  0.37439897  0.62592523  0.15308561  1
  Cu2+  Cu109  1  0.87638584  0.12491363  0.14170108  1
  Cu2+  Cu110  1  0.62504155  0.87541287  0.14846142  1
  Cu2+  Cu111  1  0.87525618  0.87458744  0.65262214  1
  Cu2+  Cu112  1  0.12523753  0.62643382  0.14236223  1
  Cu2+  Cu113  1  0.87605322  0.87525524  0.14239042  1
  Cu2+  Cu114  1  0.12455876  0.87532136  0.14342558  1
  Cu2+  Cu115  1  0.87516818  0.37514599  0.65319531  1
  Cu2+  Cu116  1  0.12536495  0.62487032  0.65343255  1
  Cu2+  Cu117  1  0.37444577  0.12473735  0.64879351  1
  Cu2+  Cu118  1  0.87542137  0.62515095  0.14594649  1
  Cu2+  Cu119  1  0.12502287  0.87498234  0.64234058  1
  Cu2+  Cu120  1  0.87627552  0.62567747  0.65628400  1
  Cu2+  Cu121  1  0.37481230  0.37488575  0.15496381  1
  Cu2+  Cu122  1  0.87624752  0.12428576  0.64375685  1
  Cu2+  Cu123  1  0.62483353  0.62522910  0.64302498  1
  Cu2+  Cu124  1  0.37361691  0.87541522  0.14580648  1
  Cu2+  Cu125  1  0.62535136  0.87574027  0.65207278  1
  Cu2+  Cu126  1  0.12553014  0.12432412  0.15138506  1
  Cu2+  Cu127  1  0.12429772  0.37549918  0.14357808  1
  O2-  O128  1  0.12846432  0.12476927  -0.00236379  1
  O2-  O129  1  0.12315101  0.12578982  0.50737530  1
  O2-  O130  1  0.12554387  0.37475864  0.00768489  1
  O2-  O131  1  0.12393816  0.37565530  0.51654097  1
  O2-  O132  1  0.12710519  0.62604459  0.00742209  1
  O2-  O133  1  0.12081951  0.62431350  0.49637166  1
  O2-  O134  1  0.12474549  0.87525473  0.00754842  1
  O2-  O135  1  0.12449437  0.87426593  0.50811297  1
  O2-  O136  1  0.37304555  0.12524233  0.00686093  1
  O2-  O137  1  0.37723711  0.12434359  0.49707760  1
  O2-  O138  1  0.37479347  0.37503305  -0.00340712  1
  O2-  O139  1  0.37609683  0.37508064  0.50640060  1
  O2-  O140  1  0.37496754  0.62463924  -0.00224877  1
  O2-  O141  1  0.37483112  0.62425671  0.51554860  1
  O2-  O142  1  0.37453103  0.87513333  0.00714400  1
  O2-  O143  1  0.37566039  0.87493005  0.50686519  1
  O2-  O144  1  0.62387402  0.12540595  0.00758671  1
  O2-  O145  1  0.62571834  0.12523642  0.51918195  1
  O2-  O146  1  0.62318641  0.37484545  0.00695927  1
  O2-  O147  1  0.62752410  0.37452391  0.50690592  1
  O2-  O148  1  0.62281902  0.62471943  0.00595870  1
  O2-  O149  1  0.62718113  0.62504798  0.50646916  1
  O2-  O150  1  0.62355209  0.87343923  -0.00200834  1
  O2-  O151  1  0.62720720  0.87531006  0.49617265  1
  O2-  O152  1  0.87571788  0.12528216  0.00789332  1
  O2-  O153  1  0.87562637  0.12429625  0.50786662  1
  O2-  O154  1  0.87597998  0.37516526  0.00656978  1
  O2-  O155  1  0.87281360  0.37753379  0.49573357  1
  O2-  O156  1  0.87429483  0.62481098  -0.00223563  1
  O2-  O157  1  0.87552982  0.62604899  0.49457429  1
  O2-  O158  1  0.87615032  0.87460422  0.00653516  1
  O2-  O159  1  0.87366822  0.87264791  0.49693455  1
  O2-  O160  1  0.12539374  0.00086678  0.16723144  1
  O2-  O161  1  0.12652189  0.00239422  0.66284978  1
  O2-  O162  1  0.12553691  0.24918983  0.16705097  1
  O2-  O163  1  0.12488534  0.24960723  0.66525299  1
  O2-  O164  1  0.12567529  0.50069741  0.16403807  1
  O2-  O165  1  0.12535341  0.49923050  0.66723769  1
  O2-  O166  1  0.12568046  0.75050840  0.16412957  1
  O2-  O167  1  0.12514964  0.74847221  0.66535445  1
  O2-  O168  1  0.37537187  0.00320238  0.16502997  1
  O2-  O169  1  0.37533468  -0.00195586  0.66392243  1
  O2-  O170  1  0.37554028  0.24825384  0.16419547  1
  O2-  O171  1  0.37661677  0.25255757  0.66352047  1
  O2-  O172  1  0.37647693  0.49975657  0.16562408  1
  O2-  O173  1  0.37582810  0.49802982  0.66408493  1
  O2-  O174  1  0.37510098  0.74975824  0.16648109  1
  O2-  O175  1  0.37634361  0.75075018  0.66303509  1
  O2-  O176  1  0.62268035  0.00186854  0.16160297  1
  O2-  O177  1  0.62475656  0.00053386  0.66798810  1
  O2-  O178  1  0.62428752  0.25004811  0.16357136  1
  O2-  O179  1  0.62474454  0.25124958  0.66823243  1
  O2-  O180  1  0.62386967  0.49997645  0.16194832  1
  O2-  O181  1  0.62601038  0.49633052  0.66552642  1
  O2-  O182  1  0.62464971  0.74874251  0.16020191  1
  O2-  O183  1  0.62429566  0.75178496  0.66449440  1
  O2-  O184  1  0.87578444  0.00044692  0.16533769  1
  O2-  O185  1  0.87472677  -0.00185627  0.66600301  1
  O2-  O186  1  0.87374381  0.25302767  0.16452546  1
  O2-  O187  1  0.87538420  0.25087052  0.66724685  1
  O2-  O188  1  0.87302574  0.49845712  0.16081278  1
  O2-  O189  1  0.87394461  0.50065015  0.66577616  1
  O2-  O190  1  0.87393964  0.74881420  0.16155757  1
  O2-  O191  1  0.87508659  0.75008635  0.66399366  1
  O2-  O192  1  0.00208717  0.12603697  0.16507420  1
  O2-  O193  1  0.00284946  0.12509908  0.66454434  1
  O2-  O194  1  -0.00290611  0.37490407  0.16218465  1
  O2-  O195  1  0.00017183  0.37548276  0.66627673  1
  O2-  O196  1  -0.00111514  0.62456065  0.16141017  1
  O2-  O197  1  0.00056580  0.62382651  0.66546775  1
  O2-  O198  1  0.00004017  0.87550139  0.16420261  1
  O2-  O199  1  -0.00090144  0.87514845  0.66579766  1
  O2-  O200  1  0.25134829  0.12574667  0.16708957  1
  O2-  O201  1  0.24834273  0.12674800  0.66046184  1
  O2-  O202  1  0.25097250  0.37477314  0.16883306  1
  O2-  O203  1  0.25134702  0.37388797  0.66170076  1
  O2-  O204  1  0.25140258  0.62482329  0.16697519  1
  O2-  O205  1  0.25071295  0.62450714  0.66493135  1
  O2-  O206  1  0.24954480  0.87591281  0.16875491  1
  O2-  O207  1  0.25313699  0.87461574  0.66340185  1
  O2-  O208  1  0.49945651  0.12670372  0.16113546  1
  O2-  O209  1  0.50075936  0.12535537  0.66874176  1
  O2-  O210  1  0.50235536  0.37447203  0.16539586  1
  O2-  O211  1  0.50083899  0.37443197  0.66196323  1
  O2-  O212  1  0.50131257  0.62493143  0.16500571  1
  O2-  O213  1  0.49777351  0.62361263  0.66672416  1
  O2-  O214  1  0.50042334  0.87504063  0.16664511  1
  O2-  O215  1  0.49860060  0.87605746  0.66217424  1
  O2-  O216  1  0.74673014  0.12543445  0.16258032  1
  O2-  O217  1  0.74941210  0.12570893  0.66963019  1
  O2-  O218  1  0.74897362  0.37539308  0.15850820  1
  O2-  O219  1  0.74895516  0.37406667  0.66722042  1
  O2-  O220  1  0.74763659  0.62380448  0.15913996  1
  O2-  O221  1  0.75157194  0.62502137  0.66764940  1
  O2-  O222  1  0.74912702  0.87629848  0.16186470  1
  O2-  O223  1  0.75029904  0.87493798  0.66500235  1
  O2-  O224  1  0.12592184  0.00223038  0.35160646  1
  O2-  O225  1  0.12609440  0.00152474  0.84563299  1
  O2-  O226  1  0.12484280  0.24898900  0.35166657  1
  O2-  O227  1  0.12651402  0.24778334  0.84648222  1
  O2-  O228  1  0.12491771  0.50065085  0.34665301  1
  O2-  O229  1  0.12527420  0.49993546  0.85024180  1
  O2-  O230  1  0.12470278  0.74860633  0.34619510  1
  O2-  O231  1  0.12565503  0.75067079  0.84934102  1
  O2-  O232  1  0.37452033  -0.00152497  0.34781135  1
  O2-  O233  1  0.37629923  0.00291052  0.84929430  1
  O2-  O234  1  0.37565378  0.25115797  0.34876463  1
  O2-  O235  1  0.37575152  0.24863553  0.84782433  1
  O2-  O236  1  0.37552229  0.49806585  0.35101669  1
  O2-  O237  1  0.37693970  0.50031415  0.84440671  1
  O2-  O238  1  0.37536178  0.75210931  0.35058978  1
  O2-  O239  1  0.37614836  0.74785309  0.84478318  1
  O2-  O240  1  0.62432184  -0.00101741  0.34502438  1
  O2-  O241  1  0.62302030  0.00153216  0.85090581  1
  O2-  O242  1  0.62435395  0.25130389  0.34959542  1
  O2-  O243  1  0.62465571  0.25040419  0.85267665  1
  O2-  O244  1  0.62483100  0.49694779  0.34745044  1
  O2-  O245  1  0.62438993  0.49933691  0.85031888  1
  O2-  O246  1  0.62422674  0.75269527  0.34318291  1
  O2-  O247  1  0.62505049  0.74797297  0.84761681  1
  O2-  O248  1  0.87456283  -0.00188826  0.34793455  1
  O2-  O249  1  0.87514615  -0.00044143  0.84976100  1
  O2-  O250  1  0.87411560  0.25122688  0.34833185  1
  O2-  O251  1  0.87369750  0.25252697  0.85108113  1
  O2-  O252  1  0.87395228  0.50053010  0.34203621  1
  O2-  O253  1  0.87392452  0.49904941  0.84934071  1
  O2-  O254  1  0.87496938  0.75047108  0.34192318  1
  O2-  O255  1  0.87341113  0.74812153  0.84662160  1
  O2-  O256  1  0.00238157  0.12557115  0.34876603  1
  O2-  O257  1  0.00171782  0.12561444  0.84743642  1
  O2-  O258  1  -0.00118688  0.37487937  0.34502955  1
  O2-  O259  1  -0.00274129  0.37448090  0.84982868  1
  O2-  O260  1  -0.00085596  0.62439809  0.34142491  1
  O2-  O261  1  -0.00105737  0.62460022  0.84898394  1
  O2-  O262  1  -0.00136412  0.87540367  0.34603952  1
  O2-  O263  1  0.00019752  0.87494158  0.84924944  1
  O2-  O264  1  0.24875585  0.12651696  0.35106118  1
  O2-  O265  1  0.25198161  0.12468659  0.84433982  1
  O2-  O266  1  0.25119293  0.37449629  0.35425390  1
  O2-  O267  1  0.25256091  0.37445955  0.84322483  1
  O2-  O268  1  0.24839042  0.62465174  0.35038176  1
  O2-  O269  1  0.25156053  0.62445771  0.84641289  1
  O2-  O270  1  0.25174822  0.87495233  0.35298635  1
  O2-  O271  1  0.25004976  0.87572590  0.84706558  1
  O2-  O272  1  0.49868260  0.12547378  0.34502498  1
  O2-  O273  1  0.49960480  0.12695117  0.85256323  1
  O2-  O274  1  0.50035452  0.37448467  0.35151855  1
  O2-  O275  1  0.50135520  0.37396292  0.84638893  1
  O2-  O276  1  0.49885131  0.62459868  0.35008721  1
  O2-  O277  1  0.50180525  0.62394068  0.84738275  1
  O2-  O278  1  0.49861664  0.87569659  0.35009523  1
  O2-  O279  1  0.50213334  0.87468369  0.84488493  1
  O2-  O280  1  0.74920386  0.12527266  0.34710518  1
  O2-  O281  1  0.74708043  0.12540265  0.85258661  1
  O2-  O282  1  0.74904048  0.37446326  0.34270002  1
  O2-  O283  1  0.74944754  0.37535296  0.85344265  1
  O2-  O284  1  0.75262161  0.62522297  0.34109317  1
  O2-  O285  1  0.74770247  0.62292898  0.85067758  1
  O2-  O286  1  0.75094926  0.87528118  0.34304749  1
  O2-  O287  1  0.74777658  0.87547756  0.84797666  1
