# generated using pymatgen
data_BaYFeCuO5
_symmetry_space_group_name_H-M   'P 1'
_cell_length_a   15.67016149
_cell_length_b   15.67145738
_cell_length_c   15.49558991
_cell_angle_alpha   90.00271057
_cell_angle_beta   90.00293572
_cell_angle_gamma   90.00485017
_symmetry_Int_Tables_number   1
_chemical_formula_structural   BaYFeCuO5
_chemical_formula_sum   'Ba32 Y32 Fe32 Cu32 O160'
_cell_volume   3805.31812586
_cell_formula_units_Z   32
loop_
 _symmetry_equiv_pos_site_id
 _symmetry_equiv_pos_as_xyz
  1  'x, y, z'
loop_
 _atom_type_symbol
 _atom_type_oxidation_number
  Ba2+  2.0
  Y3+  3.0
  Fe3+  3.0
  Cu2+  2.0
  O2-  -2.0
loop_
 _atom_site_type_symbol
 _atom_site_label
 _atom_site_symmetry_multiplicity
 _atom_site_fract_x
 _atom_site_fract_y
 _atom_site_fract_z
 _atom_site_occupancy
  Ba2+  Ba0  1  -0.00177620  0.00489721  0.01431687  1
  Ba2+  Ba1  1  -0.00103142  0.00821439  0.51783819  1
  Ba2+  Ba2  1  -0.00135326  0.24437206  0.01355478  1
  Ba2+  Ba3  1  -0.00573192  0.24817070  0.52270449  1
  Ba2+  Ba4  1  -0.00414859  0.49486890  0.02292175  1
  Ba2+  Ba5  1  -0.00506413  0.50626085  0.51100445  1
  Ba2+  Ba6  1  -0.00413280  0.75552099  0.02410415  1
  Ba2+  Ba7  1  -0.00060719  0.73877600  0.50721183  1
  Ba2+  Ba8  1  0.24180922  -0.00175513  0.01691057  1
  Ba2+  Ba9  1  0.25223485  -0.00085420  0.50717213  1
  Ba2+  Ba10  1  0.24414728  0.25334357  0.01061439  1
  Ba2+  Ba11  1  0.25087006  0.25103183  0.51827235  1
  Ba2+  Ba12  1  0.25479153  0.49417891  0.01556377  1
  Ba2+  Ba13  1  0.25251067  0.50626705  0.50742067  1
  Ba2+  Ba14  1  0.25324454  0.75442347  0.02291166  1
  Ba2+  Ba15  1  0.25401496  0.74397484  0.49689329  1
  Ba2+  Ba16  1  0.50716730  -0.00610650  0.01560633  1
  Ba2+  Ba17  1  0.50581161  -0.00641805  0.49768561  1
  Ba2+  Ba18  1  0.50265994  0.25585169  0.01573976  1
  Ba2+  Ba19  1  0.50588675  0.25450864  0.49995980  1
  Ba2+  Ba20  1  0.49468563  0.49533734  0.01487844  1
  Ba2+  Ba21  1  0.50150707  0.50131092  0.49412945  1
  Ba2+  Ba22  1  0.49866957  0.75545485  0.01640958  1
  Ba2+  Ba23  1  0.50183184  0.75066142  0.49146290  1
  Ba2+  Ba24  1  0.75220478  0.00018799  0.01662550  1
  Ba2+  Ba25  1  0.74251504  0.00124252  0.50711941  1
  Ba2+  Ba26  1  0.75374375  0.24740804  0.01983969  1
  Ba2+  Ba27  1  0.74931517  0.25090809  0.50728784  1
  Ba2+  Ba28  1  0.75478112  0.49588219  0.02211650  1
  Ba2+  Ba29  1  0.75071332  0.50191322  0.50199232  1
  Ba2+  Ba30  1  0.75250382  0.75675516  0.01721338  1
  Ba2+  Ba31  1  0.74451877  0.74565935  0.50249552  1
  Y3+  Y32  1  -0.00047843  0.00112626  0.25349482  1
  Y3+  Y33  1  -0.00044538  0.00415856  0.75897273  1
  Y3+  Y34  1  -0.00012570  0.24907390  0.25186533  1
  Y3+  Y35  1  -0.00078382  0.24626871  0.75936124  1
  Y3+  Y36  1  -0.00059143  0.50134520  0.26068137  1
  Y3+  Y37  1  -0.00114164  0.50220819  0.75135688  1
  Y3+  Y38  1  -0.00090114  0.74795315  0.26166281  1
  Y3+  Y39  1  -0.00058820  0.74692935  0.75191497  1
  Y3+  Y40  1  0.24975553  -0.00072294  0.25656084  1
  Y3+  Y41  1  0.24810572  0.00246934  0.75735300  1
  Y3+  Y42  1  0.24913083  0.25079652  0.25268705  1
  Y3+  Y43  1  0.24978581  0.25055468  0.76010420  1
  Y3+  Y44  1  0.25053157  0.50037710  0.25662891  1
  Y3+  Y45  1  0.25091693  0.49928827  0.75702996  1
  Y3+  Y46  1  0.25143655  0.74904397  0.25945103  1
  Y3+  Y47  1  0.24877061  0.74803571  0.75518149  1
  Y3+  Y48  1  0.50355889  -0.00236883  0.25725033  1
  Y3+  Y49  1  0.50301976  -0.00224682  0.75905641  1
  Y3+  Y50  1  0.50259311  0.25064826  0.25460994  1
  Y3+  Y51  1  0.49801088  0.25217499  0.76024652  1
  Y3+  Y52  1  0.49952603  0.49933718  0.25428144  1
  Y3+  Y53  1  0.49801318  0.49795753  0.76127084  1
  Y3+  Y54  1  0.50018229  0.75177447  0.25671639  1
  Y3+  Y55  1  0.50269594  0.75278836  0.76047395  1
  Y3+  Y56  1  0.74782100  -0.00022296  0.25629782  1
  Y3+  Y57  1  0.74921289  -0.00101972  0.75823897  1
  Y3+  Y58  1  0.74850232  0.24888882  0.25555620  1
  Y3+  Y59  1  0.75277208  0.24869521  0.75712269  1
  Y3+  Y60  1  0.75064340  0.50016546  0.25954199  1
  Y3+  Y61  1  0.75221238  0.50145714  0.75453986  1
  Y3+  Y62  1  0.74993558  0.75059217  0.25960967  1
  Y3+  Y63  1  0.74845917  0.75150327  0.75572618  1
  Fe3+  Fe64  1  0.37497036  0.12437582  0.88155731  1
  Fe3+  Fe65  1  0.62619079  0.62502496  0.88349022  1
  Fe3+  Fe66  1  0.12281099  0.37643345  0.87589439  1
  Fe3+  Fe67  1  0.12432407  0.37419750  0.37951552  1
  Fe3+  Fe68  1  0.62586467  0.12529905  0.87982221  1
  Fe3+  Fe69  1  0.62711222  0.37573555  0.87931250  1
  Fe3+  Fe70  1  0.12424089  0.87580178  0.37936797  1
  Fe3+  Fe71  1  0.87548485  0.37540084  0.87489080  1
  Fe3+  Fe72  1  0.87544982  0.37330632  0.37606840  1
  Fe3+  Fe73  1  0.37336459  0.87553555  0.87774503  1
  Fe3+  Fe74  1  0.37576473  0.12558094  0.37824691  1
  Fe3+  Fe75  1  0.37419895  0.62603091  0.88095564  1
  Fe3+  Fe76  1  0.12392551  0.62507538  0.88111912  1
  Fe3+  Fe77  1  0.87570084  0.62536993  0.87807905  1
  Fe3+  Fe78  1  0.87487091  0.12506097  0.37561292  1
  Fe3+  Fe79  1  0.87610455  0.87472497  0.87418988  1
  Fe3+  Fe80  1  0.37419849  0.37402126  0.37544101  1
  Fe3+  Fe81  1  0.12374350  0.87367905  0.87546381  1
  Fe3+  Fe82  1  0.87532305  0.87615584  0.37978705  1
  Fe3+  Fe83  1  0.12468887  0.12662380  0.37704462  1
  Fe3+  Fe84  1  0.62268930  0.62506253  0.63922953  1
  Fe3+  Fe85  1  0.37731471  0.12517633  0.63486335  1
  Fe3+  Fe86  1  0.62370486  0.12543309  0.63806804  1
  Fe3+  Fe87  1  0.37630920  0.87427863  0.63581480  1
  Fe3+  Fe88  1  0.12489116  0.62479401  0.13627029  1
  Fe3+  Fe89  1  0.12531556  0.87443899  0.63276980  1
  Fe3+  Fe90  1  0.62450744  0.37608935  0.63834540  1
  Fe3+  Fe91  1  0.12473358  0.37599232  0.63446294  1
  Fe3+  Fe92  1  0.87369863  0.87498088  0.63265283  1
  Fe3+  Fe93  1  0.62548311  0.62503937  0.13681520  1
  Fe3+  Fe94  1  0.37563412  0.12414498  0.13533895  1
  Fe3+  Fe95  1  0.37779109  0.62528874  0.63868988  1
  Cu2+  Cu96  1  0.12511652  0.12494774  0.87308953  1
  Cu2+  Cu97  1  0.12550844  0.62357387  0.37218505  1
  Cu2+  Cu98  1  0.37407536  0.37479219  0.87449480  1
  Cu2+  Cu99  1  0.62648382  0.87441249  0.87518087  1
  Cu2+  Cu100  1  0.62514962  0.12551845  0.36175614  1
  Cu2+  Cu101  1  0.37464793  0.87570835  0.36232377  1
  Cu2+  Cu102  1  0.62458905  0.62428971  0.35799140  1
  Cu2+  Cu103  1  0.87431837  0.62474700  0.37207892  1
  Cu2+  Cu104  1  0.62636040  0.87463784  0.37101831  1
  Cu2+  Cu105  1  0.62551927  0.37493880  0.35974363  1
  Cu2+  Cu106  1  0.87394228  0.12459379  0.87238159  1
  Cu2+  Cu107  1  0.37578565  0.62409210  0.35824127  1
  Cu2+  Cu108  1  0.12691466  0.62490587  0.63963915  1
  Cu2+  Cu109  1  0.37463872  0.37385031  0.14298066  1
  Cu2+  Cu110  1  0.12425257  0.37572823  0.15161506  1
  Cu2+  Cu111  1  0.87433201  0.12430712  0.14270673  1
  Cu2+  Cu112  1  0.87492123  0.62529219  0.15319772  1
  Cu2+  Cu113  1  0.37518963  0.62530504  0.14974026  1
  Cu2+  Cu114  1  0.62607331  0.37564383  0.15113621  1
  Cu2+  Cu115  1  0.87397968  0.37525089  0.64787872  1
  Cu2+  Cu116  1  0.87525087  0.37471158  0.15539368  1
  Cu2+  Cu117  1  0.87529338  0.87495074  0.15716730  1
  Cu2+  Cu118  1  0.62621856  0.87416356  0.14403305  1
  Cu2+  Cu119  1  0.37608063  0.37528320  0.64950232  1
  Cu2+  Cu120  1  0.62387146  0.87457913  0.64127039  1
  Cu2+  Cu121  1  0.87232240  0.62603427  0.64043489  1
  Cu2+  Cu122  1  0.12602442  0.12541555  0.65063808  1
  Cu2+  Cu123  1  0.87303042  0.12411224  0.65151425  1
  Cu2+  Cu124  1  0.62464971  0.12465469  0.14885611  1
  Cu2+  Cu125  1  0.12545986  0.12486406  0.14128829  1
  Cu2+  Cu126  1  0.37497343  0.87597554  0.15478004  1
  Cu2+  Cu127  1  0.12434449  0.87388176  0.15629694  1
  O2-  O128  1  0.12559811  0.12441313  0.00727477  1
  O2-  O129  1  0.12511065  0.12726058  0.49681730  1
  O2-  O130  1  0.12228379  0.37694913  -0.00388045  1
  O2-  O131  1  0.12551585  0.37448392  0.50541038  1
  O2-  O132  1  0.12346921  0.62564121  0.00709147  1
  O2-  O133  1  0.12731273  0.62418732  0.50608025  1
  O2-  O134  1  0.12334634  0.87279809  -0.00446783  1
  O2-  O135  1  0.12611074  0.87542599  0.50578897  1
  O2-  O136  1  0.37465691  0.12321888  0.00754637  1
  O2-  O137  1  0.37681128  0.12633360  0.50656463  1
  O2-  O138  1  0.37417615  0.37379112  0.00765130  1
  O2-  O139  1  0.37496244  0.37368553  0.49548946  1
  O2-  O140  1  0.37206513  0.62635909  0.00097495  1
  O2-  O141  1  0.37914698  0.62515459  0.51843126  1
  O2-  O142  1  0.37189552  0.87635789  -0.00226438  1
  O2-  O143  1  0.37627753  0.87395172  0.51559147  1
  O2-  O144  1  0.62580344  0.12506632  0.00016381  1
  O2-  O145  1  0.62216166  0.12630747  0.51761690  1
  O2-  O146  1  0.62819581  0.37584467  -0.00043184  1
  O2-  O147  1  0.62370079  0.37669120  0.51805767  1
  O2-  O148  1  0.62723004  0.62497552  0.00924916  1
  O2-  O149  1  0.62103946  0.62367835  0.51908325  1
  O2-  O150  1  0.62675394  0.87354749  0.00868657  1
  O2-  O151  1  0.62449591  0.87426093  0.50591136  1
  O2-  O152  1  0.87417568  0.12401813  0.00760759  1
  O2-  O153  1  0.87524174  0.12615365  0.49578026  1
  O2-  O154  1  0.87602662  0.37566607  -0.00495926  1
  O2-  O155  1  0.87463223  0.37318247  0.49619941  1
  O2-  O156  1  0.87763421  0.62538224  -0.00215972  1
  O2-  O157  1  0.87242369  0.62491372  0.50587087  1
  O2-  O158  1  0.87742880  0.87473819  -0.00544517  1
  O2-  O159  1  0.87432438  0.87650285  0.50569915  1
  O2-  O160  1  0.12534116  -0.00235922  0.16713871  1
  O2-  O161  1  0.12565056  -0.00121136  0.66181166  1
  O2-  O162  1  0.12532276  0.25184785  0.16350285  1
  O2-  O163  1  0.12498637  0.25185263  0.66321207  1
  O2-  O164  1  0.12490558  0.50186456  0.16370411  1
  O2-  O165  1  0.12584548  0.49730364  0.66409873  1
  O2-  O166  1  0.12486574  0.74810140  0.16528639  1
  O2-  O167  1  0.12548907  0.75304339  0.66374650  1
  O2-  O168  1  0.37492519  0.00137358  0.16627067  1
  O2-  O169  1  0.37447504  0.00134938  0.66340869  1
  O2-  O170  1  0.37540033  0.24671724  0.16334647  1
  O2-  O171  1  0.37517882  0.24877458  0.66391727  1
  O2-  O172  1  0.37444275  0.50012862  0.16461029  1
  O2-  O173  1  0.37532498  0.49988156  0.66728190  1
  O2-  O174  1  0.37446563  0.75129360  0.16503815  1
  O2-  O175  1  0.37507912  0.75045346  0.66916992  1
  O2-  O176  1  0.62516700  -0.00009873  0.16568182  1
  O2-  O177  1  0.62408488  0.00190976  0.66630283  1
  O2-  O178  1  0.62493736  0.25061443  0.16350635  1
  O2-  O179  1  0.62439957  0.25036027  0.66797711  1
  O2-  O180  1  0.62558195  0.50177083  0.16368445  1
  O2-  O181  1  0.62418764  0.49982403  0.67153169  1
  O2-  O182  1  0.62549358  0.74705623  0.16480404  1
  O2-  O183  1  0.62371656  0.74875103  0.66921926  1
  O2-  O184  1  0.87510942  -0.00167512  0.16641754  1
  O2-  O185  1  0.87530044  -0.00190192  0.66260858  1
  O2-  O186  1  0.87501455  0.25108568  0.16356668  1
  O2-  O187  1  0.87499046  0.24921299  0.66377448  1
  O2-  O188  1  0.87559298  0.49967659  0.16488118  1
  O2-  O189  1  0.87396648  0.49983164  0.66272060  1
  O2-  O190  1  0.87572097  0.75036910  0.16768183  1
  O2-  O191  1  0.87501505  0.75339567  0.66237348  1
  O2-  O192  1  0.00026238  0.12455617  0.16346875  1
  O2-  O193  1  -0.00071693  0.12465194  0.66251175  1
  O2-  O194  1  -0.00035520  0.37570902  0.16581035  1
  O2-  O195  1  0.00049903  0.37599551  0.65744145  1
  O2-  O196  1  0.00128393  0.62521320  0.16542015  1
  O2-  O197  1  -0.00043605  0.62517243  0.66037469  1
  O2-  O198  1  -0.00023382  0.87399172  0.16787872  1
  O2-  O199  1  0.00045388  0.87525049  0.65543626  1
  O2-  O200  1  0.25277890  0.12422444  0.16491472  1
  O2-  O201  1  0.25291383  0.12579664  0.66294776  1
  O2-  O202  1  0.24829723  0.37485172  0.16548632  1
  O2-  O203  1  0.24909357  0.37437218  0.66140126  1
  O2-  O204  1  0.24832125  0.62534710  0.16404234  1
  O2-  O205  1  0.25348072  0.62452943  0.66739397  1
  O2-  O206  1  0.24949374  0.87505947  0.16694982  1
  O2-  O207  1  0.24940638  0.87578834  0.66222261  1
  O2-  O208  1  0.49881555  0.12433854  0.16441438  1
  O2-  O209  1  0.49877661  0.12550771  0.67018049  1
  O2-  O210  1  0.50142290  0.37476537  0.16460023  1
  O2-  O211  1  0.50059019  0.37463735  0.67068713  1
  O2-  O212  1  0.50133457  0.62475994  0.16138469  1
  O2-  O213  1  0.49949357  0.62467988  0.67711115  1
  O2-  O214  1  0.49936525  0.87507041  0.16467588  1
  O2-  O215  1  0.49809040  0.87583430  0.67057470  1
  O2-  O216  1  0.74837686  0.12451000  0.16573210  1
  O2-  O217  1  0.74858929  0.12498426  0.66448691  1
  O2-  O218  1  0.75099970  0.37533052  0.16535357  1
  O2-  O219  1  0.74945190  0.37486851  0.66405333  1
  O2-  O220  1  0.74950721  0.62495473  0.16417165  1
  O2-  O221  1  0.74685408  0.62565261  0.66725190  1
  O2-  O222  1  0.75174731  0.87430768  0.16721139  1
  O2-  O223  1  0.75160593  0.87532608  0.66155620  1
  O2-  O224  1  0.12588744  0.00002560  0.34993689  1
  O2-  O225  1  0.12503043  -0.00214885  0.84548468  1
  O2-  O226  1  0.12578609  0.25090017  0.34526879  1
  O2-  O227  1  0.12489875  0.25205137  0.84698463  1
  O2-  O228  1  0.12562675  0.49566427  0.34797800  1
  O2-  O229  1  0.12437428  0.50257585  0.84656891  1
  O2-  O230  1  0.12544123  0.75317896  0.35049699  1
  O2-  O231  1  0.12467475  0.74762121  0.84532202  1
  O2-  O232  1  0.37491671  0.00270152  0.35143801  1
  O2-  O233  1  0.37423515  0.00086621  0.84546289  1
  O2-  O234  1  0.37558573  0.24882639  0.34590268  1
  O2-  O235  1  0.37440984  0.24692319  0.84879921  1
  O2-  O236  1  0.37515671  0.49849270  0.34734274  1
  O2-  O237  1  0.37415330  0.50284104  0.84920706  1
  O2-  O238  1  0.37471351  0.74936256  0.34995541  1
  O2-  O239  1  0.37373902  0.75002228  0.84703615  1
  O2-  O240  1  0.62480968  0.00120853  0.34938753  1
  O2-  O241  1  0.62477340  0.00122374  0.84813297  1
  O2-  O242  1  0.62432591  0.25002240  0.34826068  1
  O2-  O243  1  0.62495621  0.25050134  0.84739686  1
  O2-  O244  1  0.62465272  0.49997775  0.34780428  1
  O2-  O245  1  0.62509772  0.50156855  0.85087343  1
  O2-  O246  1  0.62481119  0.74842395  0.34809485  1
  O2-  O247  1  0.62562081  0.74681491  0.85119535  1
  O2-  O248  1  0.87539408  -0.00023693  0.34853563  1
  O2-  O249  1  0.87561909  -0.00179382  0.84503886  1
  O2-  O250  1  0.87476870  0.24919310  0.34398117  1
  O2-  O251  1  0.87520359  0.25163014  0.84672132  1
  O2-  O252  1  0.87510964  0.49736719  0.34788556  1
  O2-  O253  1  0.87584321  0.50129551  0.84349035  1
  O2-  O254  1  0.87590399  0.75302006  0.35186379  1
  O2-  O255  1  0.87572130  0.74888180  0.84253984  1
  O2-  O256  1  0.00040451  0.12483316  0.34437536  1
  O2-  O257  1  -0.00026222  0.12490732  0.84784621  1
  O2-  O258  1  0.00126411  0.37395234  0.34850789  1
  O2-  O259  1  -0.00039339  0.37594345  0.83941175  1
  O2-  O260  1  0.00016083  0.62447025  0.34904361  1
  O2-  O261  1  0.00112789  0.62529682  0.84329139  1
  O2-  O262  1  0.00026327  0.87589102  0.35179262  1
  O2-  O263  1  0.00055336  0.87394356  0.83782062  1
  O2-  O264  1  0.25093227  0.12523429  0.34846719  1
  O2-  O265  1  0.25269890  0.12486289  0.84806236  1
  O2-  O266  1  0.24895905  0.37387523  0.34778573  1
  O2-  O267  1  0.24705099  0.37572903  0.84512503  1
  O2-  O268  1  0.25164296  0.62428849  0.34819591  1
  O2-  O269  1  0.24785676  0.62513786  0.84881678  1
  O2-  O270  1  0.24841296  0.87582328  0.35165633  1
  O2-  O271  1  0.24901240  0.87485798  0.84209209  1
  O2-  O272  1  0.49904381  0.12528254  0.35012190  1
  O2-  O273  1  0.49906686  0.12490111  0.85109644  1
  O2-  O274  1  0.49989091  0.37462070  0.34767825  1
  O2-  O275  1  0.50234172  0.37522422  0.85182578  1
  O2-  O276  1  0.50021970  0.62449784  0.34594169  1
  O2-  O277  1  0.50091818  0.62551564  0.85678574  1
  O2-  O278  1  0.49902427  0.87506850  0.34834396  1
  O2-  O279  1  0.49763488  0.87508454  0.85135412  1
  O2-  O280  1  0.75016751  0.12501778  0.34872793  1
  O2-  O281  1  0.74799575  0.12477505  0.84587612  1
  O2-  O282  1  0.75007383  0.37448073  0.34901827  1
  O2-  O283  1  0.75062901  0.37612188  0.84338123  1
  O2-  O284  1  0.74834365  0.62483135  0.34866583  1
  O2-  O285  1  0.74994039  0.62503583  0.84893712  1
  O2-  O286  1  0.75318582  0.87519209  0.35058971  1
  O2-  O287  1  0.75249538  0.87413040  0.84422093  1
