# generated using pymatgen
data_BaYFeCuO5
_symmetry_space_group_name_H-M   'P 1'
_cell_length_a   15.67581120
_cell_length_b   15.67721173
_cell_length_c   15.49814112
_cell_angle_alpha   90.00384700
_cell_angle_beta   89.99752153
_cell_angle_gamma   90.00082829
_symmetry_Int_Tables_number   1
_chemical_formula_structural   BaYFeCuO5
_chemical_formula_sum   'Ba32 Y32 Fe32 Cu32 O160'
_cell_volume   3808.71483797
_cell_formula_units_Z   32
loop_
 _symmetry_equiv_pos_site_id
 _symmetry_equiv_pos_as_xyz
  1  'x, y, z'
loop_
 _atom_type_symbol
 _atom_type_oxidation_number
  Ba2+  2.0
  Y3+  3.0
  Fe3+  3.0
  Cu2+  2.0
  O2-  -2.0
loop_
 _atom_site_type_symbol
 _atom_site_label
 _atom_site_symmetry_multiplicity
 _atom_site_fract_x
 _atom_site_fract_y
 _atom_site_fract_z
 _atom_site_occupancy
  Ba2+  Ba0  1  -0.00595101  0.00404413  0.01949623  1
  Ba2+  Ba1  1  0.00531795  0.00710023  0.51039611  1
  Ba2+  Ba2  1  -0.00163963  0.25071758  0.00617680  1
  Ba2+  Ba3  1  -0.00522637  0.24458143  0.50653236  1
  Ba2+  Ba4  1  -0.00400577  0.49722595  -0.00822075  1
  Ba2+  Ba5  1  -0.00734844  0.50302157  0.51006212  1
  Ba2+  Ba6  1  -0.00618161  0.74801445  0.00682579  1
  Ba2+  Ba7  1  0.00430641  0.74502436  0.51756711  1
  Ba2+  Ba8  1  0.25421333  0.00321436  0.01682788  1
  Ba2+  Ba9  1  0.25113550  0.00253242  0.51687015  1
  Ba2+  Ba10  1  0.24374808  0.24621574  0.01403769  1
  Ba2+  Ba11  1  0.25389921  0.24004156  0.50154666  1
  Ba2+  Ba12  1  0.23875772  0.49850243  0.00776258  1
  Ba2+  Ba13  1  0.25287867  0.50615998  0.51334344  1
  Ba2+  Ba14  1  0.25042302  0.75270168  0.00937995  1
  Ba2+  Ba15  1  0.25083421  0.75262589  0.52885890  1
  Ba2+  Ba16  1  0.49535269  0.00243072  0.00697908  1
  Ba2+  Ba17  1  0.49647371  0.00084337  0.52269151  1
  Ba2+  Ba18  1  0.50572851  0.24630090  0.01117354  1
  Ba2+  Ba19  1  0.49814493  0.24501374  0.51120465  1
  Ba2+  Ba20  1  0.51118666  0.49860738  0.01797376  1
  Ba2+  Ba21  1  0.49607507  0.49613343  0.51034305  1
  Ba2+  Ba22  1  0.49907999  0.75298231  0.00984067  1
  Ba2+  Ba23  1  0.49463805  0.75547596  0.52468693  1
  Ba2+  Ba24  1  0.75682158  0.00292321  0.00705935  1
  Ba2+  Ba25  1  0.74725729  0.00587255  0.51655027  1
  Ba2+  Ba26  1  0.75216212  0.25108790  0.00692287  1
  Ba2+  Ba27  1  0.75309211  0.24958967  0.51500946  1
  Ba2+  Ba28  1  0.75239206  0.49780469  0.00833982  1
  Ba2+  Ba29  1  0.75661148  0.49621698  0.51037244  1
  Ba2+  Ba30  1  0.75754896  0.74778952  0.00610355  1
  Ba2+  Ba31  1  0.75207753  0.74824099  0.51102714  1
  Y3+  Y32  1  -0.00080014  0.00243420  0.25960313  1
  Y3+  Y33  1  -0.00008988  0.00141409  0.75403323  1
  Y3+  Y34  1  -0.00079986  0.24681129  0.26444267  1
  Y3+  Y35  1  -0.00121223  0.25034738  0.75185502  1
  Y3+  Y36  1  -0.00187794  0.50049423  0.26449656  1
  Y3+  Y37  1  -0.00286911  0.49938926  0.75210885  1
  Y3+  Y38  1  -0.00206096  0.74995288  0.25712381  1
  Y3+  Y39  1  -0.00202833  0.75010557  0.75766148  1
  Y3+  Y40  1  0.25073936  0.00303745  0.25689797  1
  Y3+  Y41  1  0.25047779  0.00040824  0.75625396  1
  Y3+  Y42  1  0.25071823  0.24598479  0.26098213  1
  Y3+  Y43  1  0.24844712  0.24790209  0.75493041  1
  Y3+  Y44  1  0.24979062  0.49878534  0.25763559  1
  Y3+  Y45  1  0.24832824  0.50028761  0.75809545  1
  Y3+  Y46  1  0.24977527  0.75145416  0.25031018  1
  Y3+  Y47  1  0.24979474  0.75213998  0.76131227  1
  Y3+  Y48  1  0.49698730  0.00040728  0.25403714  1
  Y3+  Y49  1  0.49939518  0.00080897  0.75890146  1
  Y3+  Y50  1  0.49811695  0.24870290  0.25893190  1
  Y3+  Y51  1  0.50199521  0.24792701  0.75481481  1
  Y3+  Y52  1  0.50153309  0.49918711  0.25751548  1
  Y3+  Y53  1  0.50101800  0.49905371  0.75537446  1
  Y3+  Y54  1  0.50058989  0.75087606  0.25161977  1
  Y3+  Y55  1  0.49894109  0.75302489  0.76068655  1
  Y3+  Y56  1  0.75332331  -0.00007328  0.25733982  1
  Y3+  Y57  1  0.74990949  0.00155657  0.75680565  1
  Y3+  Y58  1  0.75235564  0.24972947  0.26211167  1
  Y3+  Y59  1  0.75018267  0.24970966  0.75236599  1
  Y3+  Y60  1  0.75110639  0.50005489  0.26270812  1
  Y3+  Y61  1  0.75300963  0.49830381  0.75276808  1
  Y3+  Y62  1  0.75201240  0.74955326  0.25700171  1
  Y3+  Y63  1  0.75268601  0.75114396  0.75731923  1
  Fe3+  Fe64  1  0.12318213  0.62501578  0.87587815  1
  Fe3+  Fe65  1  0.12699453  0.62738487  0.37622303  1
  Fe3+  Fe66  1  0.12390774  0.12536623  0.87606154  1
  Fe3+  Fe67  1  0.12310421  0.87747240  0.87940251  1
  Fe3+  Fe68  1  0.37579984  0.62322430  0.87958488  1
  Fe3+  Fe69  1  0.37466058  0.12681005  0.87672787  1
  Fe3+  Fe70  1  0.12684004  0.87422746  0.37624408  1
  Fe3+  Fe71  1  0.62411839  0.37411677  0.37868426  1
  Fe3+  Fe72  1  0.37466977  0.87431090  0.37402280  1
  Fe3+  Fe73  1  0.87516110  0.12608942  0.87325229  1
  Fe3+  Fe74  1  0.62403678  0.12272250  0.37711334  1
  Fe3+  Fe75  1  0.37503622  0.62780283  0.37425961  1
  Fe3+  Fe76  1  0.37475160  0.37463589  0.88104718  1
  Fe3+  Fe77  1  0.62588196  0.37433458  0.87416765  1
  Fe3+  Fe78  1  0.12633335  0.37488362  0.38210161  1
  Fe3+  Fe79  1  0.62334069  0.87515646  0.37705787  1
  Fe3+  Fe80  1  0.62352819  0.62684039  0.37977280  1
  Fe3+  Fe81  1  0.62657023  0.87637580  0.87865769  1
  Fe3+  Fe82  1  0.62667177  0.62434496  0.87546541  1
  Fe3+  Fe83  1  0.87574535  0.87495358  0.38085783  1
  Fe3+  Fe84  1  0.37405892  0.37404703  0.63834976  1
  Fe3+  Fe85  1  0.62450473  0.62520057  0.63495880  1
  Fe3+  Fe86  1  0.12204327  0.37492849  0.14165852  1
  Fe3+  Fe87  1  0.62714100  0.87525357  0.13310347  1
  Fe3+  Fe88  1  0.12324945  0.87559660  0.13394403  1
  Fe3+  Fe89  1  0.37505996  0.37399504  0.13476139  1
  Fe3+  Fe90  1  0.87558249  0.87588445  0.63523476  1
  Fe3+  Fe91  1  0.62680403  0.12531187  0.13745350  1
  Fe3+  Fe92  1  0.12559300  0.37476526  0.63423064  1
  Fe3+  Fe93  1  0.87565310  0.37437065  0.14244771  1
  Fe3+  Fe94  1  0.37474011  0.62307627  0.13247351  1
  Fe3+  Fe95  1  0.87616474  0.62267655  0.14072460  1
  Cu2+  Cu96  1  0.87463736  0.37391653  0.85723178  1
  Cu2+  Cu97  1  0.37480459  0.37527095  0.36344796  1
  Cu2+  Cu98  1  0.87594314  0.87696640  0.87217238  1
  Cu2+  Cu99  1  0.87485542  0.62707600  0.37560059  1
  Cu2+  Cu100  1  0.87367567  0.12326119  0.37441080  1
  Cu2+  Cu101  1  0.62563498  0.12568480  0.86353352  1
  Cu2+  Cu102  1  0.37659162  0.12240720  0.37155184  1
  Cu2+  Cu103  1  0.12442947  0.37406230  0.85931270  1
  Cu2+  Cu104  1  0.12592861  0.12307175  0.37264145  1
  Cu2+  Cu105  1  0.87504979  0.37445906  0.37568056  1
  Cu2+  Cu106  1  0.37406217  0.87646990  0.87544029  1
  Cu2+  Cu107  1  0.87436411  0.62409828  0.85832036  1
  Cu2+  Cu108  1  0.62544513  0.87491680  0.65272452  1
  Cu2+  Cu109  1  0.87485659  0.12650292  0.15562776  1
  Cu2+  Cu110  1  0.87514229  0.37421946  0.64125032  1
  Cu2+  Cu111  1  0.87507839  0.87493368  0.14190048  1
  Cu2+  Cu112  1  0.37544203  0.12654700  0.14985820  1
  Cu2+  Cu113  1  0.12530368  0.62477482  0.65443974  1
  Cu2+  Cu114  1  0.62424546  0.37494500  0.64573528  1
  Cu2+  Cu115  1  0.37532805  0.62496806  0.65747125  1
  Cu2+  Cu116  1  0.87529038  0.12436020  0.64142670  1
  Cu2+  Cu117  1  0.37463166  0.12544694  0.64416622  1
  Cu2+  Cu118  1  0.37445334  0.87557109  0.65858160  1
  Cu2+  Cu119  1  0.12402452  0.12600714  0.15321044  1
  Cu2+  Cu120  1  0.62684937  0.62462394  0.15116415  1
  Cu2+  Cu121  1  0.62644287  0.37393580  0.15481830  1
  Cu2+  Cu122  1  0.12553628  0.12560004  0.64164941  1
  Cu2+  Cu123  1  0.62449859  0.12453226  0.65144301  1
  Cu2+  Cu124  1  0.12322501  0.62349260  0.14902661  1
  Cu2+  Cu125  1  0.37504036  0.87561341  0.13827308  1
  Cu2+  Cu126  1  0.87438706  0.62599401  0.64211782  1
  Cu2+  Cu127  1  0.12454107  0.87520137  0.65331383  1
  O2-  O128  1  0.12299292  0.12581420  -0.00381582  1
  O2-  O129  1  0.12715795  0.12382377  0.50673386  1
  O2-  O130  1  0.12002013  0.37527466  0.02137355  1
  O2-  O131  1  0.12884014  0.37592382  0.50836261  1
  O2-  O132  1  0.12123096  0.62219244  -0.00405788  1
  O2-  O133  1  0.13075311  0.62969591  0.49602953  1
  O2-  O134  1  0.12198153  0.87744378  0.00586862  1
  O2-  O135  1  0.12883211  0.87186536  0.49602586  1
  O2-  O136  1  0.37402673  0.12861585  -0.00268308  1
  O2-  O137  1  0.37655441  0.12265060  0.50727585  1
  O2-  O138  1  0.37519777  0.37474861  0.00753924  1
  O2-  O139  1  0.37357854  0.37606547  0.51814598  1
  O2-  O140  1  0.37630269  0.62096030  0.00546793  1
  O2-  O141  1  0.37453314  0.62955101  0.49391780  1
  O2-  O142  1  0.37499092  0.87523995  0.00604799  1
  O2-  O143  1  0.37462464  0.87286703  0.49381513  1
  O2-  O144  1  0.62792725  0.12650782  0.01697532  1
  O2-  O145  1  0.62208436  0.12192574  0.49740406  1
  O2-  O146  1  0.62687601  0.37484187  -0.00549841  1
  O2-  O147  1  0.62175149  0.37524825  0.49879133  1
  O2-  O148  1  0.62764199  0.62265503  -0.00459456  1
  O2-  O149  1  0.62137447  0.62735523  0.50618991  1
  O2-  O150  1  0.62805620  0.87533626  0.00582410  1
  O2-  O151  1  0.62077198  0.87441435  0.49642622  1
  O2-  O152  1  0.87572091  0.12730904  -0.00582853  1
  O2-  O153  1  0.87342972  0.12240570  0.50737539  1
  O2-  O154  1  0.87646135  0.37526039  0.02210686  1
  O2-  O155  1  0.87520459  0.37480850  0.50838719  1
  O2-  O156  1  0.87536299  0.62075031  0.01995531  1
  O2-  O157  1  0.87437267  0.62794697  0.50844928  1
  O2-  O158  1  0.87533008  0.87542339  0.00667086  1
  O2-  O159  1  0.87573838  0.87467627  0.50726680  1
  O2-  O160  1  0.12416141  0.00042588  0.16054110  1
  O2-  O161  1  0.12565297  -0.00118642  0.66485185  1
  O2-  O162  1  0.12571463  0.25032981  0.17018961  1
  O2-  O163  1  0.12582764  0.25302577  0.66396367  1
  O2-  O164  1  0.12497496  0.49877305  0.17194921  1
  O2-  O165  1  0.12659501  0.49908204  0.66235994  1
  O2-  O166  1  0.12462389  0.75031945  0.15585492  1
  O2-  O167  1  0.12535419  0.74969862  0.66875410  1
  O2-  O168  1  0.37518267  0.00202009  0.16099621  1
  O2-  O169  1  0.37490008  -0.00110151  0.66592247  1
  O2-  O170  1  0.37484234  0.25254786  0.16578475  1
  O2-  O171  1  0.37490269  0.25153440  0.66762057  1
  O2-  O172  1  0.37619594  0.49893234  0.16340841  1
  O2-  O173  1  0.37470294  0.49952137  0.66727084  1
  O2-  O174  1  0.37483955  0.74596503  0.15638166  1
  O2-  O175  1  0.37511449  0.75032989  0.66971927  1
  O2-  O176  1  0.62547246  -0.00089961  0.16175702  1
  O2-  O177  1  0.62453337  -0.00074681  0.66677476  1
  O2-  O178  1  0.62543243  0.24935727  0.16762358  1
  O2-  O179  1  0.62404782  0.24953171  0.66251645  1
  O2-  O180  1  0.62503723  0.49904656  0.16694590  1
  O2-  O181  1  0.62368775  0.50203513  0.66066088  1
  O2-  O182  1  0.62617925  0.75126818  0.16007167  1
  O2-  O183  1  0.62359627  0.74870571  0.66551121  1
  O2-  O184  1  0.87538937  0.00224269  0.16379088  1
  O2-  O185  1  0.87460480  -0.00277055  0.66345572  1
  O2-  O186  1  0.87465127  0.25031961  0.17004712  1
  O2-  O187  1  0.87485849  0.24930067  0.66336087  1
  O2-  O188  1  0.87488638  0.49905513  0.17460165  1
  O2-  O189  1  0.87445896  0.50024466  0.66313893  1
  O2-  O190  1  0.87481168  0.74753860  0.16558224  1
  O2-  O191  1  0.87514012  0.75351903  0.66564815  1
  O2-  O192  1  -0.00111447  0.12614485  0.16798464  1
  O2-  O193  1  0.00074982  0.12457258  0.66239072  1
  O2-  O194  1  -0.00080118  0.37389265  0.17689491  1
  O2-  O195  1  0.00320210  0.37598811  0.66194513  1
  O2-  O196  1  -0.00067861  0.62443718  0.17113820  1
  O2-  O197  1  0.00118393  0.62545373  0.66338151  1
  O2-  O198  1  0.00263110  0.87514002  0.16680160  1
  O2-  O199  1  -0.00103693  0.87478197  0.66243465  1
  O2-  O200  1  0.25048403  0.12625860  0.16349385  1
  O2-  O201  1  0.24998240  0.12497731  0.66622837  1
  O2-  O202  1  0.25100421  0.37576624  0.16270195  1
  O2-  O203  1  0.24895436  0.37632638  0.67002976  1
  O2-  O204  1  0.25094253  0.62261109  0.15644409  1
  O2-  O205  1  0.25052153  0.62522299  0.66897606  1
  O2-  O206  1  0.24654332  0.87510846  0.15823003  1
  O2-  O207  1  0.24954799  0.87402610  0.66775125  1
  O2-  O208  1  0.50097268  0.12592123  0.16275104  1
  O2-  O209  1  0.50074307  0.12435164  0.66707298  1
  O2-  O210  1  0.49929150  0.37505843  0.16023919  1
  O2-  O211  1  0.49886526  0.37570543  0.66742452  1
  O2-  O212  1  0.49932731  0.62395973  0.15987948  1
  O2-  O213  1  0.50111083  0.62540722  0.66492476  1
  O2-  O214  1  0.50342542  0.87420569  0.15836931  1
  O2-  O215  1  0.49961479  0.87463994  0.66751380  1
  O2-  O216  1  0.75024397  0.12475615  0.16760784  1
  O2-  O217  1  0.74825216  0.12424016  0.66346333  1
  O2-  O218  1  0.75086628  0.37536246  0.16852913  1
  O2-  O219  1  0.74833117  0.37501664  0.66267144  1
  O2-  O220  1  0.75117994  0.62385408  0.17044319  1
  O2-  O221  1  0.74648115  0.62615834  0.66213418  1
  O2-  O222  1  0.74785880  0.87481007  0.16711090  1
  O2-  O223  1  0.75153225  0.87464577  0.66246105  1
  O2-  O224  1  0.12553098  -0.00293029  0.34400774  1
  O2-  O225  1  0.12420008  0.00075809  0.84702095  1
  O2-  O226  1  0.12630662  0.25191948  0.35371672  1
  O2-  O227  1  0.12513296  0.24992056  0.84671282  1
  O2-  O228  1  0.12755208  0.50009946  0.35260538  1
  O2-  O229  1  0.12401810  0.49976608  0.84643403  1
  O2-  O230  1  0.12570841  0.75067275  0.33751998  1
  O2-  O231  1  0.12423169  0.75081900  0.85201656  1
  O2-  O232  1  0.37522936  -0.00304419  0.34281102  1
  O2-  O233  1  0.37517321  0.00369211  0.84825804  1
  O2-  O234  1  0.37555604  0.25052291  0.35039969  1
  O2-  O235  1  0.37461456  0.25204041  0.84817202  1
  O2-  O236  1  0.37536692  0.50192353  0.34695407  1
  O2-  O237  1  0.37487342  0.49960806  0.85015912  1
  O2-  O238  1  0.37563856  0.75030694  0.33576656  1
  O2-  O239  1  0.37496580  0.74590324  0.85362597  1
  O2-  O240  1  0.62502693  -0.00163433  0.34187604  1
  O2-  O241  1  0.62519187  -0.00067439  0.85151756  1
  O2-  O242  1  0.62355969  0.24918854  0.34891373  1
  O2-  O243  1  0.62495136  0.25118133  0.84558256  1
  O2-  O244  1  0.62331918  0.50184182  0.35142323  1
  O2-  O245  1  0.62539706  0.49954439  0.84224486  1
  O2-  O246  1  0.62412747  0.74968635  0.34350349  1
  O2-  O247  1  0.62599831  0.75068068  0.84938716  1
  O2-  O248  1  0.87469142  -0.00428310  0.34755526  1
  O2-  O249  1  0.87512819  0.00311482  0.84473385  1
  O2-  O250  1  0.87512706  0.24946120  0.35224574  1
  O2-  O251  1  0.87467505  0.24978021  0.84543824  1
  O2-  O252  1  0.87446902  0.50076682  0.35492465  1
  O2-  O253  1  0.87503375  0.49852798  0.84712439  1
  O2-  O254  1  0.87467538  0.75351370  0.34757431  1
  O2-  O255  1  0.87453468  0.74905642  0.84966836  1
  O2-  O256  1  -0.00004844  0.12320121  0.35241890  1
  O2-  O257  1  0.00023013  0.12670545  0.84268207  1
  O2-  O258  1  0.00387245  0.37599099  0.35674917  1
  O2-  O259  1  -0.00091746  0.37468230  0.84643879  1
  O2-  O260  1  0.00270583  0.62598166  0.35156608  1
  O2-  O261  1  -0.00097686  0.62451230  0.84649327  1
  O2-  O262  1  -0.00030621  0.87453243  0.35039407  1
  O2-  O263  1  0.00281659  0.87505849  0.84592389  1
  O2-  O264  1  0.25106705  0.12409014  0.34799094  1
  O2-  O265  1  0.24921718  0.12623501  0.84653447  1
  O2-  O266  1  0.24881762  0.37533896  0.34687041  1
  O2-  O267  1  0.25151695  0.37629640  0.85390842  1
  O2-  O268  1  0.25078068  0.62573832  0.33815684  1
  O2-  O269  1  0.25047745  0.62376896  0.85216762  1
  O2-  O270  1  0.25066727  0.87393439  0.33894610  1
  O2-  O271  1  0.24551297  0.87508299  0.85121643  1
  O2-  O272  1  0.50188377  0.12377743  0.34345294  1
  O2-  O273  1  0.50000867  0.12644431  0.85018437  1
  O2-  O274  1  0.50042641  0.37586189  0.34427830  1
  O2-  O275  1  0.49863157  0.37587884  0.84948639  1
  O2-  O276  1  0.50098009  0.62557499  0.34318841  1
  O2-  O277  1  0.49987893  0.62428220  0.84802552  1
  O2-  O278  1  0.49971895  0.87392024  0.33922157  1
  O2-  O279  1  0.50353670  0.87460956  0.85184841  1
  O2-  O280  1  0.74738394  0.12358950  0.34830293  1
  O2-  O281  1  0.75014738  0.12558788  0.84633398  1
  O2-  O282  1  0.74740989  0.37526780  0.34977692  1
  O2-  O283  1  0.74996967  0.37523688  0.84580505  1
  O2-  O284  1  0.74601194  0.62655397  0.35354977  1
  O2-  O285  1  0.75025445  0.62483315  0.84464831  1
  O2-  O286  1  0.75026884  0.87381065  0.35075928  1
  O2-  O287  1  0.74777494  0.87546739  0.84710772  1
