# generated using pymatgen
data_BaYFeCuO5
_symmetry_space_group_name_H-M   'P 1'
_cell_length_a   15.65246252
_cell_length_b   15.65169694
_cell_length_c   15.43756913
_cell_angle_alpha   90.00192320
_cell_angle_beta   90.00507957
_cell_angle_gamma   89.99896140
_symmetry_Int_Tables_number   1
_chemical_formula_structural   BaYFeCuO5
_chemical_formula_sum   'Ba32 Y32 Fe32 Cu32 O160'
_cell_volume   3782.01298826
_cell_formula_units_Z   32
loop_
 _symmetry_equiv_pos_site_id
 _symmetry_equiv_pos_as_xyz
  1  'x, y, z'
loop_
 _atom_type_symbol
 _atom_type_oxidation_number
  Ba2+  2.0
  Y3+  3.0
  Fe3+  3.0
  Cu2+  2.0
  O2-  -2.0
loop_
 _atom_site_type_symbol
 _atom_site_label
 _atom_site_symmetry_multiplicity
 _atom_site_fract_x
 _atom_site_fract_y
 _atom_site_fract_z
 _atom_site_occupancy
  Ba2+  Ba0  1  -0.00841049  0.00006474  0.01714440  1
  Ba2+  Ba1  1  0.00636851  -0.00254005  0.50474476  1
  Ba2+  Ba2  1  -0.01416710  0.24817426  0.00688478  1
  Ba2+  Ba3  1  0.01230807  0.25042806  0.50672393  1
  Ba2+  Ba4  1  -0.00805424  0.49300662  0.00686394  1
  Ba2+  Ba5  1  0.00624897  0.50258794  0.51768941  1
  Ba2+  Ba6  1  -0.00124818  0.75931020  0.01549987  1
  Ba2+  Ba7  1  -0.00186400  0.74978193  0.51817298  1
  Ba2+  Ba8  1  0.25322832  0.00174252  0.01281034  1
  Ba2+  Ba9  1  0.24733238  0.00789847  0.50190391  1
  Ba2+  Ba10  1  0.25789666  0.24279277  0.00729007  1
  Ba2+  Ba11  1  0.24475429  0.24427106  0.50696500  1
  Ba2+  Ba12  1  0.25791646  0.50575124  0.00666947  1
  Ba2+  Ba13  1  0.24328148  0.50128682  0.51765401  1
  Ba2+  Ba14  1  0.25410331  0.74896421  0.01098127  1
  Ba2+  Ba15  1  0.24632785  0.74582136  0.51302174  1
  Ba2+  Ba16  1  0.50770043  0.00616090  0.00686389  1
  Ba2+  Ba17  1  0.50346964  0.00203823  0.51238668  1
  Ba2+  Ba18  1  0.50874511  0.24393425  0.00723291  1
  Ba2+  Ba19  1  0.49610222  0.23997801  0.51144809  1
  Ba2+  Ba20  1  0.50606878  0.50284356  0.01235839  1
  Ba2+  Ba21  1  0.49912501  0.50949286  0.51762854  1
  Ba2+  Ba22  1  0.50497343  0.74725407  0.01167001  1
  Ba2+  Ba23  1  0.50683099  0.74982211  0.51652025  1
  Ba2+  Ba24  1  0.74690442  0.00413746  0.01163981  1
  Ba2+  Ba25  1  0.74498754  -0.00841710  0.51518253  1
  Ba2+  Ba26  1  0.74802023  0.24784539  0.00643807  1
  Ba2+  Ba27  1  0.74624490  0.24550431  0.51197478  1
  Ba2+  Ba28  1  0.74501253  0.48995904  0.01028543  1
  Ba2+  Ba29  1  0.75124227  0.51057132  0.51732230  1
  Ba2+  Ba30  1  0.74369997  0.75761424  0.01409987  1
  Ba2+  Ba31  1  0.74868802  0.75257798  0.52051911  1
  Y3+  Y32  1  0.00052280  0.00021328  0.25703191  1
  Y3+  Y33  1  -0.00140651  0.00177558  0.75640953  1
  Y3+  Y34  1  -0.00001126  0.24996832  0.25796281  1
  Y3+  Y35  1  -0.00014011  0.24933166  0.75747389  1
  Y3+  Y36  1  -0.00058159  0.49645999  0.25614348  1
  Y3+  Y37  1  -0.00004695  0.49797658  0.75765814  1
  Y3+  Y38  1  0.00044116  0.75390535  0.25496271  1
  Y3+  Y39  1  -0.00172507  0.74992183  0.75662427  1
  Y3+  Y40  1  0.25002376  0.00171990  0.25941198  1
  Y3+  Y41  1  0.25203717  0.00385692  0.75669732  1
  Y3+  Y42  1  0.25032324  0.24765615  0.26151213  1
  Y3+  Y43  1  0.25023498  0.24711514  0.75506175  1
  Y3+  Y44  1  0.25072249  0.49929898  0.25616295  1
  Y3+  Y45  1  0.25055165  0.50065341  0.75811624  1
  Y3+  Y46  1  0.25057456  0.75202101  0.25451507  1
  Y3+  Y47  1  0.25230134  0.74813595  0.75969965  1
  Y3+  Y48  1  0.50088726  0.00103567  0.25751203  1
  Y3+  Y49  1  0.50200194  0.00163030  0.75821827  1
  Y3+  Y50  1  0.49962564  0.24751724  0.25590799  1
  Y3+  Y51  1  0.50036428  0.24552346  0.75960370  1
  Y3+  Y52  1  0.50103282  0.50076318  0.25321004  1
  Y3+  Y53  1  0.49943409  0.50132481  0.76043019  1
  Y3+  Y54  1  0.50205622  0.75124927  0.25496174  1
  Y3+  Y55  1  0.50136571  0.75051645  0.75884371  1
  Y3+  Y56  1  0.74842266  -0.00086394  0.25459701  1
  Y3+  Y57  1  0.74713446  -0.00001408  0.75874965  1
  Y3+  Y58  1  0.74999760  0.24982308  0.25277657  1
  Y3+  Y59  1  0.74968712  0.24840224  0.76201977  1
  Y3+  Y60  1  0.74891349  0.49819609  0.25280539  1
  Y3+  Y61  1  0.75013677  0.49860592  0.75986041  1
  Y3+  Y62  1  0.74679437  0.75353291  0.25488074  1
  Y3+  Y63  1  0.74796037  0.75239891  0.75580889  1
  Fe3+  Fe64  1  0.12559728  0.37362082  0.88058987  1
  Fe3+  Fe65  1  0.62590195  0.12430136  0.37678439  1
  Fe3+  Fe66  1  0.87391073  0.62568901  0.87919384  1
  Fe3+  Fe67  1  0.12502507  0.87607803  0.87899329  1
  Fe3+  Fe68  1  0.62612790  0.62538682  0.87610612  1
  Fe3+  Fe69  1  0.37563223  0.87452619  0.38013108  1
  Fe3+  Fe70  1  0.37512037  0.62543352  0.37587541  1
  Fe3+  Fe71  1  0.37646303  0.87585846  0.87958409  1
  Fe3+  Fe72  1  0.62438556  0.37581844  0.38077962  1
  Fe3+  Fe73  1  0.87428015  0.87424846  0.37662146  1
  Fe3+  Fe74  1  0.12392137  0.62543595  0.87994147  1
  Fe3+  Fe75  1  0.12405920  0.62553481  0.37271186  1
  Fe3+  Fe76  1  0.37531301  0.37579036  0.38047882  1
  Fe3+  Fe77  1  0.87456522  0.37582514  0.38070741  1
  Fe3+  Fe78  1  0.62582767  0.62573541  0.37452004  1
  Fe3+  Fe79  1  0.87498656  0.62572450  0.37434828  1
  Fe3+  Fe80  1  0.12394096  0.12433348  0.88070073  1
  Fe3+  Fe81  1  0.37653290  0.37390552  0.87910891  1
  Fe3+  Fe82  1  0.87399770  0.87591536  0.87578669  1
  Fe3+  Fe83  1  0.87467963  0.12466520  0.37995767  1
  Fe3+  Fe84  1  0.37473262  0.37441531  0.63579276  1
  Fe3+  Fe85  1  0.12603063  0.87564196  0.63874334  1
  Fe3+  Fe86  1  0.12415538  0.62471184  0.13304354  1
  Fe3+  Fe87  1  0.37451643  0.87540557  0.63572594  1
  Fe3+  Fe88  1  0.87350748  0.62542852  0.13288920  1
  Fe3+  Fe89  1  0.37644870  0.87656842  0.13600220  1
  Fe3+  Fe90  1  0.87514799  0.37435712  0.63494064  1
  Fe3+  Fe91  1  0.87523742  0.12414214  0.63436815  1
  Fe3+  Fe92  1  0.37588687  0.37371447  0.13507379  1
  Fe3+  Fe93  1  0.12556633  0.37369279  0.13333905  1
  Fe3+  Fe94  1  0.12471830  0.12553357  0.13616534  1
  Fe3+  Fe95  1  0.62419192  0.37480701  0.63533256  1
  Cu2+  Cu96  1  0.62588728  0.12443097  0.86818926  1
  Cu2+  Cu97  1  0.12546041  0.87396195  0.36349970  1
  Cu2+  Cu98  1  0.37536610  0.12405307  0.87392016  1
  Cu2+  Cu99  1  0.37627365  0.62554455  0.87398436  1
  Cu2+  Cu100  1  0.87467271  0.12373627  0.87130434  1
  Cu2+  Cu101  1  0.62484525  0.87535532  0.87258698  1
  Cu2+  Cu102  1  0.87426652  0.37411298  0.87048226  1
  Cu2+  Cu103  1  0.12552289  0.37652360  0.37211716  1
  Cu2+  Cu104  1  0.12382106  0.12497709  0.36874510  1
  Cu2+  Cu105  1  0.62476058  0.87458830  0.37229794  1
  Cu2+  Cu106  1  0.62407126  0.37434347  0.87092298  1
  Cu2+  Cu107  1  0.37596764  0.12466525  0.37303540  1
  Cu2+  Cu108  1  0.12566090  0.37413457  0.64454555  1
  Cu2+  Cu109  1  0.87405325  0.87565455  0.15113998  1
  Cu2+  Cu110  1  0.62504704  0.12521608  0.14713033  1
  Cu2+  Cu111  1  0.12435019  0.12432225  0.64466472  1
  Cu2+  Cu112  1  0.62359995  0.87702604  0.14114254  1
  Cu2+  Cu113  1  0.62407000  0.37325407  0.14257220  1
  Cu2+  Cu114  1  0.12597488  0.87628167  0.14700340  1
  Cu2+  Cu115  1  0.62586069  0.12558498  0.65168551  1
  Cu2+  Cu116  1  0.37501127  0.62542659  0.65215252  1
  Cu2+  Cu117  1  0.62510320  0.62402401  0.65503854  1
  Cu2+  Cu118  1  0.37570696  0.62536012  0.14061776  1
  Cu2+  Cu119  1  0.87455429  0.37393532  0.14321271  1
  Cu2+  Cu120  1  0.37562515  0.12495361  0.14293715  1
  Cu2+  Cu121  1  0.62604431  0.62520831  0.14891168  1
  Cu2+  Cu122  1  0.87495678  0.62453055  0.65443182  1
  Cu2+  Cu123  1  0.87419446  0.12527166  0.14376745  1
  Cu2+  Cu124  1  0.62374685  0.87536701  0.64366726  1
  Cu2+  Cu125  1  0.12482208  0.62566516  0.65781407  1
  Cu2+  Cu126  1  0.37495642  0.12427354  0.64206377  1
  Cu2+  Cu127  1  0.87538302  0.87579784  0.65056448  1
  O2-  O128  1  0.12418601  0.12497953  0.00780238  1
  O2-  O129  1  0.12353358  0.12409589  0.50770691  1
  O2-  O130  1  0.12541363  0.37333257  0.00692782  1
  O2-  O131  1  0.12586557  0.37729524  0.50786748  1
  O2-  O132  1  0.12398921  0.62502997  0.00591282  1
  O2-  O133  1  0.12348519  0.62599615  0.49357307  1
  O2-  O134  1  0.12441891  0.87643194  -0.00084701  1
  O2-  O135  1  0.12645043  0.87291817  0.51778380  1
  O2-  O136  1  0.37487403  0.12366510  0.00773863  1
  O2-  O137  1  0.37453115  0.12444138  0.50758113  1
  O2-  O138  1  0.37668772  0.37413581  0.00700033  1
  O2-  O139  1  0.37395259  0.37715677  0.50779645  1
  O2-  O140  1  0.37521936  0.62579453  0.00680914  1
  O2-  O141  1  0.37340616  0.62492888  0.49633930  1
  O2-  O142  1  0.37668967  0.87594694  0.00725913  1
  O2-  O143  1  0.37352126  0.87311552  0.50790037  1
  O2-  O144  1  0.62703297  0.12556100  0.00755854  1
  O2-  O145  1  0.62631382  0.12472539  0.49813299  1
  O2-  O146  1  0.62308288  0.37393578  0.00668069  1
  O2-  O147  1  0.62453526  0.37682190  0.50701457  1
  O2-  O148  1  0.62769823  0.62474526  -0.00289247  1
  O2-  O149  1  0.62594624  0.62504993  0.49536496  1
  O2-  O150  1  0.62366911  0.87572055  0.00690651  1
  O2-  O151  1  0.62436319  0.87326562  0.50825611  1
  O2-  O152  1  0.87398107  0.12376104  0.00758249  1
  O2-  O153  1  0.87533678  0.12436850  0.50672122  1
  O2-  O154  1  0.87414972  0.37475022  0.00677603  1
  O2-  O155  1  0.87551524  0.37722576  0.50751079  1
  O2-  O156  1  0.87354004  0.62553105  0.00524982  1
  O2-  O157  1  0.87680992  0.62572191  0.49435332  1
  O2-  O158  1  0.87481343  0.87543236  -0.00336100  1
  O2-  O159  1  0.87552052  0.87186089  0.49702724  1
  O2-  O160  1  0.12525267  0.00210705  0.16419197  1
  O2-  O161  1  0.12524341  -0.00190598  0.66827070  1
  O2-  O162  1  0.12586159  0.25056485  0.16456154  1
  O2-  O163  1  0.12484245  0.24943669  0.66834029  1
  O2-  O164  1  0.12450826  0.49918689  0.15928942  1
  O2-  O165  1  0.12510790  0.50147840  0.66807329  1
  O2-  O166  1  0.12467751  0.74867618  0.15923067  1
  O2-  O167  1  0.12520733  0.75060130  0.66822822  1
  O2-  O168  1  0.37426497  -0.00168200  0.16632120  1
  O2-  O169  1  0.37449114  -0.00254296  0.66453060  1
  O2-  O170  1  0.37396021  0.25226388  0.16678785  1
  O2-  O171  1  0.37557985  0.25231587  0.66435214  1
  O2-  O172  1  0.37471104  0.49725396  0.16246223  1
  O2-  O173  1  0.37453581  0.49907294  0.66477802  1
  O2-  O174  1  0.37491967  0.75284030  0.16236606  1
  O2-  O175  1  0.37432654  0.75079678  0.66420426  1
  O2-  O176  1  0.62448182  0.00167104  0.16627538  1
  O2-  O177  1  0.62499487  0.00149641  0.66543550  1
  O2-  O178  1  0.62431928  0.24861981  0.16851978  1
  O2-  O179  1  0.62484142  0.25264576  0.66341261  1
  O2-  O180  1  0.62517534  0.50084191  0.16378300  1
  O2-  O181  1  0.62517952  0.49772797  0.66360248  1
  O2-  O182  1  0.62460729  0.74954537  0.16219279  1
  O2-  O183  1  0.62455999  0.74797366  0.66544428  1
  O2-  O184  1  0.87540082  -0.00121945  0.16714795  1
  O2-  O185  1  0.87514264  0.00167706  0.66124543  1
  O2-  O186  1  0.87580296  0.25011230  0.16994177  1
  O2-  O187  1  0.87472466  0.25024116  0.66130334  1
  O2-  O188  1  0.87535385  0.50272506  0.16260797  1
  O2-  O189  1  0.87507305  0.49790168  0.66470419  1
  O2-  O190  1  0.87542476  0.74910545  0.15908249  1
  O2-  O191  1  0.87561746  0.74950454  0.66468906  1
  O2-  O192  1  0.00283393  0.12560480  0.16449820  1
  O2-  O193  1  -0.00339952  0.12547108  0.66599559  1
  O2-  O194  1  0.00349826  0.37464276  0.16362102  1
  O2-  O195  1  -0.00304594  0.37526479  0.66555777  1
  O2-  O196  1  -0.00028214  0.62503130  0.15737031  1
  O2-  O197  1  -0.00018687  0.62432080  0.66728068  1
  O2-  O198  1  -0.00019472  0.87566624  0.16281245  1
  O2-  O199  1  0.00055400  0.87446791  0.66568043  1
  O2-  O200  1  0.24715437  0.12541722  0.16402305  1
  O2-  O201  1  0.24983557  0.12527628  0.66794058  1
  O2-  O202  1  0.24962228  0.37553122  0.16160990  1
  O2-  O203  1  0.25310771  0.37555046  0.66813807  1
  O2-  O204  1  0.24617224  0.62455063  0.16119682  1
  O2-  O205  1  0.24971684  0.62474416  0.66756248  1
  O2-  O206  1  0.25215916  0.87540928  0.16339292  1
  O2-  O207  1  0.25142695  0.87381747  0.66924497  1
  O2-  O208  1  0.50062721  0.12534485  0.16596795  1
  O2-  O209  1  0.50185526  0.12502619  0.66485894  1
  O2-  O210  1  0.49732982  0.37476315  0.16662777  1
  O2-  O211  1  0.49976441  0.37625175  0.66059421  1
  O2-  O212  1  0.50195311  0.62475737  0.16402489  1
  O2-  O213  1  0.50031469  0.62407701  0.66356889  1
  O2-  O214  1  0.49768112  0.87574894  0.16680276  1
  O2-  O215  1  0.49672979  0.87444208  0.66462271  1
  O2-  O216  1  0.74907724  0.12529581  0.16670460  1
  O2-  O217  1  0.75194281  0.12594169  0.66226874  1
  O2-  O218  1  0.74944121  0.37452237  0.16715653  1
  O2-  O219  1  0.75009641  0.37526402  0.66000763  1
  O2-  O220  1  0.75168433  0.62522052  0.16167707  1
  O2-  O221  1  0.75014509  0.62405113  0.66297443  1
  O2-  O222  1  0.75016892  0.87565773  0.16377169  1
  O2-  O223  1  0.75107519  0.87448083  0.66316570  1
  O2-  O224  1  0.12485872  -0.00119398  0.34907401  1
  O2-  O225  1  0.12497750  0.00085987  0.84939310  1
  O2-  O226  1  0.12487945  0.25039792  0.34878098  1
  O2-  O227  1  0.12561847  0.24981249  0.85212594  1
  O2-  O228  1  0.12484444  0.50251741  0.34152383  1
  O2-  O229  1  0.12468259  0.49961583  0.85304213  1
  O2-  O230  1  0.12528008  0.74872018  0.34185999  1
  O2-  O231  1  0.12489654  0.74921790  0.85067183  1
  O2-  O232  1  0.37433079  -0.00278245  0.35107841  1
  O2-  O233  1  0.37431415  -0.00255595  0.84873358  1
  O2-  O234  1  0.37539984  0.25290228  0.35190546  1
  O2-  O235  1  0.37397490  0.25180835  0.84929474  1
  O2-  O236  1  0.37540828  0.49973067  0.34560842  1
  O2-  O237  1  0.37431660  0.49691563  0.85005663  1
  O2-  O238  1  0.37441402  0.75042654  0.34553242  1
  O2-  O239  1  0.37436136  0.75318967  0.84945964  1
  O2-  O240  1  0.62518339  0.00140636  0.34850020  1
  O2-  O241  1  0.62485229  0.00067255  0.84902739  1
  O2-  O242  1  0.62551332  0.25197203  0.35135024  1
  O2-  O243  1  0.62496339  0.24845112  0.84769467  1
  O2-  O244  1  0.62500301  0.49890243  0.34643631  1
  O2-  O245  1  0.62515253  0.50172549  0.84647252  1
  O2-  O246  1  0.62485015  0.74831551  0.34450744  1
  O2-  O247  1  0.62532402  0.74859803  0.84776639  1
  O2-  O248  1  0.87572732  0.00080331  0.35062983  1
  O2-  O249  1  0.87574792  -0.00185997  0.84417960  1
  O2-  O250  1  0.87447360  0.25071617  0.35466918  1
  O2-  O251  1  0.87547392  0.24944246  0.84623573  1
  O2-  O252  1  0.87469933  0.49899668  0.34580053  1
  O2-  O253  1  0.87596454  0.50285886  0.84966973  1
  O2-  O254  1  0.87527268  0.74999040  0.34091557  1
  O2-  O255  1  0.87558417  0.74896313  0.84844547  1
  O2-  O256  1  -0.00367635  0.12571916  0.34819302  1
  O2-  O257  1  0.00315006  0.12550733  0.84944401  1
  O2-  O258  1  -0.00362873  0.37547811  0.34795827  1
  O2-  O259  1  0.00369407  0.37478850  0.84997729  1
  O2-  O260  1  -0.00084663  0.62476931  0.33908495  1
  O2-  O261  1  -0.00016767  0.62480558  0.85185525  1
  O2-  O262  1  -0.00038092  0.87482114  0.34684926  1
  O2-  O263  1  0.00053908  0.87446905  0.84649423  1
  O2-  O264  1  0.24969158  0.12514045  0.34814780  1
  O2-  O265  1  0.24641218  0.12499470  0.85174064  1
  O2-  O266  1  0.25356429  0.37598043  0.34654943  1
  O2-  O267  1  0.24965364  0.37530510  0.85303317  1
  O2-  O268  1  0.25053346  0.62508822  0.34248936  1
  O2-  O269  1  0.24657501  0.62444643  0.85224319  1
  O2-  O270  1  0.25165802  0.87411349  0.34889980  1
  O2-  O271  1  0.25058221  0.87461941  0.85175691  1
  O2-  O272  1  0.50244852  0.12585793  0.34821769  1
  O2-  O273  1  0.50113908  0.12475724  0.84922316  1
  O2-  O274  1  0.50039186  0.37589478  0.35167393  1
  O2-  O275  1  0.49728417  0.37446208  0.84571706  1
  O2-  O276  1  0.50004560  0.62447736  0.34574393  1
  O2-  O277  1  0.50204623  0.62500404  0.84705365  1
  O2-  O278  1  0.49733944  0.87423546  0.35061722  1
  O2-  O279  1  0.49801713  0.87507870  0.84878296  1
  O2-  O280  1  0.75162536  0.12604114  0.34877034  1
  O2-  O281  1  0.74947366  0.12465123  0.84679742  1
  O2-  O282  1  0.74957457  0.37582563  0.35222009  1
  O2-  O283  1  0.74958241  0.37495919  0.84537024  1
  O2-  O284  1  0.75023175  0.62406706  0.34296736  1
  O2-  O285  1  0.75174366  0.62485187  0.84597430  1
  O2-  O286  1  0.75122066  0.87499061  0.34661036  1
  O2-  O287  1  0.75103774  0.87473848  0.84626462  1
