# generated using pymatgen
data_BaYFeCuO5
_symmetry_space_group_name_H-M   'P 1'
_cell_length_a   15.65901447
_cell_length_b   15.66120559
_cell_length_c   15.45885577
_cell_angle_alpha   90.00091587
_cell_angle_beta   90.00091288
_cell_angle_gamma   89.99555725
_symmetry_Int_Tables_number   1
_chemical_formula_structural   BaYFeCuO5
_chemical_formula_sum   'Ba32 Y32 Fe32 Cu32 O160'
_cell_volume   3791.11501345
_cell_formula_units_Z   32
loop_
 _symmetry_equiv_pos_site_id
 _symmetry_equiv_pos_as_xyz
  1  'x, y, z'
loop_
 _atom_type_symbol
 _atom_type_oxidation_number
  Ba2+  2.0
  Y3+  3.0
  Fe3+  3.0
  Cu2+  2.0
  O2-  -2.0
loop_
 _atom_site_type_symbol
 _atom_site_label
 _atom_site_symmetry_multiplicity
 _atom_site_fract_x
 _atom_site_fract_y
 _atom_site_fract_z
 _atom_site_occupancy
  Ba2+  Ba0  1  0.00357232  -0.00281213  0.01894767  1
  Ba2+  Ba1  1  -0.00560496  0.00729156  0.50658712  1
  Ba2+  Ba2  1  0.00220802  0.25539570  0.00100932  1
  Ba2+  Ba3  1  -0.00677754  0.25483644  0.51194517  1
  Ba2+  Ba4  1  -0.00613495  0.50052553  0.00714293  1
  Ba2+  Ba5  1  0.00236318  0.49255244  0.51774251  1
  Ba2+  Ba6  1  -0.00326180  0.74699452  0.02203273  1
  Ba2+  Ba7  1  0.00534517  0.74434279  0.51052658  1
  Ba2+  Ba8  1  0.23914735  0.00210973  0.01130661  1
  Ba2+  Ba9  1  0.26084439  0.00297577  0.51096022  1
  Ba2+  Ba10  1  0.24336011  0.25289189  0.00618592  1
  Ba2+  Ba11  1  0.25476132  0.25333479  0.51868357  1
  Ba2+  Ba12  1  0.24945430  0.50060723  0.01637750  1
  Ba2+  Ba13  1  0.24985785  0.49839815  0.51820922  1
  Ba2+  Ba14  1  0.24442678  0.74576056  0.02093227  1
  Ba2+  Ba15  1  0.25585738  0.74507631  0.50926420  1
  Ba2+  Ba16  1  0.51104914  0.00171369  0.01117109  1
  Ba2+  Ba17  1  0.49492598  -0.00279445  0.51819776  1
  Ba2+  Ba18  1  0.50696593  0.25295752  0.00651076  1
  Ba2+  Ba19  1  0.48963129  0.24883425  0.51209517  1
  Ba2+  Ba20  1  0.50363509  0.50264160  0.01254550  1
  Ba2+  Ba21  1  0.49827813  0.50592222  0.50503320  1
  Ba2+  Ba22  1  0.50798887  0.74419520  0.01550655  1
  Ba2+  Ba23  1  0.50132525  0.74780235  0.51175142  1
  Ba2+  Ba24  1  0.74641200  -0.00331737  0.01863314  1
  Ba2+  Ba25  1  0.75027849  0.00268732  0.51102982  1
  Ba2+  Ba26  1  0.74740991  0.25547768  0.00119206  1
  Ba2+  Ba27  1  0.76083045  0.25105894  0.50716517  1
  Ba2+  Ba28  1  0.75248951  0.50286332  0.00139775  1
  Ba2+  Ba29  1  0.74964627  0.49906474  0.50693432  1
  Ba2+  Ba30  1  0.75142506  0.74478966  0.01725068  1
  Ba2+  Ba31  1  0.73811553  0.74779233  0.51155523  1
  Y3+  Y32  1  -0.00014258  0.00217712  0.25745553  1
  Y3+  Y33  1  -0.00035293  0.00353602  0.75672526  1
  Y3+  Y34  1  -0.00270230  0.25058499  0.25799193  1
  Y3+  Y35  1  -0.00137670  0.25238950  0.75809729  1
  Y3+  Y36  1  -0.00366727  0.49867349  0.25598775  1
  Y3+  Y37  1  -0.00190673  0.49671157  0.75938484  1
  Y3+  Y38  1  -0.00101971  0.74914009  0.25606549  1
  Y3+  Y39  1  -0.00117537  0.74697386  0.75571914  1
  Y3+  Y40  1  0.24957436  0.00252940  0.25563227  1
  Y3+  Y41  1  0.25087445  0.00190256  0.75734138  1
  Y3+  Y42  1  0.25089443  0.24908086  0.25544563  1
  Y3+  Y43  1  0.24892379  0.24995952  0.75914531  1
  Y3+  Y44  1  0.25245793  0.50092774  0.25493867  1
  Y3+  Y45  1  0.24787517  0.49780117  0.75746894  1
  Y3+  Y46  1  0.25055933  0.74800046  0.25580489  1
  Y3+  Y47  1  0.25018791  0.74982586  0.75457214  1
  Y3+  Y48  1  0.50098328  0.00250828  0.25554123  1
  Y3+  Y49  1  0.50024338  0.00018560  0.75760130  1
  Y3+  Y50  1  0.49920286  0.24960528  0.25635510  1
  Y3+  Y51  1  0.50056146  0.24894329  0.75914418  1
  Y3+  Y52  1  0.50019896  0.50265784  0.25679062  1
  Y3+  Y53  1  0.50314972  0.50125223  0.75860021  1
  Y3+  Y54  1  0.50201973  0.74551942  0.25676505  1
  Y3+  Y55  1  0.50283734  0.74946859  0.75579050  1
  Y3+  Y56  1  0.74994235  0.00146304  0.25745086  1
  Y3+  Y57  1  0.74914370  0.00166077  0.75657874  1
  Y3+  Y58  1  0.75284244  0.25078558  0.25872166  1
  Y3+  Y59  1  0.75166833  0.25134359  0.75830141  1
  Y3+  Y60  1  0.75154208  0.50067900  0.25702479  1
  Y3+  Y61  1  0.75031433  0.50013199  0.75975574  1
  Y3+  Y62  1  0.74854387  0.74750680  0.25629262  1
  Y3+  Y63  1  0.74759247  0.74638114  0.75742874  1
  Fe3+  Fe64  1  0.37508604  0.12440692  0.88003209  1
  Fe3+  Fe65  1  0.12593766  0.87537980  0.37873664  1
  Fe3+  Fe66  1  0.87503226  0.62475674  0.38018432  1
  Fe3+  Fe67  1  0.62469778  0.37479902  0.38092218  1
  Fe3+  Fe68  1  0.62399040  0.12594096  0.38054255  1
  Fe3+  Fe69  1  0.12360745  0.87378808  0.87416118  1
  Fe3+  Fe70  1  0.37419471  0.37558414  0.37521381  1
  Fe3+  Fe71  1  0.12438580  0.62499016  0.87576565  1
  Fe3+  Fe72  1  0.62391389  0.87537133  0.37601463  1
  Fe3+  Fe73  1  0.12555260  0.62306117  0.37657453  1
  Fe3+  Fe74  1  0.12534741  0.37483554  0.37714604  1
  Fe3+  Fe75  1  0.37530158  0.37618305  0.87844731  1
  Fe3+  Fe76  1  0.87477441  0.12382350  0.87968343  1
  Fe3+  Fe77  1  0.37484934  0.62596962  0.87828315  1
  Fe3+  Fe78  1  0.62645014  0.87427635  0.87551421  1
  Fe3+  Fe79  1  0.87533782  0.87397448  0.87602086  1
  Fe3+  Fe80  1  0.37587158  0.87472427  0.37357510  1
  Fe3+  Fe81  1  0.12603913  0.12667076  0.38015980  1
  Fe3+  Fe82  1  0.37482785  0.87381934  0.88044709  1
  Fe3+  Fe83  1  0.87452278  0.87429580  0.37942169  1
  Fe3+  Fe84  1  0.37529840  0.12604127  0.13314029  1
  Fe3+  Fe85  1  0.37532734  0.62387607  0.63934578  1
  Fe3+  Fe86  1  0.87479814  0.12674983  0.13528470  1
  Fe3+  Fe87  1  0.12554894  0.87553179  0.63202896  1
  Fe3+  Fe88  1  0.62625238  0.37539193  0.14043394  1
  Fe3+  Fe89  1  0.87443687  0.87448816  0.63311602  1
  Fe3+  Fe90  1  0.62506707  0.12595625  0.63566693  1
  Fe3+  Fe91  1  0.62442263  0.37495384  0.63565692  1
  Fe3+  Fe92  1  0.12402208  0.37532993  0.13818518  1
  Fe3+  Fe93  1  0.12474446  0.12588348  0.63533637  1
  Fe3+  Fe94  1  0.37592213  0.87510169  0.13320647  1
  Fe3+  Fe95  1  0.87455809  0.62403995  0.63506091  1
  Cu2+  Cu96  1  0.62606181  0.12425327  0.87333235  1
  Cu2+  Cu97  1  0.12526294  0.37576904  0.86312422  1
  Cu2+  Cu98  1  0.62507382  0.62459449  0.37345420  1
  Cu2+  Cu99  1  0.12393615  0.12459246  0.87286740  1
  Cu2+  Cu100  1  0.87492732  0.12495411  0.37239417  1
  Cu2+  Cu101  1  0.87450458  0.37545314  0.87354603  1
  Cu2+  Cu102  1  0.87553202  0.37585832  0.37299763  1
  Cu2+  Cu103  1  0.62437290  0.37554166  0.86168143  1
  Cu2+  Cu104  1  0.37514345  0.12516594  0.37114928  1
  Cu2+  Cu105  1  0.87522000  0.62611152  0.87009708  1
  Cu2+  Cu106  1  0.62521066  0.62538675  0.87321401  1
  Cu2+  Cu107  1  0.37455935  0.62490609  0.36189262  1
  Cu2+  Cu108  1  0.12484528  0.62422648  0.64994651  1
  Cu2+  Cu109  1  0.12498732  0.37394972  0.65252660  1
  Cu2+  Cu110  1  0.62472091  0.62351180  0.64215249  1
  Cu2+  Cu111  1  0.37583481  0.37496957  0.14629922  1
  Cu2+  Cu112  1  0.37562032  0.62521769  0.14753133  1
  Cu2+  Cu113  1  0.12518259  0.87479440  0.15534926  1
  Cu2+  Cu114  1  0.12377583  0.12707079  0.14227668  1
  Cu2+  Cu115  1  0.37623223  0.37541322  0.65492179  1
  Cu2+  Cu116  1  0.12389017  0.62354372  0.15284814  1
  Cu2+  Cu117  1  0.62646977  0.12718277  0.14291610  1
  Cu2+  Cu118  1  0.62520823  0.87539073  0.64960816  1
  Cu2+  Cu119  1  0.87354269  0.37531784  0.64448204  1
  Cu2+  Cu120  1  0.62655926  0.62330092  0.14445448  1
  Cu2+  Cu121  1  0.37513905  0.12527587  0.64584300  1
  Cu2+  Cu122  1  0.87470825  0.12543119  0.64344624  1
  Cu2+  Cu123  1  0.87448257  0.87551286  0.15393881  1
  Cu2+  Cu124  1  0.87454027  0.62377988  0.14380378  1
  Cu2+  Cu125  1  0.37493162  0.87441364  0.65308900  1
  Cu2+  Cu126  1  0.62495872  0.87462764  0.15312435  1
  Cu2+  Cu127  1  0.87431444  0.37487194  0.14216826  1
  O2-  O128  1  0.12333816  0.12435833  0.00680326  1
  O2-  O129  1  0.12666180  0.12627030  0.50717589  1
  O2-  O130  1  0.12445286  0.37620051  0.01707832  1
  O2-  O131  1  0.12710542  0.37411452  0.49748723  1
  O2-  O132  1  0.12395812  0.62688159  -0.00379264  1
  O2-  O133  1  0.12739468  0.62365819  0.49687389  1
  O2-  O134  1  0.12253582  0.87290880  -0.00544171  1
  O2-  O135  1  0.12769774  0.87589401  0.50488337  1
  O2-  O136  1  0.37497364  0.12436047  0.00632395  1
  O2-  O137  1  0.37514124  0.12501254  0.50714944  1
  O2-  O138  1  0.37522901  0.37591284  -0.00141436  1
  O2-  O139  1  0.37324543  0.37579459  0.49587818  1
  O2-  O140  1  0.37358299  0.62732700  -0.00150016  1
  O2-  O141  1  0.37484513  0.62402018  0.51791023  1
  O2-  O142  1  0.37432340  0.87413245  0.00568997  1
  O2-  O143  1  0.37555764  0.87456600  0.49433741  1
  O2-  O144  1  0.62688748  0.12490247  0.00711579  1
  O2-  O145  1  0.62287617  0.12554093  0.50754557  1
  O2-  O146  1  0.62576201  0.37633635  0.01917233  1
  O2-  O147  1  0.62334429  0.37384044  0.50831826  1
  O2-  O148  1  0.62628248  0.62462852  0.00767190  1
  O2-  O149  1  0.62344399  0.62433206  0.50764414  1
  O2-  O150  1  0.62757505  0.87391269  -0.00404971  1
  O2-  O151  1  0.62153015  0.87660551  0.49609059  1
  O2-  O152  1  0.87498038  0.12347680  0.00723647  1
  O2-  O153  1  0.87467728  0.12409521  0.50762430  1
  O2-  O154  1  0.87424843  0.37474651  0.00682590  1
  O2-  O155  1  0.87553898  0.37657758  0.50877420  1
  O2-  O156  1  0.87580015  0.62643320  0.00742951  1
  O2-  O157  1  0.87529397  0.62476640  0.50701440  1
  O2-  O158  1  0.87667443  0.87464556  -0.00381745  1
  O2-  O159  1  0.87438034  0.87440249  0.50576650  1
  O2-  O160  1  0.12458699  -0.00064280  0.16700440  1
  O2-  O161  1  0.12455411  0.00004877  0.66049086  1
  O2-  O162  1  0.12535333  0.25247332  0.16828484  1
  O2-  O163  1  0.12534740  0.24832981  0.66518497  1
  O2-  O164  1  0.12523006  0.49928552  0.16607848  1
  O2-  O165  1  0.12506231  0.49869432  0.66405614  1
  O2-  O166  1  0.12466748  0.74934307  0.16609883  1
  O2-  O167  1  0.12560460  0.75221230  0.65785702  1
  O2-  O168  1  0.37508886  0.00010617  0.16062029  1
  O2-  O169  1  0.37494746  -0.00152891  0.66665805  1
  O2-  O170  1  0.37518056  0.24804233  0.16314301  1
  O2-  O171  1  0.37535806  0.25139227  0.66756488  1
  O2-  O172  1  0.37546175  0.50074356  0.16383345  1
  O2-  O173  1  0.37475963  0.49992922  0.66669074  1
  O2-  O174  1  0.37506401  0.75214243  0.16297578  1
  O2-  O175  1  0.37416041  0.74953284  0.66406232  1
  O2-  O176  1  0.62566444  -0.00054751  0.16495783  1
  O2-  O177  1  0.62519666  0.00151182  0.66155402  1
  O2-  O178  1  0.62501853  0.25209814  0.17091769  1
  O2-  O179  1  0.62417071  0.24977050  0.66490044  1
  O2-  O180  1  0.62514818  0.49822462  0.17108155  1
  O2-  O181  1  0.62456546  0.49713622  0.66461025  1
  O2-  O182  1  0.62539546  0.75040010  0.16523552  1
  O2-  O183  1  0.62451302  0.75100872  0.66135056  1
  O2-  O184  1  0.87510790  0.00137911  0.16414661  1
  O2-  O185  1  0.87533259  -0.00341936  0.66310458  1
  O2-  O186  1  0.87496158  0.24785542  0.16571920  1
  O2-  O187  1  0.87459846  0.25011012  0.66804566  1
  O2-  O188  1  0.87467056  0.49943334  0.16697917  1
  O2-  O189  1  0.87507462  0.50267468  0.66488803  1
  O2-  O190  1  0.87509434  0.75170993  0.16755759  1
  O2-  O191  1  0.87609605  0.74998819  0.65932196  1
  O2-  O192  1  -0.00321211  0.12427758  0.16673019  1
  O2-  O193  1  0.00259048  0.12493289  0.66281548  1
  O2-  O194  1  0.00061511  0.37499854  0.16699180  1
  O2-  O195  1  0.00034983  0.37446729  0.66461902  1
  O2-  O196  1  0.00048616  0.62531402  0.16810929  1
  O2-  O197  1  -0.00096563  0.62551106  0.66005868  1
  O2-  O198  1  0.00041943  0.87540345  0.16885476  1
  O2-  O199  1  0.00057348  0.87470335  0.65566349  1
  O2-  O200  1  0.25271165  0.12451151  0.16244870  1
  O2-  O201  1  0.24718463  0.12455460  0.66546222  1
  O2-  O202  1  0.25024885  0.37523145  0.16272254  1
  O2-  O203  1  0.25076633  0.37415946  0.66464982  1
  O2-  O204  1  0.24943625  0.62557300  0.16186121  1
  O2-  O205  1  0.24997337  0.62466887  0.66540533  1
  O2-  O206  1  0.25187611  0.87548828  0.16124670  1
  O2-  O207  1  0.24779249  0.87618802  0.66332344  1
  O2-  O208  1  0.49760659  0.12499362  0.16274370  1
  O2-  O209  1  0.50274187  0.12446163  0.66603361  1
  O2-  O210  1  0.50031592  0.37491566  0.16655317  1
  O2-  O211  1  0.50172472  0.37388848  0.66445757  1
  O2-  O212  1  0.50005668  0.62470437  0.16430172  1
  O2-  O213  1  0.49842480  0.62515580  0.66780000  1
  O2-  O214  1  0.49873391  0.87591291  0.15905222  1
  O2-  O215  1  0.49987822  0.87550152  0.66607138  1
  O2-  O216  1  0.75323653  0.12458827  0.16746984  1
  O2-  O217  1  0.74711765  0.12503179  0.66344277  1
  O2-  O218  1  0.74930583  0.37442110  0.17121857  1
  O2-  O219  1  0.74661357  0.37428051  0.66396512  1
  O2-  O220  1  0.75031103  0.62503622  0.16906347  1
  O2-  O221  1  0.75231717  0.62553776  0.66319813  1
  O2-  O222  1  0.74937045  0.87543340  0.16760859  1
  O2-  O223  1  0.75194398  0.87446077  0.65929748  1
  O2-  O224  1  0.12526269  -0.00013891  0.35193656  1
  O2-  O225  1  0.12512617  -0.00275538  0.84319098  1
  O2-  O226  1  0.12564327  0.24938777  0.34920505  1
  O2-  O227  1  0.12518105  0.25153447  0.85003198  1
  O2-  O228  1  0.12481741  0.49961195  0.34613845  1
  O2-  O229  1  0.12511625  0.50057553  0.84765447  1
  O2-  O230  1  0.12520789  0.75115035  0.35044347  1
  O2-  O231  1  0.12505857  0.75035705  0.83937552  1
  O2-  O232  1  0.37470571  -0.00169754  0.34356534  1
  O2-  O233  1  0.37457009  -0.00106845  0.85087778  1
  O2-  O234  1  0.37489806  0.25188265  0.34575766  1
  O2-  O235  1  0.37528827  0.24908937  0.85109771  1
  O2-  O236  1  0.37525614  0.49972858  0.34714274  1
  O2-  O237  1  0.37480662  0.50064783  0.84762267  1
  O2-  O238  1  0.37435798  0.75029083  0.34651925  1
  O2-  O239  1  0.37442296  0.75157383  0.84554474  1
  O2-  O240  1  0.62482265  0.00119194  0.34800229  1
  O2-  O241  1  0.62484966  -0.00266964  0.84427254  1
  O2-  O242  1  0.62458864  0.25027505  0.35383391  1
  O2-  O243  1  0.62472345  0.25172903  0.84984043  1
  O2-  O244  1  0.62453275  0.49718776  0.35387169  1
  O2-  O245  1  0.62482452  0.49844249  0.84846226  1
  O2-  O246  1  0.62487124  0.75140156  0.34826838  1
  O2-  O247  1  0.62497750  0.75221636  0.84365603  1
  O2-  O248  1  0.87555798  -0.00346669  0.34937867  1
  O2-  O249  1  0.87546857  0.00033002  0.84607863  1
  O2-  O250  1  0.87517211  0.25003785  0.34945077  1
  O2-  O251  1  0.87445405  0.24754876  0.85243063  1
  O2-  O252  1  0.87552468  0.50305325  0.35045307  1
  O2-  O253  1  0.87471571  0.50023469  0.84910936  1
  O2-  O254  1  0.87597927  0.75028542  0.35171967  1
  O2-  O255  1  0.87516955  0.75159589  0.84138750  1
  O2-  O256  1  0.00358460  0.12436242  0.35071869  1
  O2-  O257  1  -0.00341690  0.12459402  0.84676385  1
  O2-  O258  1  0.00169490  0.37443432  0.34840250  1
  O2-  O259  1  0.00139124  0.37470998  0.84878364  1
  O2-  O260  1  -0.00070693  0.62640148  0.35071031  1
  O2-  O261  1  0.00172578  0.62533309  0.84328358  1
  O2-  O262  1  0.00079378  0.87506784  0.35401975  1
  O2-  O263  1  -0.00053413  0.87500365  0.83819161  1
  O2-  O264  1  0.24687398  0.12429935  0.34622786  1
  O2-  O265  1  0.25311607  0.12415379  0.84965322  1
  O2-  O266  1  0.24971646  0.37520774  0.34284827  1
  O2-  O267  1  0.25097759  0.37428389  0.84809694  1
  O2-  O268  1  0.24910173  0.62563403  0.34517872  1
  O2-  O269  1  0.25000235  0.62596861  0.84543492  1
  O2-  O270  1  0.24867642  0.87523151  0.34512678  1
  O2-  O271  1  0.25114895  0.87503102  0.84698402  1
  O2-  O272  1  0.50318902  0.12519846  0.34634224  1
  O2-  O273  1  0.49693014  0.12415258  0.85019203  1
  O2-  O274  1  0.50083260  0.37454171  0.34917414  1
  O2-  O275  1  0.49976170  0.37456954  0.84778110  1
  O2-  O276  1  0.49866691  0.62517885  0.34882751  1
  O2-  O277  1  0.49816562  0.62567215  0.84892551  1
  O2-  O278  1  0.50015667  0.87520822  0.34104748  1
  O2-  O279  1  0.49842936  0.87527761  0.85002055  1
  O2-  O280  1  0.74644130  0.12465326  0.35156501  1
  O2-  O281  1  0.75321013  0.12431329  0.84700191  1
  O2-  O282  1  0.74775604  0.37453029  0.35425531  1
  O2-  O283  1  0.74735435  0.37499481  0.84795495  1
  O2-  O284  1  0.75308241  0.62578029  0.35236189  1
  O2-  O285  1  0.74983566  0.62490472  0.84728714  1
  O2-  O286  1  0.75068786  0.87525066  0.35115235  1
  O2-  O287  1  0.75099868  0.87543125  0.84181892  1
