# generated using pymatgen
data_BaYFeCuO5
_symmetry_space_group_name_H-M   'P 1'
_cell_length_a   15.66720062
_cell_length_b   15.66897244
_cell_length_c   15.48133654
_cell_angle_alpha   90.00079045
_cell_angle_beta   90.00186901
_cell_angle_gamma   90.00319736
_symmetry_Int_Tables_number   1
_chemical_formula_structural   BaYFeCuO5
_chemical_formula_sum   'Ba32 Y32 Fe32 Cu32 O160'
_cell_volume   3800.49680698
_cell_formula_units_Z   32
loop_
 _symmetry_equiv_pos_site_id
 _symmetry_equiv_pos_as_xyz
  1  'x, y, z'
loop_
 _atom_type_symbol
 _atom_type_oxidation_number
  Ba2+  2.0
  Y3+  3.0
  Fe3+  3.0
  Cu2+  2.0
  O2-  -2.0
loop_
 _atom_site_type_symbol
 _atom_site_label
 _atom_site_symmetry_multiplicity
 _atom_site_fract_x
 _atom_site_fract_y
 _atom_site_fract_z
 _atom_site_occupancy
  Ba2+  Ba0  1  0.00218924  0.00321393  0.00080953  1
  Ba2+  Ba1  1  0.00671777  -0.00051379  0.50688035  1
  Ba2+  Ba2  1  0.00182890  0.24701917  0.01278477  1
  Ba2+  Ba3  1  0.00756851  0.25191850  0.51641098  1
  Ba2+  Ba4  1  -0.00592059  0.49690954  0.01531959  1
  Ba2+  Ba5  1  -0.00281095  0.49474603  0.52251247  1
  Ba2+  Ba6  1  -0.00578620  0.75365706  0.00679326  1
  Ba2+  Ba7  1  -0.00400902  0.75386605  0.51151385  1
  Ba2+  Ba8  1  0.25008455  0.00072693  0.01818740  1
  Ba2+  Ba9  1  0.24695474  0.00939557  0.51003743  1
  Ba2+  Ba10  1  0.24772417  0.24544636  0.01162674  1
  Ba2+  Ba11  1  0.25007701  0.24583328  0.51577898  1
  Ba2+  Ba12  1  0.25374047  0.49493133  0.01029946  1
  Ba2+  Ba13  1  0.25285715  0.49358508  0.52204768  1
  Ba2+  Ba14  1  0.25519406  0.75777235  0.01576596  1
  Ba2+  Ba15  1  0.24974050  0.75050085  0.51570942  1
  Ba2+  Ba16  1  0.49929202  0.00155369  0.00727265  1
  Ba2+  Ba17  1  0.50117669  0.00687312  0.51741740  1
  Ba2+  Ba18  1  0.50448196  0.24712819  0.00675308  1
  Ba2+  Ba19  1  0.49205403  0.24471168  0.51654725  1
  Ba2+  Ba20  1  0.49988386  0.49183789  0.00588681  1
  Ba2+  Ba21  1  0.49051288  0.49911767  0.51805887  1
  Ba2+  Ba22  1  0.49445039  0.75871891  0.00633911  1
  Ba2+  Ba23  1  0.50004065  0.75057310  0.51706784  1
  Ba2+  Ba24  1  0.74873408  0.00234169  -0.00768109  1
  Ba2+  Ba25  1  0.74607167  -0.00359789  0.51248599  1
  Ba2+  Ba26  1  0.74510257  0.24832364  0.00755904  1
  Ba2+  Ba27  1  0.75042960  0.25008343  0.51635741  1
  Ba2+  Ba28  1  0.75369453  0.49441406  0.01238860  1
  Ba2+  Ba29  1  0.75891756  0.50022921  0.51868624  1
  Ba2+  Ba30  1  0.75568588  0.75335442  -0.00268648  1
  Ba2+  Ba31  1  0.75447249  0.75410191  0.51167730  1
  Y3+  Y32  1  0.00361986  0.00113745  0.25839355  1
  Y3+  Y33  1  0.00220389  0.00243278  0.75783727  1
  Y3+  Y34  1  0.00286675  0.24886725  0.25612398  1
  Y3+  Y35  1  0.00250118  0.24804138  0.75785237  1
  Y3+  Y36  1  -0.00114193  0.49902807  0.25169141  1
  Y3+  Y37  1  -0.00207546  0.49998675  0.75870188  1
  Y3+  Y38  1  -0.00069645  0.75042832  0.25500148  1
  Y3+  Y39  1  -0.00175825  0.74981670  0.75922608  1
  Y3+  Y40  1  0.24995017  0.00316225  0.25797919  1
  Y3+  Y41  1  0.24872119  0.00256198  0.75648835  1
  Y3+  Y42  1  0.24875300  0.24570232  0.25765691  1
  Y3+  Y43  1  0.24980939  0.24807102  0.75584403  1
  Y3+  Y44  1  0.25022440  0.49962300  0.25297599  1
  Y3+  Y45  1  0.25155763  0.49788252  0.75760915  1
  Y3+  Y46  1  0.25137665  0.75180524  0.25354780  1
  Y3+  Y47  1  0.25089424  0.75171107  0.75754422  1
  Y3+  Y48  1  0.49773794  0.00275099  0.25586947  1
  Y3+  Y49  1  0.50092081  0.00094167  0.75940514  1
  Y3+  Y50  1  0.50066156  0.24718227  0.25428649  1
  Y3+  Y51  1  0.49983391  0.24848144  0.75997384  1
  Y3+  Y52  1  0.50065778  0.49931776  0.25329589  1
  Y3+  Y53  1  0.49912486  0.49772200  0.75976584  1
  Y3+  Y54  1  0.49791506  0.75067193  0.25421241  1
  Y3+  Y55  1  0.49978878  0.75317573  0.75933261  1
  Y3+  Y56  1  0.74958633  0.00096518  0.25988440  1
  Y3+  Y57  1  0.74761308  0.00100439  0.75865235  1
  Y3+  Y58  1  0.74837544  0.25081876  0.25371202  1
  Y3+  Y59  1  0.74748441  0.24849088  0.76077182  1
  Y3+  Y60  1  0.75026818  0.49885738  0.25240294  1
  Y3+  Y61  1  0.75132095  0.49997379  0.76108653  1
  Y3+  Y62  1  0.75186232  0.74925837  0.25700493  1
  Y3+  Y63  1  0.75121722  0.75099437  0.75946534  1
  Fe3+  Fe64  1  0.37443549  0.62542799  0.87717127  1
  Fe3+  Fe65  1  0.62434197  0.37585116  0.38070901  1
  Fe3+  Fe66  1  0.62474361  0.12632094  0.37855363  1
  Fe3+  Fe67  1  0.87590798  0.62397575  0.37646958  1
  Fe3+  Fe68  1  0.62486205  0.62403762  0.38062112  1
  Fe3+  Fe69  1  0.12539332  0.37443726  0.87690776  1
  Fe3+  Fe70  1  0.87528876  0.37284032  0.87572013  1
  Fe3+  Fe71  1  0.37538537  0.87618410  0.37980467  1
  Fe3+  Fe72  1  0.62426436  0.87412535  0.37879282  1
  Fe3+  Fe73  1  0.12506682  0.62351407  0.37884916  1
  Fe3+  Fe74  1  0.12572527  0.87379469  0.37672830  1
  Fe3+  Fe75  1  0.37425882  0.62443032  0.37632046  1
  Fe3+  Fe76  1  0.12503714  0.62482840  0.87905257  1
  Fe3+  Fe77  1  0.12553523  0.37598513  0.37544224  1
  Fe3+  Fe78  1  0.37367264  0.12461065  0.87643299  1
  Fe3+  Fe79  1  0.37481847  0.37421801  0.37519118  1
  Fe3+  Fe80  1  0.87539479  0.12535072  0.38160796  1
  Fe3+  Fe81  1  0.12618770  0.87552171  0.87639471  1
  Fe3+  Fe82  1  0.62480307  0.62504055  0.87934840  1
  Fe3+  Fe83  1  0.87523370  0.37455105  0.37560039  1
  Fe3+  Fe84  1  0.37437168  0.87668896  0.63572597  1
  Fe3+  Fe85  1  0.87555810  0.87645475  0.64064294  1
  Fe3+  Fe86  1  0.62483458  0.62629560  0.13310798  1
  Fe3+  Fe87  1  0.62518883  0.62517300  0.63629789  1
  Fe3+  Fe88  1  0.12521564  0.62573511  0.13266031  1
  Fe3+  Fe89  1  0.12455857  0.62524253  0.63545165  1
  Fe3+  Fe90  1  0.87475250  0.87741676  0.13920816  1
  Fe3+  Fe91  1  0.37513252  0.37264208  0.13666848  1
  Fe3+  Fe92  1  0.62449690  0.37476089  0.63592631  1
  Fe3+  Fe93  1  0.87502159  0.12535879  0.63654495  1
  Fe3+  Fe94  1  0.62618316  0.87635738  0.13715737  1
  Fe3+  Fe95  1  0.87440394  0.12382387  0.13869970  1
  Cu2+  Cu96  1  0.37353686  0.87678675  0.87025144  1
  Cu2+  Cu97  1  0.62463951  0.87492125  0.86446264  1
  Cu2+  Cu98  1  0.37439346  0.37355512  0.86393135  1
  Cu2+  Cu99  1  0.87602787  0.87662112  0.86115379  1
  Cu2+  Cu100  1  0.12482244  0.12614868  0.37259030  1
  Cu2+  Cu101  1  0.37540267  0.12561182  0.37249019  1
  Cu2+  Cu102  1  0.87558053  0.62412642  0.87408324  1
  Cu2+  Cu103  1  0.62497272  0.37497700  0.87189456  1
  Cu2+  Cu104  1  0.12579712  0.12543167  0.87219819  1
  Cu2+  Cu105  1  0.87551058  0.12564603  0.86242510  1
  Cu2+  Cu106  1  0.87527901  0.87526786  0.36481844  1
  Cu2+  Cu107  1  0.62410319  0.12489369  0.87173703  1
  Cu2+  Cu108  1  0.12430075  0.12425248  0.14180256  1
  Cu2+  Cu109  1  0.87520243  0.37294302  0.14969843  1
  Cu2+  Cu110  1  0.37551169  0.37382836  0.65501413  1
  Cu2+  Cu111  1  0.62502409  0.87503850  0.65281271  1
  Cu2+  Cu112  1  0.62597364  0.12328517  0.14134888  1
  Cu2+  Cu113  1  0.12473738  0.87473757  0.65099380  1
  Cu2+  Cu114  1  0.62524440  0.12551838  0.65172258  1
  Cu2+  Cu115  1  0.37498916  0.12510306  0.15000402  1
  Cu2+  Cu116  1  0.87406608  0.62608206  0.13939706  1
  Cu2+  Cu117  1  0.12441467  0.12483685  0.64252900  1
  Cu2+  Cu118  1  0.37479213  0.12434014  0.64482881  1
  Cu2+  Cu119  1  0.87416735  0.37361615  0.65420556  1
  Cu2+  Cu120  1  0.37568608  0.87690718  0.14308516  1
  Cu2+  Cu121  1  0.37579887  0.62478862  0.14532177  1
  Cu2+  Cu122  1  0.12565628  0.37439327  0.14721063  1
  Cu2+  Cu123  1  0.37515281  0.62582563  0.65274528  1
  Cu2+  Cu124  1  0.62437488  0.37394258  0.14083222  1
  Cu2+  Cu125  1  0.87473275  0.62541835  0.65328748  1
  Cu2+  Cu126  1  0.12518356  0.37548778  0.65375482  1
  Cu2+  Cu127  1  0.12447885  0.87552777  0.15052148  1
  O2-  O128  1  0.12465368  0.12449293  0.00771647  1
  O2-  O129  1  0.12358594  0.12648241  0.50806496  1
  O2-  O130  1  0.12433981  0.37578507  -0.00294109  1
  O2-  O131  1  0.12553010  0.37809568  0.49557025  1
  O2-  O132  1  0.12525319  0.62568231  0.00513498  1
  O2-  O133  1  0.12472481  0.62327380  0.50517733  1
  O2-  O134  1  0.12563567  0.87434871  -0.00332233  1
  O2-  O135  1  0.12530078  0.87119054  0.49691507  1
  O2-  O136  1  0.37388159  0.12441682  -0.00287469  1
  O2-  O137  1  0.37517584  0.12445545  0.50718252  1
  O2-  O138  1  0.37560750  0.37321468  0.01576761  1
  O2-  O139  1  0.37431011  0.37585353  0.49569341  1
  O2-  O140  1  0.37460112  0.62582398  -0.00261422  1
  O2-  O141  1  0.37359692  0.62402146  0.49624632  1
  O2-  O142  1  0.37447116  0.87675081  0.00713325  1
  O2-  O143  1  0.37553700  0.87488083  0.50690404  1
  O2-  O144  1  0.62582991  0.12322441  0.00729214  1
  O2-  O145  1  0.62500972  0.12764495  0.49888602  1
  O2-  O146  1  0.62514013  0.37555750  0.00656547  1
  O2-  O147  1  0.62424279  0.37641527  0.50678336  1
  O2-  O148  1  0.62489114  0.62616539  0.00619812  1
  O2-  O149  1  0.62498520  0.62396798  0.50657646  1
  O2-  O150  1  0.62725032  0.87498494  0.01687705  1
  O2-  O151  1  0.62382493  0.87222245  0.49888125  1
  O2-  O152  1  0.87451260  0.12301764  0.01849740  1
  O2-  O153  1  0.87512824  0.12559033  0.50870637  1
  O2-  O154  1  0.87553645  0.37236092  -0.00385768  1
  O2-  O155  1  0.87514439  0.37623456  0.49557450  1
  O2-  O156  1  0.87487888  0.62567089  0.00669902  1
  O2-  O157  1  0.87651175  0.62326344  0.49679818  1
  O2-  O158  1  0.87384203  0.87819696  0.01890577  1
  O2-  O159  1  0.87506466  0.87522481  0.51982443  1
  O2-  O160  1  0.12546494  -0.00138416  0.16853768  1
  O2-  O161  1  0.12438146  -0.00159090  0.66429796  1
  O2-  O162  1  0.12519625  0.25085098  0.16478347  1
  O2-  O163  1  0.12481278  0.25216254  0.66455569  1
  O2-  O164  1  0.12552014  0.50171815  0.15989164  1
  O2-  O165  1  0.12514991  0.50176242  0.66370694  1
  O2-  O166  1  0.12556559  0.74875012  0.16328615  1
  O2-  O167  1  0.12459764  0.74766019  0.66288511  1
  O2-  O168  1  0.37473332  0.00271625  0.16805299  1
  O2-  O169  1  0.37493235  -0.00264947  0.66356530  1
  O2-  O170  1  0.37456507  0.24875916  0.16505408  1
  O2-  O171  1  0.37543717  0.25023189  0.66472511  1
  O2-  O172  1  0.37553770  0.49909725  0.16250387  1
  O2-  O173  1  0.37557544  0.50017268  0.66460091  1
  O2-  O174  1  0.37508116  0.74919472  0.16551550  1
  O2-  O175  1  0.37539257  0.75225864  0.66286775  1
  O2-  O176  1  0.62498476  -0.00190864  0.17102275  1
  O2-  O177  1  0.62546160  0.00027866  0.66363226  1
  O2-  O178  1  0.62526529  0.24903988  0.16452423  1
  O2-  O179  1  0.62486709  0.25243518  0.66338634  1
  O2-  O180  1  0.62451127  0.50275119  0.16262886  1
  O2-  O181  1  0.62460738  0.50014014  0.66253073  1
  O2-  O182  1  0.62497401  0.74961093  0.16678310  1
  O2-  O183  1  0.62508977  0.74766317  0.66464776  1
  O2-  O184  1  0.87554692  -0.00023399  0.17549240  1
  O2-  O185  1  0.87447366  0.00178200  0.66559067  1
  O2-  O186  1  0.87521582  0.24924593  0.16690019  1
  O2-  O187  1  0.87417163  0.24848089  0.66181008  1
  O2-  O188  1  0.87462855  0.49764140  0.15999173  1
  O2-  O189  1  0.87425873  0.49956228  0.66436377  1
  O2-  O190  1  0.87506790  0.75282284  0.16746595  1
  O2-  O191  1  0.87459697  0.75065029  0.66703239  1
  O2-  O192  1  -0.00166009  0.12482150  0.16881438  1
  O2-  O193  1  -0.00267684  0.12544557  0.66461169  1
  O2-  O194  1  0.00064764  0.37493979  0.16240998  1
  O2-  O195  1  -0.00070591  0.37585006  0.66312992  1
  O2-  O196  1  0.00292830  0.62503587  0.16270693  1
  O2-  O197  1  0.00104608  0.62462348  0.66339862  1
  O2-  O198  1  -0.00022455  0.87494821  0.16635753  1
  O2-  O199  1  -0.00040604  0.87422753  0.66689008  1
  O2-  O200  1  0.25133139  0.12445383  0.16470289  1
  O2-  O201  1  0.24958207  0.12501856  0.66387208  1
  O2-  O202  1  0.25090944  0.37553781  0.16333078  1
  O2-  O203  1  0.25084647  0.37620001  0.66387878  1
  O2-  O204  1  0.24859654  0.62538532  0.16150968  1
  O2-  O205  1  0.24864200  0.62530712  0.66206081  1
  O2-  O206  1  0.24890413  0.87492328  0.16464787  1
  O2-  O207  1  0.25073906  0.87342746  0.66072476  1
  O2-  O208  1  0.49816254  0.12456417  0.16348586  1
  O2-  O209  1  0.50137497  0.12475691  0.66548970  1
  O2-  O210  1  0.49784806  0.37469338  0.16788744  1
  O2-  O211  1  0.50157168  0.37595177  0.66355805  1
  O2-  O212  1  0.50209727  0.62574654  0.16450591  1
  O2-  O213  1  0.50180152  0.62515293  0.66291783  1
  O2-  O214  1  0.50185915  0.87456257  0.16657406  1
  O2-  O215  1  0.49888702  0.87437055  0.66337819  1
  O2-  O216  1  0.75213626  0.12458632  0.17147519  1
  O2-  O217  1  0.75107460  0.12547093  0.66372853  1
  O2-  O218  1  0.75090626  0.37492007  0.16624819  1
  O2-  O219  1  0.74762070  0.37581964  0.66235843  1
  O2-  O220  1  0.74679135  0.62497191  0.16628061  1
  O2-  O221  1  0.74815298  0.62449581  0.66375592  1
  O2-  O222  1  0.75005868  0.87497938  0.17240304  1
  O2-  O223  1  0.75038420  0.87464220  0.66674700  1
  O2-  O224  1  0.12513660  -0.00167225  0.35139985  1
  O2-  O225  1  0.12453080  -0.00075543  0.84718819  1
  O2-  O226  1  0.12446349  0.25235928  0.34725895  1
  O2-  O227  1  0.12520664  0.25139530  0.84762660  1
  O2-  O228  1  0.12510129  0.50171952  0.34245124  1
  O2-  O229  1  0.12541744  0.50105319  0.84743597  1
  O2-  O230  1  0.12518540  0.74750346  0.34692112  1
  O2-  O231  1  0.12520608  0.74851423  0.84674659  1
  O2-  O232  1  0.37529292  -0.00273946  0.35142328  1
  O2-  O233  1  0.37467383  0.00179942  0.84491116  1
  O2-  O234  1  0.37599835  0.25207130  0.34612855  1
  O2-  O235  1  0.37486759  0.24915306  0.84737860  1
  O2-  O236  1  0.37543145  0.50025344  0.34261877  1
  O2-  O237  1  0.37516530  0.50042859  0.84847770  1
  O2-  O238  1  0.37525155  0.75053503  0.34829054  1
  O2-  O239  1  0.37481935  0.74880065  0.84593883  1
  O2-  O240  1  0.62587741  -0.00028117  0.35156185  1
  O2-  O241  1  0.62508271  -0.00162653  0.84846444  1
  O2-  O242  1  0.62531202  0.25248903  0.34796177  1
  O2-  O243  1  0.62454908  0.24981569  0.84816532  1
  O2-  O244  1  0.62527391  0.50040132  0.34764539  1
  O2-  O245  1  0.62429545  0.50309802  0.84750921  1
  O2-  O246  1  0.62469998  0.74771305  0.34907422  1
  O2-  O247  1  0.62475598  0.74878135  0.84994873  1
  O2-  O248  1  0.87399445  0.00149686  0.35692613  1
  O2-  O249  1  0.87537222  0.00113065  0.84872107  1
  O2-  O250  1  0.87424660  0.24955713  0.34895894  1
  O2-  O251  1  0.87501587  0.24976700  0.84479825  1
  O2-  O252  1  0.87451919  0.50003592  0.34134727  1
  O2-  O253  1  0.87501039  0.49743984  0.84725784  1
  O2-  O254  1  0.87540723  0.74856487  0.34885383  1
  O2-  O255  1  0.87541884  0.75180992  0.85032346  1
  O2-  O256  1  -0.00294580  0.12505265  0.35137285  1
  O2-  O257  1  -0.00042833  0.12528172  0.84849007  1
  O2-  O258  1  -0.00024320  0.37622440  0.34386418  1
  O2-  O259  1  0.00052037  0.37501886  0.84466248  1
  O2-  O260  1  0.00139452  0.62464481  0.34627816  1
  O2-  O261  1  0.00338843  0.62499188  0.84804023  1
  O2-  O262  1  0.00053218  0.87365502  0.34832485  1
  O2-  O263  1  0.00092346  0.87470813  0.84843890  1
  O2-  O264  1  0.24957944  0.12531031  0.34893067  1
  O2-  O265  1  0.25099915  0.12542613  0.84545583  1
  O2-  O266  1  0.25005777  0.37644198  0.34314936  1
  O2-  O267  1  0.24927315  0.37594906  0.84728718  1
  O2-  O268  1  0.24891064  0.62517968  0.34536346  1
  O2-  O269  1  0.24886688  0.62473723  0.84623766  1
  O2-  O270  1  0.25152028  0.87337121  0.34790620  1
  O2-  O271  1  0.24801983  0.87441831  0.84269741  1
  O2-  O272  1  0.50270431  0.12522999  0.34600717  1
  O2-  O273  1  0.49809662  0.12477851  0.84803485  1
  O2-  O274  1  0.50179665  0.37693937  0.34894025  1
  O2-  O275  1  0.49860051  0.37561972  0.84805908  1
  O2-  O276  1  0.50101939  0.62455241  0.34820045  1
  O2-  O277  1  0.50064213  0.62542700  0.84761390  1
  O2-  O278  1  0.49923101  0.87360422  0.34799164  1
  O2-  O279  1  0.50035255  0.87452541  0.84822600  1
  O2-  O280  1  0.75061503  0.12574362  0.35193695  1
  O2-  O281  1  0.75071816  0.12491628  0.84827889  1
  O2-  O282  1  0.74847316  0.37609836  0.34910217  1
  O2-  O283  1  0.75147652  0.37485051  0.84572321  1
  O2-  O284  1  0.74891702  0.62468112  0.34987153  1
  O2-  O285  1  0.74713625  0.62565999  0.84892325  1
  O2-  O286  1  0.74941276  0.87299875  0.35215306  1
  O2-  O287  1  0.75101513  0.87484258  0.85012236  1
