# generated using pymatgen
data_BaYFeCuO5
_symmetry_space_group_name_H-M   'P 1'
_cell_length_a   15.68442081
_cell_length_b   15.68318610
_cell_length_c   15.51974924
_cell_angle_alpha   90.01056665
_cell_angle_beta   89.99838846
_cell_angle_gamma   89.99774797
_symmetry_Int_Tables_number   1
_chemical_formula_structural   BaYFeCuO5
_chemical_formula_sum   'Ba32 Y32 Fe32 Cu32 O160'
_cell_volume   3817.57408264
_cell_formula_units_Z   32
loop_
 _symmetry_equiv_pos_site_id
 _symmetry_equiv_pos_as_xyz
  1  'x, y, z'
loop_
 _atom_type_symbol
 _atom_type_oxidation_number
  Ba2+  2.0
  Y3+  3.0
  Fe3+  3.0
  Cu2+  2.0
  O2-  -2.0
loop_
 _atom_site_type_symbol
 _atom_site_label
 _atom_site_symmetry_multiplicity
 _atom_site_fract_x
 _atom_site_fract_y
 _atom_site_fract_z
 _atom_site_occupancy
  Ba2+  Ba0  1  0.00279450  0.01226544  0.01087444  1
  Ba2+  Ba1  1  0.00425078  -0.00469429  0.51200556  1
  Ba2+  Ba2  1  0.00371696  0.25095382  0.01345337  1
  Ba2+  Ba3  1  0.01036855  0.24994651  0.51141836  1
  Ba2+  Ba4  1  0.00005759  0.49917167  0.01515415  1
  Ba2+  Ba5  1  0.00319758  0.49807859  0.50301732  1
  Ba2+  Ba6  1  -0.00044933  0.73774250  0.01214117  1
  Ba2+  Ba7  1  -0.00458991  0.75445974  0.50049899  1
  Ba2+  Ba8  1  0.25438455  0.00551346  0.01114383  1
  Ba2+  Ba9  1  0.25338905  0.00206644  0.51982102  1
  Ba2+  Ba10  1  0.24752071  0.24937655  0.01213153  1
  Ba2+  Ba11  1  0.25269790  0.25273376  0.51518782  1
  Ba2+  Ba12  1  0.24726170  0.49919107  0.02211782  1
  Ba2+  Ba13  1  0.25508056  0.49207863  0.50982787  1
  Ba2+  Ba14  1  0.25532500  0.74699977  0.01682332  1
  Ba2+  Ba15  1  0.25689037  0.75523501  0.51171882  1
  Ba2+  Ba16  1  0.49884960  0.00183290  0.00563731  1
  Ba2+  Ba17  1  0.49948977  0.00009321  0.52957001  1
  Ba2+  Ba18  1  0.50151514  0.24788120  0.01150140  1
  Ba2+  Ba19  1  0.49656995  0.24990757  0.52117005  1
  Ba2+  Ba20  1  0.49477736  0.49467487  0.01109231  1
  Ba2+  Ba21  1  0.49689176  0.49718972  0.51192820  1
  Ba2+  Ba22  1  0.49306011  0.75517530  0.00636708  1
  Ba2+  Ba23  1  0.50007973  0.75233706  0.52075242  1
  Ba2+  Ba24  1  0.74377908  0.00776628  0.00618350  1
  Ba2+  Ba25  1  0.74382414  -0.00624430  0.52506653  1
  Ba2+  Ba26  1  0.74763064  0.24921528  0.01309171  1
  Ba2+  Ba27  1  0.73933576  0.24842366  0.51716701  1
  Ba2+  Ba28  1  0.75738311  0.49577972  0.00553872  1
  Ba2+  Ba29  1  0.74430116  0.50628854  0.49960214  1
  Ba2+  Ba30  1  0.75273697  0.74627625  0.00266095  1
  Ba2+  Ba31  1  0.74722878  0.75140242  0.50500666  1
  Y3+  Y32  1  0.00165335  0.00184704  0.25514997  1
  Y3+  Y33  1  0.00184660  0.00155243  0.75890425  1
  Y3+  Y34  1  0.00289410  0.24924585  0.25890467  1
  Y3+  Y35  1  0.00370073  0.25026511  0.75572412  1
  Y3+  Y36  1  0.00071577  0.50107076  0.26021504  1
  Y3+  Y37  1  -0.00045364  0.49890029  0.75649859  1
  Y3+  Y38  1  -0.00082992  0.74821022  0.25653850  1
  Y3+  Y39  1  -0.00124485  0.74929809  0.75937898  1
  Y3+  Y40  1  0.25073950  0.00107393  0.25239170  1
  Y3+  Y41  1  0.25101035  0.00188844  0.76108911  1
  Y3+  Y42  1  0.24913881  0.25045991  0.25996964  1
  Y3+  Y43  1  0.24972155  0.25044495  0.75408512  1
  Y3+  Y44  1  0.24980091  0.49789334  0.26307199  1
  Y3+  Y45  1  0.25156938  0.49662282  0.75160622  1
  Y3+  Y46  1  0.25133698  0.75067711  0.25538035  1
  Y3+  Y47  1  0.25295188  0.75123527  0.75864130  1
  Y3+  Y48  1  0.49853375  0.00159974  0.24818363  1
  Y3+  Y49  1  0.50056146  -0.00062242  0.76417505  1
  Y3+  Y50  1  0.49975262  0.24919304  0.25529178  1
  Y3+  Y51  1  0.49939161  0.25030510  0.75717280  1
  Y3+  Y52  1  0.49922381  0.49876140  0.25847930  1
  Y3+  Y53  1  0.49764221  0.49772774  0.75516926  1
  Y3+  Y54  1  0.49820356  0.75019211  0.25267268  1
  Y3+  Y55  1  0.49859690  0.75242622  0.76209806  1
  Y3+  Y56  1  0.74867889  0.00236890  0.25198386  1
  Y3+  Y57  1  0.74707317  -0.00081708  0.76173388  1
  Y3+  Y58  1  0.74788238  0.24842669  0.25530911  1
  Y3+  Y59  1  0.74768214  0.24985177  0.75836405  1
  Y3+  Y60  1  0.74994486  0.50200334  0.25692359  1
  Y3+  Y61  1  0.75168892  0.49987673  0.75916381  1
  Y3+  Y62  1  0.75061716  0.74702231  0.25572210  1
  Y3+  Y63  1  0.75035765  0.75090082  0.76073048  1
  Fe3+  Fe64  1  0.12556852  0.87493855  0.88185710  1
  Fe3+  Fe65  1  0.62409071  0.62368218  0.88051560  1
  Fe3+  Fe66  1  0.87344560  0.12399512  0.38110262  1
  Fe3+  Fe67  1  0.37319998  0.62219813  0.87613297  1
  Fe3+  Fe68  1  0.62342132  0.12235591  0.37618591  1
  Fe3+  Fe69  1  0.37444481  0.12768370  0.87593924  1
  Fe3+  Fe70  1  0.37686083  0.62615568  0.37684052  1
  Fe3+  Fe71  1  0.87380020  0.37362292  0.38090582  1
  Fe3+  Fe72  1  0.12605558  0.37555411  0.87470520  1
  Fe3+  Fe73  1  0.87556631  0.12769248  0.87516057  1
  Fe3+  Fe74  1  0.87327051  0.87725645  0.37398297  1
  Fe3+  Fe75  1  0.62284935  0.87619268  0.37359154  1
  Fe3+  Fe76  1  0.12669774  0.12281221  0.37698128  1
  Fe3+  Fe77  1  0.62375680  0.37402897  0.37639276  1
  Fe3+  Fe78  1  0.62434522  0.37517808  0.87654404  1
  Fe3+  Fe79  1  0.12664266  0.62713893  0.37984872  1
  Fe3+  Fe80  1  0.12630902  0.62331940  0.87508265  1
  Fe3+  Fe81  1  0.87659591  0.87596288  0.88086109  1
  Fe3+  Fe82  1  0.37661910  0.12396315  0.37596773  1
  Fe3+  Fe83  1  0.37637365  0.87753810  0.37386075  1
  Fe3+  Fe84  1  0.12614930  0.62592052  0.63333885  1
  Fe3+  Fe85  1  0.62409408  0.62345450  0.13384387  1
  Fe3+  Fe86  1  0.87390108  0.37516724  0.63371894  1
  Fe3+  Fe87  1  0.87495697  0.12385587  0.63458606  1
  Fe3+  Fe88  1  0.87483600  0.62629030  0.63737973  1
  Fe3+  Fe89  1  0.87522323  0.87578500  0.13304960  1
  Fe3+  Fe90  1  0.12520736  0.87383794  0.63993778  1
  Fe3+  Fe91  1  0.87534831  0.37422679  0.14182677  1
  Fe3+  Fe92  1  0.37429008  0.37415297  0.13987927  1
  Fe3+  Fe93  1  0.62549424  0.87426314  0.13301108  1
  Fe3+  Fe94  1  0.62480830  0.62524026  0.64095524  1
  Fe3+  Fe95  1  0.12451587  0.87474606  0.13426019  1
  Cu2+  Cu96  1  0.37618493  0.37299164  0.37256080  1
  Cu2+  Cu97  1  0.12611666  0.87565880  0.35996301  1
  Cu2+  Cu98  1  0.37322903  0.87539288  0.87390323  1
  Cu2+  Cu99  1  0.62533831  0.87428898  0.87043478  1
  Cu2+  Cu100  1  0.87465736  0.62544352  0.36490976  1
  Cu2+  Cu101  1  0.37382491  0.37498138  0.86161479  1
  Cu2+  Cu102  1  0.62320031  0.62641585  0.36000336  1
  Cu2+  Cu103  1  0.87650851  0.62320935  0.87370195  1
  Cu2+  Cu104  1  0.12552838  0.37411628  0.37441826  1
  Cu2+  Cu105  1  0.87628604  0.37390850  0.85993313  1
  Cu2+  Cu106  1  0.62447960  0.12664750  0.87150175  1
  Cu2+  Cu107  1  0.12557726  0.12645078  0.87159451  1
  Cu2+  Cu108  1  0.12429609  0.37557564  0.64021393  1
  Cu2+  Cu109  1  0.12536860  0.12398201  0.65126537  1
  Cu2+  Cu110  1  0.37447041  0.87550246  0.13829363  1
  Cu2+  Cu111  1  0.12492219  0.37549436  0.15761346  1
  Cu2+  Cu112  1  0.37532828  0.12449539  0.65561011  1
  Cu2+  Cu113  1  0.37513754  0.62336620  0.15211275  1
  Cu2+  Cu114  1  0.37530828  0.62561087  0.65071853  1
  Cu2+  Cu115  1  0.12549652  0.62466179  0.15637430  1
  Cu2+  Cu116  1  0.87558796  0.12587361  0.15201321  1
  Cu2+  Cu117  1  0.62486936  0.87359166  0.65993642  1
  Cu2+  Cu118  1  0.62497900  0.12438481  0.65604829  1
  Cu2+  Cu119  1  0.62430310  0.12579463  0.13899492  1
  Cu2+  Cu120  1  0.87458074  0.62365501  0.14243741  1
  Cu2+  Cu121  1  0.87518890  0.87469683  0.65605200  1
  Cu2+  Cu122  1  0.62492999  0.37574441  0.15109861  1
  Cu2+  Cu123  1  0.37509138  0.87571419  0.65797442  1
  Cu2+  Cu124  1  0.37583884  0.37440349  0.64192815  1
  Cu2+  Cu125  1  0.62606697  0.37626561  0.65172600  1
  Cu2+  Cu126  1  0.37430617  0.12670458  0.14828948  1
  Cu2+  Cu127  1  0.12582362  0.12623821  0.14123953  1
  O2-  O128  1  0.12489289  0.12714214  0.00684387  1
  O2-  O129  1  0.12638839  0.12050066  0.49706663  1
  O2-  O130  1  0.12480449  0.37710910  -0.00530099  1
  O2-  O131  1  0.12462999  0.37511778  0.50690899  1
  O2-  O132  1  0.12604111  0.62146726  -0.00511882  1
  O2-  O133  1  0.12613517  0.62934025  0.50665541  1
  O2-  O134  1  0.12403817  0.87383674  0.00775173  1
  O2-  O135  1  0.12502244  0.87338373  0.51983392  1
  O2-  O136  1  0.37412411  0.12877795  -0.00330725  1
  O2-  O137  1  0.37738492  0.12136825  0.49567230  1
  O2-  O138  1  0.37202408  0.37565358  0.01965050  1
  O2-  O139  1  0.37772082  0.37326743  0.50772475  1
  O2-  O140  1  0.37138791  0.62084534  -0.00389383  1
  O2-  O141  1  0.37894948  0.62909011  0.49656831  1
  O2-  O142  1  0.37251084  0.87444801  0.00621237  1
  O2-  O143  1  0.37786811  0.87776501  0.49379675  1
  O2-  O144  1  0.62486326  0.12724102  0.00559237  1
  O2-  O145  1  0.62391590  0.12038309  0.49555233  1
  O2-  O146  1  0.62539046  0.37586328  -0.00358632  1
  O2-  O147  1  0.62429058  0.37429520  0.49652801  1
  O2-  O148  1  0.62472630  0.62257223  0.00714990  1
  O2-  O149  1  0.62499840  0.62825270  0.52080747  1
  O2-  O150  1  0.62723917  0.87266847  0.01335045  1
  O2-  O151  1  0.62261834  0.87651316  0.49348726  1
  O2-  O152  1  0.87600901  0.12953011  -0.00458106  1
  O2-  O153  1  0.87321905  0.12091260  0.50618234  1
  O2-  O154  1  0.87702572  0.37375892  0.02132929  1
  O2-  O155  1  0.87209887  0.37534392  0.50741859  1
  O2-  O156  1  0.87662138  0.62218603  0.00835500  1
  O2-  O157  1  0.87205962  0.62844866  0.51773449  1
  O2-  O158  1  0.87671485  0.87596201  0.00682463  1
  O2-  O159  1  0.87247167  0.87708766  0.49397922  1
  O2-  O160  1  0.12403537  -0.00250862  0.15995625  1
  O2-  O161  1  0.12483225  -0.00109285  0.66934572  1
  O2-  O162  1  0.12473837  0.25152222  0.16641138  1
  O2-  O163  1  0.12422773  0.24820933  0.66144830  1
  O2-  O164  1  0.12447374  0.50057257  0.16984670  1
  O2-  O165  1  0.12431971  0.50401677  0.65932118  1
  O2-  O166  1  0.12409474  0.75079491  0.16265260  1
  O2-  O167  1  0.12555343  0.74860413  0.66974793  1
  O2-  O168  1  0.37429410  0.00299662  0.15783938  1
  O2-  O169  1  0.37496494  0.00019078  0.66809456  1
  O2-  O170  1  0.37398668  0.25051651  0.16703636  1
  O2-  O171  1  0.37577073  0.24789258  0.66382205  1
  O2-  O172  1  0.37461065  0.49858893  0.17001637  1
  O2-  O173  1  0.37573513  0.50117388  0.66207619  1
  O2-  O174  1  0.37420892  0.74763173  0.16204336  1
  O2-  O175  1  0.37520534  0.75108949  0.66669382  1
  O2-  O176  1  0.62566805  -0.00159380  0.15935061  1
  O2-  O177  1  0.62583399  -0.00181771  0.66816265  1
  O2-  O178  1  0.62557231  0.25145192  0.16436679  1
  O2-  O179  1  0.62598940  0.25039840  0.66122011  1
  O2-  O180  1  0.62434180  0.50156155  0.16611542  1
  O2-  O181  1  0.62603061  0.50118639  0.66648730  1
  O2-  O182  1  0.62552252  0.74838845  0.16285594  1
  O2-  O183  1  0.62489553  0.74955637  0.67149203  1
  O2-  O184  1  0.87607863  -0.00065183  0.15943238  1
  O2-  O185  1  0.87480157  0.00078675  0.66473587  1
  O2-  O186  1  0.87538299  0.25050999  0.17156272  1
  O2-  O187  1  0.87404257  0.24917882  0.65598581  1
  O2-  O188  1  0.87561995  0.49756888  0.17193334  1
  O2-  O189  1  0.87469702  0.50012559  0.66400912  1
  O2-  O190  1  0.87540836  0.75297665  0.16185808  1
  O2-  O191  1  0.87522946  0.74977731  0.67097087  1
  O2-  O192  1  -0.00077723  0.12592087  0.16847562  1
  O2-  O193  1  -0.00188662  0.12379516  0.66160142  1
  O2-  O194  1  0.00082887  0.37513067  0.17053519  1
  O2-  O195  1  -0.00406574  0.37483795  0.66169500  1
  O2-  O196  1  0.00129081  0.62458118  0.16876740  1
  O2-  O197  1  0.00081273  0.62657462  0.66303215  1
  O2-  O198  1  -0.00017348  0.87477410  0.16392173  1
  O2-  O199  1  0.00075916  0.87490985  0.66851969  1
  O2-  O200  1  0.25150111  0.12565239  0.16401202  1
  O2-  O201  1  0.25029175  0.12388335  0.66366866  1
  O2-  O202  1  0.24919119  0.37609564  0.16871810  1
  O2-  O203  1  0.24965387  0.37474155  0.66181938  1
  O2-  O204  1  0.25013501  0.62424187  0.16667749  1
  O2-  O205  1  0.24966581  0.62625377  0.65839476  1
  O2-  O206  1  0.24700433  0.87424988  0.16251338  1
  O2-  O207  1  0.24997950  0.87522105  0.66671578  1
  O2-  O208  1  0.49770719  0.12628260  0.15974891  1
  O2-  O209  1  0.50101964  0.12436537  0.66669972  1
  O2-  O210  1  0.49991279  0.37494227  0.16282499  1
  O2-  O211  1  0.50234833  0.37533289  0.66609794  1
  O2-  O212  1  0.50106584  0.62437829  0.15873248  1
  O2-  O213  1  0.49999106  0.62577037  0.66925427  1
  O2-  O214  1  0.50147416  0.87429934  0.15923825  1
  O2-  O215  1  0.49948135  0.87444934  0.66821358  1
  O2-  O216  1  0.75141273  0.12579500  0.16458525  1
  O2-  O217  1  0.75114200  0.12404713  0.66390925  1
  O2-  O218  1  0.74964234  0.37513660  0.16681615  1
  O2-  O219  1  0.75228248  0.37509867  0.66563279  1
  O2-  O220  1  0.74660395  0.62414966  0.16437675  1
  O2-  O221  1  0.75060668  0.62606526  0.67262661  1
  O2-  O222  1  0.75152999  0.87537666  0.16251914  1
  O2-  O223  1  0.75037809  0.87402806  0.66820132  1
  O2-  O224  1  0.12457755  0.00035864  0.34175830  1
  O2-  O225  1  0.12392073  -0.00209288  0.85273525  1
  O2-  O226  1  0.12402585  0.24638161  0.34859520  1
  O2-  O227  1  0.12498281  0.25227255  0.84412780  1
  O2-  O228  1  0.12501288  0.50382342  0.35396495  1
  O2-  O229  1  0.12509534  0.49935574  0.83976291  1
  O2-  O230  1  0.12449405  0.74945678  0.34748989  1
  O2-  O231  1  0.12436871  0.75055891  0.85093715  1
  O2-  O232  1  0.37515411  0.00023454  0.33788855  1
  O2-  O233  1  0.37458953  0.00218775  0.85078159  1
  O2-  O234  1  0.37567258  0.24730529  0.34726535  1
  O2-  O235  1  0.37473672  0.25113478  0.84574829  1
  O2-  O236  1  0.37524745  0.50130829  0.35173614  1
  O2-  O237  1  0.37445822  0.49958861  0.84378158  1
  O2-  O238  1  0.37520259  0.75139553  0.34318017  1
  O2-  O239  1  0.37414035  0.74738135  0.84971994  1
  O2-  O240  1  0.62547735  0.00010763  0.33785229  1
  O2-  O241  1  0.62555651  -0.00085489  0.85223088  1
  O2-  O242  1  0.62580571  0.24823611  0.34588434  1
  O2-  O243  1  0.62520718  0.25283918  0.84412809  1
  O2-  O244  1  0.62569916  0.50050968  0.34987447  1
  O2-  O245  1  0.62516021  0.50078333  0.84735379  1
  O2-  O246  1  0.62543274  0.75100952  0.34448556  1
  O2-  O247  1  0.62553880  0.74720432  0.85382463  1
  O2-  O248  1  0.87453520  0.00185707  0.34183859  1
  O2-  O249  1  0.87588499  -0.00056023  0.84930315  1
  O2-  O250  1  0.87420384  0.24829461  0.35439792  1
  O2-  O251  1  0.87519891  0.25004528  0.83982689  1
  O2-  O252  1  0.87399719  0.49896596  0.35519185  1
  O2-  O253  1  0.87592844  0.49763465  0.84665677  1
  O2-  O254  1  0.87474870  0.75123079  0.34544783  1
  O2-  O255  1  0.87611155  0.75268831  0.85371655  1
  O2-  O256  1  -0.00176333  0.12341137  0.35152209  1
  O2-  O257  1  -0.00117799  0.12565428  0.84438818  1
  O2-  O258  1  -0.00378647  0.37466282  0.35361359  1
  O2-  O259  1  0.00082101  0.37486294  0.84408746  1
  O2-  O260  1  0.00191546  0.62660379  0.35344642  1
  O2-  O261  1  0.00261263  0.62446527  0.84425844  1
  O2-  O262  1  -0.00089135  0.87554556  0.34795094  1
  O2-  O263  1  0.00045142  0.87525088  0.85072012  1
  O2-  O264  1  0.25075074  0.12363941  0.34519863  1
  O2-  O265  1  0.25138122  0.12598093  0.84640406  1
  O2-  O266  1  0.25025511  0.37429820  0.35113472  1
  O2-  O267  1  0.24980660  0.37523365  0.84376204  1
  O2-  O268  1  0.24999613  0.62686798  0.34981560  1
  O2-  O269  1  0.24948695  0.62442426  0.84001477  1
  O2-  O270  1  0.25121616  0.87502539  0.34522835  1
  O2-  O271  1  0.24628683  0.87481847  0.84900831  1
  O2-  O272  1  0.50066865  0.12397459  0.34019130  1
  O2-  O273  1  0.49823391  0.12598593  0.84920292  1
  O2-  O274  1  0.50236853  0.37488953  0.34357249  1
  O2-  O275  1  0.49915779  0.37605779  0.84931379  1
  O2-  O276  1  0.49900159  0.62564354  0.34090415  1
  O2-  O277  1  0.50039525  0.62429840  0.85164873  1
  O2-  O278  1  0.49991192  0.87513211  0.33781433  1
  O2-  O279  1  0.50039484  0.87436141  0.85267831  1
  O2-  O280  1  0.75039806  0.12426359  0.34690657  1
  O2-  O281  1  0.75159754  0.12526573  0.84681005  1
  O2-  O282  1  0.75061031  0.37492584  0.34840670  1
  O2-  O283  1  0.75053765  0.37554698  0.84883810  1
  O2-  O284  1  0.74899907  0.62604331  0.34869441  1
  O2-  O285  1  0.74768625  0.62383040  0.85417199  1
  O2-  O286  1  0.74910389  0.87479586  0.34248737  1
  O2-  O287  1  0.75294967  0.87498938  0.85257301  1
