# generated using pymatgen
data_BaYFeCuO5
_symmetry_space_group_name_H-M   'P 1'
_cell_length_a   15.66079205
_cell_length_b   15.66134880
_cell_length_c   15.45922055
_cell_angle_alpha   90.00512438
_cell_angle_beta   90.00343517
_cell_angle_gamma   90.00134809
_symmetry_Int_Tables_number   1
_chemical_formula_structural   BaYFeCuO5
_chemical_formula_sum   'Ba32 Y32 Fe32 Cu32 O160'
_cell_volume   3791.66950172
_cell_formula_units_Z   32
loop_
 _symmetry_equiv_pos_site_id
 _symmetry_equiv_pos_as_xyz
  1  'x, y, z'
loop_
 _atom_type_symbol
 _atom_type_oxidation_number
  Ba2+  2.0
  Y3+  3.0
  Fe3+  3.0
  Cu2+  2.0
  O2-  -2.0
loop_
 _atom_site_type_symbol
 _atom_site_label
 _atom_site_symmetry_multiplicity
 _atom_site_fract_x
 _atom_site_fract_y
 _atom_site_fract_z
 _atom_site_occupancy
  Ba2+  Ba0  1  0.01335492  -0.00029940  0.00685540  1
  Ba2+  Ba1  1  0.01093308  -0.00190349  0.51091929  1
  Ba2+  Ba2  1  0.00943856  0.25417179  0.01091140  1
  Ba2+  Ba3  1  0.00201534  0.25756837  0.51624988  1
  Ba2+  Ba4  1  0.00886734  0.49694978  0.01202621  1
  Ba2+  Ba5  1  -0.00006198  0.50014074  0.51713051  1
  Ba2+  Ba6  1  0.01314581  0.74925588  0.00715977  1
  Ba2+  Ba7  1  0.00793878  0.74507307  0.51058908  1
  Ba2+  Ba8  1  0.24821258  0.00092999  0.01168334  1
  Ba2+  Ba9  1  0.24550675  0.00155089  0.51761348  1
  Ba2+  Ba10  1  0.24432879  0.24420953  0.00612492  1
  Ba2+  Ba11  1  0.24591346  0.24588731  0.52363505  1
  Ba2+  Ba12  1  0.24466357  0.50677385  0.00645990  1
  Ba2+  Ba13  1  0.24380247  0.50521632  0.51602284  1
  Ba2+  Ba14  1  0.24895364  0.74854048  0.01326423  1
  Ba2+  Ba15  1  0.24229072  0.74686520  0.51092316  1
  Ba2+  Ba16  1  0.49111828  -0.00360402  0.01565510  1
  Ba2+  Ba17  1  0.50187318  0.00435993  0.52187794  1
  Ba2+  Ba18  1  0.49529051  0.24752041  0.00237499  1
  Ba2+  Ba19  1  0.50382782  0.24605496  0.52418291  1
  Ba2+  Ba20  1  0.49994885  0.50763317  -0.00355642  1
  Ba2+  Ba21  1  0.50425760  0.50273083  0.51143649  1
  Ba2+  Ba22  1  0.49403079  0.74824598  0.01309252  1
  Ba2+  Ba23  1  0.50252810  0.74653783  0.51138987  1
  Ba2+  Ba24  1  0.74537617  -0.00514832  0.01166976  1
  Ba2+  Ba25  1  0.74113022  0.00070002  0.51792931  1
  Ba2+  Ba26  1  0.75058562  0.25898967  0.00729808  1
  Ba2+  Ba27  1  0.74931545  0.25746750  0.51731573  1
  Ba2+  Ba28  1  0.74618978  0.49814601  0.00075141  1
  Ba2+  Ba29  1  0.75421543  0.49657449  0.51131459  1
  Ba2+  Ba30  1  0.74077872  0.74827852  0.00720344  1
  Ba2+  Ba31  1  0.74690538  0.74445314  0.51002414  1
  Y3+  Y32  1  0.00432602  -0.00100605  0.25611852  1
  Y3+  Y33  1  0.00492573  -0.00124534  0.75838020  1
  Y3+  Y34  1  0.00067172  0.25328827  0.25428264  1
  Y3+  Y35  1  0.00306518  0.25200844  0.75879459  1
  Y3+  Y36  1  0.00180134  0.49862826  0.25754457  1
  Y3+  Y37  1  0.00286756  0.50057150  0.75744000  1
  Y3+  Y38  1  0.00571841  0.74960432  0.25872799  1
  Y3+  Y39  1  0.00469848  0.74875584  0.75653568  1
  Y3+  Y40  1  0.24854024  -0.00108447  0.25386530  1
  Y3+  Y41  1  0.24753229  0.00120462  0.75992015  1
  Y3+  Y42  1  0.24881841  0.24907886  0.25073029  1
  Y3+  Y43  1  0.24809373  0.24816755  0.76207257  1
  Y3+  Y44  1  0.24753556  0.50229248  0.25446537  1
  Y3+  Y45  1  0.24750199  0.50315481  0.76005063  1
  Y3+  Y46  1  0.24744289  0.74945985  0.25674982  1
  Y3+  Y47  1  0.24703893  0.74759380  0.75822394  1
  Y3+  Y48  1  0.49673383  -0.00082563  0.25367141  1
  Y3+  Y49  1  0.49793316  0.00161701  0.75761065  1
  Y3+  Y50  1  0.49685751  0.24910755  0.25358151  1
  Y3+  Y51  1  0.49903127  0.24974865  0.76009835  1
  Y3+  Y52  1  0.49797273  0.50180185  0.25742197  1
  Y3+  Y53  1  0.49910147  0.50162215  0.75938573  1
  Y3+  Y54  1  0.49759885  0.74956481  0.25621619  1
  Y3+  Y55  1  0.49784818  0.74740309  0.75779038  1
  Y3+  Y56  1  0.75048690  -0.00065975  0.25597956  1
  Y3+  Y57  1  0.74975613  -0.00055880  0.75706030  1
  Y3+  Y58  1  0.75343619  0.25298921  0.25733508  1
  Y3+  Y59  1  0.75010636  0.25286839  0.75680308  1
  Y3+  Y60  1  0.75266210  0.49827886  0.25931424  1
  Y3+  Y61  1  0.75105964  0.49880210  0.75628880  1
  Y3+  Y62  1  0.74959488  0.74936145  0.25753597  1
  Y3+  Y63  1  0.75052886  0.74903441  0.75705796  1
  Fe3+  Fe64  1  0.62308896  0.87454767  0.87564309  1
  Fe3+  Fe65  1  0.62372022  0.87565371  0.37583448  1
  Fe3+  Fe66  1  0.37340935  0.37583323  0.87843702  1
  Fe3+  Fe67  1  0.12581427  0.12634039  0.37529361  1
  Fe3+  Fe68  1  0.62542785  0.12463589  0.87879064  1
  Fe3+  Fe69  1  0.87659764  0.37560000  0.87734299  1
  Fe3+  Fe70  1  0.87587582  0.87550918  0.38000824  1
  Fe3+  Fe71  1  0.37426026  0.62464283  0.37859443  1
  Fe3+  Fe72  1  0.37447479  0.12561297  0.37725087  1
  Fe3+  Fe73  1  0.62365557  0.37420155  0.37682291  1
  Fe3+  Fe74  1  0.87608155  0.62552208  0.88024199  1
  Fe3+  Fe75  1  0.37321926  0.87448666  0.87480800  1
  Fe3+  Fe76  1  0.37379828  0.87594371  0.38026833  1
  Fe3+  Fe77  1  0.12638060  0.37483078  0.37677392  1
  Fe3+  Fe78  1  0.87608252  0.62456600  0.37701564  1
  Fe3+  Fe79  1  0.87585701  0.12483088  0.87986046  1
  Fe3+  Fe80  1  0.87624385  0.87449033  0.87979911  1
  Fe3+  Fe81  1  0.62450516  0.12585412  0.37362144  1
  Fe3+  Fe82  1  0.37368301  0.37364383  0.38101401  1
  Fe3+  Fe83  1  0.87568120  0.12543134  0.38031953  1
  Fe3+  Fe84  1  0.87603614  0.12512495  0.13308343  1
  Fe3+  Fe85  1  0.62548187  0.62417342  0.64052528  1
  Fe3+  Fe86  1  0.87587749  0.62459266  0.13418092  1
  Fe3+  Fe87  1  0.62504998  0.12528068  0.13307207  1
  Fe3+  Fe88  1  0.87635232  0.12482979  0.63549659  1
  Fe3+  Fe89  1  0.62486129  0.62413069  0.13949923  1
  Fe3+  Fe90  1  0.37412436  0.37677484  0.13289610  1
  Fe3+  Fe91  1  0.87589727  0.87401170  0.63464683  1
  Fe3+  Fe92  1  0.37415038  0.37584347  0.63674148  1
  Fe3+  Fe93  1  0.37426381  0.87403819  0.63501169  1
  Fe3+  Fe94  1  0.87618710  0.87348539  0.13392960  1
  Fe3+  Fe95  1  0.62378440  0.37615322  0.13609023  1
  Cu2+  Cu96  1  0.12416190  0.12478167  0.87091290  1
  Cu2+  Cu97  1  0.62494885  0.62450347  0.36298328  1
  Cu2+  Cu98  1  0.62472100  0.37517446  0.86386811  1
  Cu2+  Cu99  1  0.12550933  0.37571985  0.87210521  1
  Cu2+  Cu100  1  0.37364974  0.62647875  0.87273036  1
  Cu2+  Cu101  1  0.62582206  0.62580460  0.86208466  1
  Cu2+  Cu102  1  0.12600922  0.87442395  0.87106940  1
  Cu2+  Cu103  1  0.37443173  0.12369752  0.87289393  1
  Cu2+  Cu104  1  0.12516536  0.62378246  0.37122362  1
  Cu2+  Cu105  1  0.12433321  0.62536588  0.87142014  1
  Cu2+  Cu106  1  0.87644244  0.37444937  0.37363586  1
  Cu2+  Cu107  1  0.12629202  0.87549220  0.37308430  1
  Cu2+  Cu108  1  0.87507637  0.37619992  0.14612103  1
  Cu2+  Cu109  1  0.87551817  0.62536994  0.65235159  1
  Cu2+  Cu110  1  0.12401891  0.12524163  0.65455782  1
  Cu2+  Cu111  1  0.37409544  0.12523891  0.13853773  1
  Cu2+  Cu112  1  0.12532092  0.87447232  0.14266916  1
  Cu2+  Cu113  1  0.37416981  0.12522151  0.65359786  1
  Cu2+  Cu114  1  0.12465857  0.62500481  0.14412566  1
  Cu2+  Cu115  1  0.12489815  0.62457993  0.64422556  1
  Cu2+  Cu116  1  0.12618053  0.37564951  0.14201376  1
  Cu2+  Cu117  1  0.37382276  0.87384954  0.15199745  1
  Cu2+  Cu118  1  0.37452726  0.62470486  0.64898286  1
  Cu2+  Cu119  1  0.12625125  0.37528131  0.65402428  1
  Cu2+  Cu120  1  0.12437589  0.12491916  0.14265007  1
  Cu2+  Cu121  1  0.62462922  0.87439759  0.15023579  1
  Cu2+  Cu122  1  0.62397876  0.37581418  0.65491247  1
  Cu2+  Cu123  1  0.12559369  0.87441345  0.64338378  1
  Cu2+  Cu124  1  0.37437467  0.62418904  0.14190282  1
  Cu2+  Cu125  1  0.62619256  0.12560098  0.65759551  1
  Cu2+  Cu126  1  0.87617101  0.37552699  0.64368819  1
  Cu2+  Cu127  1  0.62442590  0.87389177  0.65224381  1
  O2-  O128  1  0.12361144  0.12471481  0.00678308  1
  O2-  O129  1  0.12544994  0.12684842  0.49581900  1
  O2-  O130  1  0.12708676  0.37540915  0.00634275  1
  O2-  O131  1  0.12690317  0.37365320  0.49734141  1
  O2-  O132  1  0.12424502  0.62552194  0.00776392  1
  O2-  O133  1  0.12423238  0.62342950  0.50778203  1
  O2-  O134  1  0.12657971  0.87481276  0.00742101  1
  O2-  O135  1  0.12550653  0.87597054  0.50756627  1
  O2-  O136  1  0.37634294  0.12419494  0.00581879  1
  O2-  O137  1  0.37632694  0.12672897  0.49714281  1
  O2-  O138  1  0.37520863  0.37672349  0.00615077  1
  O2-  O139  1  0.37512353  0.37277075  0.50716202  1
  O2-  O140  1  0.37556694  0.62558727  0.00687590  1
  O2-  O141  1  0.37625289  0.62389059  0.49906932  1
  O2-  O142  1  0.37440251  0.87394477  -0.00426399  1
  O2-  O143  1  0.37604737  0.87632351  0.50616001  1
  O2-  O144  1  0.62578627  0.12420711  0.00568463  1
  O2-  O145  1  0.62489606  0.12565222  0.49384929  1
  O2-  O146  1  0.62409312  0.37737308  0.01598656  1
  O2-  O147  1  0.62324809  0.37222024  0.49722077  1
  O2-  O148  1  0.62483203  0.62470263  0.01857643  1
  O2-  O149  1  0.62610071  0.62381045  0.51915478  1
  O2-  O150  1  0.62349208  0.87485030  -0.00390212  1
  O2-  O151  1  0.62426079  0.87734213  0.49605288  1
  O2-  O152  1  0.87469510  0.12468425  0.00621013  1
  O2-  O153  1  0.87411144  0.12452027  0.50665215  1
  O2-  O154  1  0.87451881  0.37583896  -0.00190439  1
  O2-  O155  1  0.87513328  0.37398513  0.50829626  1
  O2-  O156  1  0.87466322  0.62567636  0.00704543  1
  O2-  O157  1  0.87402153  0.62521775  0.49775979  1
  O2-  O158  1  0.87489925  0.87424306  0.00659215  1
  O2-  O159  1  0.87396017  0.87585838  0.50702507  1
  O2-  O160  1  0.12437818  -0.00034878  0.16447416  1
  O2-  O161  1  0.12439422  0.00093466  0.66515053  1
  O2-  O162  1  0.12405816  0.25018677  0.16201495  1
  O2-  O163  1  0.12453064  0.24997259  0.66609977  1
  O2-  O164  1  0.12483957  0.50026560  0.16491969  1
  O2-  O165  1  0.12531314  0.49899127  0.66659013  1
  O2-  O166  1  0.12456503  0.74990195  0.16669528  1
  O2-  O167  1  0.12469151  0.74971020  0.66532275  1
  O2-  O168  1  0.37498791  -0.00241234  0.16358803  1
  O2-  O169  1  0.37597227  -0.00049630  0.66165175  1
  O2-  O170  1  0.37625021  0.25348955  0.16114565  1
  O2-  O171  1  0.37548667  0.25109636  0.66600156  1
  O2-  O172  1  0.37547311  0.49740471  0.16693387  1
  O2-  O173  1  0.37511865  0.49848514  0.66449961  1
  O2-  O174  1  0.37523716  0.75120063  0.16670345  1
  O2-  O175  1  0.37600899  0.75087862  0.66115868  1
  O2-  O176  1  0.62639444  0.00112702  0.15916744  1
  O2-  O177  1  0.62615483  -0.00050810  0.66453904  1
  O2-  O178  1  0.62536937  0.24913272  0.15965173  1
  O2-  O179  1  0.62535847  0.25083243  0.66737149  1
  O2-  O180  1  0.62549517  0.49974511  0.17032116  1
  O2-  O181  1  0.62492086  0.50041186  0.66789370  1
  O2-  O182  1  0.62565879  0.74956143  0.16717250  1
  O2-  O183  1  0.62551273  0.74907836  0.66542213  1
  O2-  O184  1  0.87356595  -0.00038244  0.16174996  1
  O2-  O185  1  0.87374276  -0.00043689  0.66370407  1
  O2-  O186  1  0.87417866  0.24858128  0.16162323  1
  O2-  O187  1  0.87527759  0.24685024  0.66508060  1
  O2-  O188  1  0.87412770  0.50202571  0.16348920  1
  O2-  O189  1  0.87501735  0.50127496  0.66667671  1
  O2-  O190  1  0.87396102  0.74982373  0.16304261  1
  O2-  O191  1  0.87457507  0.75192233  0.66477414  1
  O2-  O192  1  -0.00375034  0.12417457  0.16532517  1
  O2-  O193  1  -0.00156883  0.12367740  0.66347933  1
  O2-  O194  1  -0.00080875  0.37546297  0.16388056  1
  O2-  O195  1  0.00255010  0.37509630  0.66547735  1
  O2-  O196  1  -0.00295527  0.62553515  0.16396973  1
  O2-  O197  1  -0.00103223  0.62523603  0.66649183  1
  O2-  O198  1  -0.00349470  0.87494648  0.16614785  1
  O2-  O199  1  -0.00264295  0.87553206  0.66472068  1
  O2-  O200  1  0.24972004  0.12498456  0.16359984  1
  O2-  O201  1  0.24863825  0.12552262  0.66454822  1
  O2-  O202  1  0.25277363  0.37517579  0.16427987  1
  O2-  O203  1  0.25157986  0.37433955  0.66377021  1
  O2-  O204  1  0.24952136  0.62538813  0.16519471  1
  O2-  O205  1  0.25091746  0.62458270  0.66534177  1
  O2-  O206  1  0.25135201  0.87440923  0.16641342  1
  O2-  O207  1  0.25282822  0.87546538  0.66186201  1
  O2-  O208  1  0.50320524  0.12434484  0.16132304  1
  O2-  O209  1  0.50117717  0.12557658  0.66548789  1
  O2-  O210  1  0.49931975  0.37518661  0.16611760  1
  O2-  O211  1  0.49784025  0.37461683  0.66510266  1
  O2-  O212  1  0.50153963  0.62522512  0.16709340  1
  O2-  O213  1  0.50042462  0.62430934  0.66638271  1
  O2-  O214  1  0.49868862  0.87481767  0.16340833  1
  O2-  O215  1  0.49833668  0.87539115  0.66134045  1
  O2-  O216  1  0.75027260  0.12449743  0.16139802  1
  O2-  O217  1  0.75220118  0.12454128  0.66592957  1
  O2-  O218  1  0.74873577  0.37454667  0.16574403  1
  O2-  O219  1  0.74874750  0.37491264  0.66571300  1
  O2-  O220  1  0.75128809  0.62565430  0.16480279  1
  O2-  O221  1  0.75000802  0.62533071  0.66898477  1
  O2-  O222  1  0.75253812  0.87507952  0.16299248  1
  O2-  O223  1  0.75175275  0.87505512  0.66471558  1
  O2-  O224  1  0.12461979  0.00262355  0.34633597  1
  O2-  O225  1  0.12398219  -0.00030647  0.84880475  1
  O2-  O226  1  0.12535056  0.24981938  0.34201465  1
  O2-  O227  1  0.12441433  0.24973198  0.84991442  1
  O2-  O228  1  0.12563821  0.49785116  0.34646183  1
  O2-  O229  1  0.12444139  0.50097074  0.84989914  1
  O2-  O230  1  0.12533660  0.74970755  0.35039035  1
  O2-  O231  1  0.12425062  0.74987826  0.84837520  1
  O2-  O232  1  0.37572317  -0.00024364  0.34694213  1
  O2-  O233  1  0.37564278  -0.00193716  0.84477739  1
  O2-  O234  1  0.37509424  0.25063496  0.34372139  1
  O2-  O235  1  0.37569675  0.25234345  0.85104563  1
  O2-  O236  1  0.37606922  0.49806858  0.35019197  1
  O2-  O237  1  0.37565253  0.49839538  0.84968256  1
  O2-  O238  1  0.37575489  0.75131402  0.35081999  1
  O2-  O239  1  0.37526190  0.75156206  0.84419925  1
  O2-  O240  1  0.62516157  0.00041005  0.34082755  1
  O2-  O241  1  0.62626972  0.00065452  0.84792368  1
  O2-  O242  1  0.62501005  0.24963297  0.33955386  1
  O2-  O243  1  0.62632875  0.24780902  0.85215790  1
  O2-  O244  1  0.62391761  0.49876970  0.35038578  1
  O2-  O245  1  0.62538775  0.50108971  0.85140220  1
  O2-  O246  1  0.62554134  0.75098325  0.34964684  1
  O2-  O247  1  0.62636216  0.75098020  0.84714509  1
  O2-  O248  1  0.87422620  0.00017697  0.34789951  1
  O2-  O249  1  0.87392713  -0.00054033  0.85039129  1
  O2-  O250  1  0.87467237  0.24632337  0.34698629  1
  O2-  O251  1  0.87391440  0.24895825  0.84969169  1
  O2-  O252  1  0.87502950  0.50120933  0.34694692  1
  O2-  O253  1  0.87422252  0.50146745  0.85052902  1
  O2-  O254  1  0.87413913  0.75200018  0.34801493  1
  O2-  O255  1  0.87379377  0.75068222  0.85083246  1
  O2-  O256  1  -0.00102799  0.12429087  0.34843265  1
  O2-  O257  1  -0.00375817  0.12419131  0.84766065  1
  O2-  O258  1  0.00250830  0.37383998  0.34708527  1
  O2-  O259  1  -0.00152469  0.37470166  0.84769754  1
  O2-  O260  1  -0.00112642  0.62578371  0.34629213  1
  O2-  O261  1  -0.00321439  0.62627534  0.84988028  1
  O2-  O262  1  -0.00249476  0.87590714  0.35037369  1
  O2-  O263  1  -0.00279978  0.87511428  0.84949667  1
  O2-  O264  1  0.25066153  0.12528371  0.34442357  1
  O2-  O265  1  0.24926440  0.12479763  0.84902259  1
  O2-  O266  1  0.25189340  0.37458713  0.34682454  1
  O2-  O267  1  0.25221378  0.37516489  0.84812553  1
  O2-  O268  1  0.25185112  0.62440051  0.34765862  1
  O2-  O269  1  0.24881742  0.62523733  0.84864789  1
  O2-  O270  1  0.25318107  0.87570878  0.34974811  1
  O2-  O271  1  0.25070276  0.87510598  0.84413359  1
  O2-  O272  1  0.49946535  0.12523057  0.34197703  1
  O2-  O273  1  0.50364280  0.12507215  0.84995525  1
  O2-  O274  1  0.49778927  0.37376932  0.34731921  1
  O2-  O275  1  0.49851194  0.37486387  0.85042848  1
  O2-  O276  1  0.49913089  0.62516829  0.34861021  1
  O2-  O277  1  0.50182952  0.62542300  0.84935262  1
  O2-  O278  1  0.49839085  0.87556686  0.34668961  1
  O2-  O279  1  0.50017686  0.87515807  0.84329281  1
  O2-  O280  1  0.75104035  0.12419843  0.34503987  1
  O2-  O281  1  0.75050507  0.12405614  0.85090650  1
  O2-  O282  1  0.74820472  0.37419998  0.34828259  1
  O2-  O283  1  0.75112017  0.37499577  0.84903796  1
  O2-  O284  1  0.75058163  0.62539316  0.34656430  1
  O2-  O285  1  0.75215999  0.62593107  0.85267812  1
  O2-  O286  1  0.75092627  0.87600809  0.34700452  1
  O2-  O287  1  0.75097236  0.87557616  0.84921791  1
