# generated using pymatgen
data_BaYFeCuO5
_symmetry_space_group_name_H-M   'P 1'
_cell_length_a   15.67380150
_cell_length_b   15.67344191
_cell_length_c   15.48900810
_cell_angle_alpha   90.00414502
_cell_angle_beta   89.99404206
_cell_angle_gamma   90.01171561
_symmetry_Int_Tables_number   1
_chemical_formula_structural   BaYFeCuO5
_chemical_formula_sum   'Ba32 Y32 Fe32 Cu32 O160'
_cell_volume   3805.06706161
_cell_formula_units_Z   32
loop_
 _symmetry_equiv_pos_site_id
 _symmetry_equiv_pos_as_xyz
  1  'x, y, z'
loop_
 _atom_type_symbol
 _atom_type_oxidation_number
  Ba2+  2.0
  Y3+  3.0
  Fe3+  3.0
  Cu2+  2.0
  O2-  -2.0
loop_
 _atom_site_type_symbol
 _atom_site_label
 _atom_site_symmetry_multiplicity
 _atom_site_fract_x
 _atom_site_fract_y
 _atom_site_fract_z
 _atom_site_occupancy
  Ba2+  Ba0  1  -0.00314351  -0.00683100  0.01579594  1
  Ba2+  Ba1  1  0.00704682  -0.00781889  0.51609746  1
  Ba2+  Ba2  1  -0.00548245  0.25447599  0.01209889  1
  Ba2+  Ba3  1  0.00869869  0.24930234  0.50597271  1
  Ba2+  Ba4  1  -0.00377390  0.50395454  0.00151983  1
  Ba2+  Ba5  1  0.00368809  0.50682187  0.51290101  1
  Ba2+  Ba6  1  -0.00075322  0.74909858  0.00608530  1
  Ba2+  Ba7  1  0.00289872  0.75265138  0.52387355  1
  Ba2+  Ba8  1  0.25087876  -0.01169751  0.00725959  1
  Ba2+  Ba9  1  0.24699389  -0.00384975  0.51377050  1
  Ba2+  Ba10  1  0.25127530  0.25926219  0.01752362  1
  Ba2+  Ba11  1  0.24713950  0.24329808  0.51346264  1
  Ba2+  Ba12  1  0.25082124  0.50139699  0.01885415  1
  Ba2+  Ba13  1  0.24623332  0.50578970  0.50158911  1
  Ba2+  Ba14  1  0.25045001  0.75292229  0.00690199  1
  Ba2+  Ba15  1  0.24738099  0.75410170  0.49856781  1
  Ba2+  Ba16  1  0.50657355  -0.00606424  0.00586536  1
  Ba2+  Ba17  1  0.49437729  -0.00487670  0.51309155  1
  Ba2+  Ba18  1  0.50972720  0.25360381  0.01056389  1
  Ba2+  Ba19  1  0.49806992  0.24825853  0.51675743  1
  Ba2+  Ba20  1  0.50252856  0.49908677  0.02325651  1
  Ba2+  Ba21  1  0.49832088  0.50203813  0.50692449  1
  Ba2+  Ba22  1  0.50013808  0.75325643  0.01617145  1
  Ba2+  Ba23  1  0.49410156  0.75404919  0.49928586  1
  Ba2+  Ba24  1  0.74574611  -0.00019750  0.01546184  1
  Ba2+  Ba25  1  0.75076612  -0.00983369  0.51755707  1
  Ba2+  Ba26  1  0.74496283  0.25074103  0.00612167  1
  Ba2+  Ba27  1  0.74654289  0.25307766  0.51199545  1
  Ba2+  Ba28  1  0.74986992  0.50033283  0.00514380  1
  Ba2+  Ba29  1  0.75084753  0.50250830  0.51627475  1
  Ba2+  Ba30  1  0.74982810  0.74935508  0.01530657  1
  Ba2+  Ba31  1  0.75509304  0.75436987  0.52266620  1
  Y3+  Y32  1  0.00013335  -0.00276853  0.25458296  1
  Y3+  Y33  1  0.00306775  -0.00347928  0.75754843  1
  Y3+  Y34  1  0.00045745  0.25041599  0.25694499  1
  Y3+  Y35  1  0.00007919  0.24978623  0.75708267  1
  Y3+  Y36  1  0.00035249  0.50054491  0.25626834  1
  Y3+  Y37  1  -0.00112882  0.50480861  0.75961169  1
  Y3+  Y38  1  -0.00006759  0.75211014  0.25283625  1
  Y3+  Y39  1  0.00192095  0.74914060  0.76080970  1
  Y3+  Y40  1  0.24964270  -0.00541944  0.25542265  1
  Y3+  Y41  1  0.24952258  -0.00277131  0.76070648  1
  Y3+  Y42  1  0.24905436  0.25218185  0.25689373  1
  Y3+  Y43  1  0.25093951  0.24743698  0.75720796  1
  Y3+  Y44  1  0.25045469  0.50044792  0.25801509  1
  Y3+  Y45  1  0.24813061  0.50282778  0.75848908  1
  Y3+  Y46  1  0.25124583  0.75266883  0.25475051  1
  Y3+  Y47  1  0.24677853  0.75169492  0.76204690  1
  Y3+  Y48  1  0.50063843  -0.00206178  0.25180999  1
  Y3+  Y49  1  0.50050871  -0.00158358  0.76263383  1
  Y3+  Y50  1  0.50174587  0.25027351  0.25360229  1
  Y3+  Y51  1  0.50274690  0.24927573  0.75968339  1
  Y3+  Y52  1  0.49938709  0.50117941  0.25730247  1
  Y3+  Y53  1  0.50247688  0.49870479  0.75617283  1
  Y3+  Y54  1  0.49811259  0.75079943  0.25370246  1
  Y3+  Y55  1  0.50005912  0.75333052  0.76139910  1
  Y3+  Y56  1  0.74965888  -0.00032431  0.25230196  1
  Y3+  Y57  1  0.74720371  -0.00175369  0.75997059  1
  Y3+  Y58  1  0.74867409  0.24863702  0.25397244  1
  Y3+  Y59  1  0.74711026  0.25204011  0.76024086  1
  Y3+  Y60  1  0.74936876  0.50199125  0.25408391  1
  Y3+  Y61  1  0.75087885  0.49998671  0.75943243  1
  Y3+  Y62  1  0.75017600  0.75007365  0.25151557  1
  Y3+  Y63  1  0.75121064  0.74995002  0.75986498  1
  Fe3+  Fe64  1  0.37533662  0.12538359  0.88074632  1
  Fe3+  Fe65  1  0.37593889  0.62416938  0.87873875  1
  Fe3+  Fe66  1  0.87474812  0.12366424  0.38017207  1
  Fe3+  Fe67  1  0.62402505  0.62511431  0.87718517  1
  Fe3+  Fe68  1  0.87542246  0.87418248  0.37500002  1
  Fe3+  Fe69  1  0.87425039  0.87507154  0.87636167  1
  Fe3+  Fe70  1  0.12481949  0.12509646  0.88065821  1
  Fe3+  Fe71  1  0.62521095  0.37502349  0.37823637  1
  Fe3+  Fe72  1  0.62573411  0.87497567  0.37574460  1
  Fe3+  Fe73  1  0.37516646  0.12354797  0.37546201  1
  Fe3+  Fe74  1  0.87502738  0.12454066  0.87613899  1
  Fe3+  Fe75  1  0.37456008  0.37383391  0.37910434  1
  Fe3+  Fe76  1  0.12538786  0.12294645  0.37393866  1
  Fe3+  Fe77  1  0.62469155  0.12351862  0.37973666  1
  Fe3+  Fe78  1  0.37560447  0.37629825  0.87633972  1
  Fe3+  Fe79  1  0.12517631  0.37550115  0.87706156  1
  Fe3+  Fe80  1  0.62569992  0.62664977  0.37909449  1
  Fe3+  Fe81  1  0.87479609  0.62688422  0.37756850  1
  Fe3+  Fe82  1  0.87514067  0.37559015  0.38072730  1
  Fe3+  Fe83  1  0.12349796  0.62717665  0.37508466  1
  Fe3+  Fe84  1  0.37436116  0.37513616  0.63454913  1
  Fe3+  Fe85  1  0.62461561  0.12342444  0.63585043  1
  Fe3+  Fe86  1  0.87427567  0.37585590  0.13928658  1
  Fe3+  Fe87  1  0.12516085  0.12483149  0.13356318  1
  Fe3+  Fe88  1  0.37531822  0.12472076  0.13329180  1
  Fe3+  Fe89  1  0.12575518  0.37594190  0.63748096  1
  Fe3+  Fe90  1  0.37374150  0.62657098  0.63688353  1
  Fe3+  Fe91  1  0.87574626  0.37486927  0.63565588  1
  Fe3+  Fe92  1  0.37423022  0.87385901  0.64167413  1
  Fe3+  Fe93  1  0.87586657  0.12397766  0.63380549  1
  Fe3+  Fe94  1  0.62378276  0.62679570  0.63489961  1
  Fe3+  Fe95  1  0.12464550  0.62527801  0.13707345  1
  Cu2+  Cu96  1  0.12567903  0.62467984  0.86887200  1
  Cu2+  Cu97  1  0.12471361  0.37528776  0.36488095  1
  Cu2+  Cu98  1  0.37554386  0.87417377  0.87433189  1
  Cu2+  Cu99  1  0.62459797  0.37661884  0.87196848  1
  Cu2+  Cu100  1  0.62555124  0.12468471  0.87277390  1
  Cu2+  Cu101  1  0.12385199  0.87485683  0.87433493  1
  Cu2+  Cu102  1  0.37561348  0.87610448  0.35942563  1
  Cu2+  Cu103  1  0.87544314  0.37478682  0.86075732  1
  Cu2+  Cu104  1  0.62619016  0.87377861  0.87231682  1
  Cu2+  Cu105  1  0.87408082  0.62578764  0.87270718  1
  Cu2+  Cu106  1  0.12374612  0.87462495  0.37044966  1
  Cu2+  Cu107  1  0.37513300  0.62565063  0.36297882  1
  Cu2+  Cu108  1  0.87463141  0.87488232  0.14805663  1
  Cu2+  Cu109  1  0.87532005  0.12534744  0.14964179  1
  Cu2+  Cu110  1  0.37557010  0.37478232  0.15366094  1
  Cu2+  Cu111  1  0.12488539  0.87409098  0.14029275  1
  Cu2+  Cu112  1  0.12513298  0.12453604  0.65456078  1
  Cu2+  Cu113  1  0.62470800  0.62492893  0.15081528  1
  Cu2+  Cu114  1  0.87570487  0.87548202  0.65510928  1
  Cu2+  Cu115  1  0.62488718  0.37539300  0.64849788  1
  Cu2+  Cu116  1  0.87512765  0.62536161  0.65221275  1
  Cu2+  Cu117  1  0.37505297  0.87504704  0.14151025  1
  Cu2+  Cu118  1  0.37515654  0.12378752  0.65377879  1
  Cu2+  Cu119  1  0.62479709  0.12502078  0.14201883  1
  Cu2+  Cu120  1  0.12610920  0.62563903  0.65334266  1
  Cu2+  Cu121  1  0.62376053  0.87423260  0.65198594  1
  Cu2+  Cu122  1  0.37445459  0.62505914  0.15072201  1
  Cu2+  Cu123  1  0.62510501  0.87443355  0.14182293  1
  Cu2+  Cu124  1  0.87555003  0.62437491  0.13973029  1
  Cu2+  Cu125  1  0.12395649  0.37578932  0.15151761  1
  Cu2+  Cu126  1  0.62627194  0.37568035  0.14412439  1
  Cu2+  Cu127  1  0.12689785  0.87398143  0.64598351  1
  O2-  O128  1  0.12425167  0.12679584  0.00648475  1
  O2-  O129  1  0.12585156  0.12329919  0.49458575  1
  O2-  O130  1  0.12527340  0.37477451  -0.00279541  1
  O2-  O131  1  0.12638909  0.37509567  0.51700085  1
  O2-  O132  1  0.12543946  0.62288401  0.01630254  1
  O2-  O133  1  0.12367818  0.62734533  0.49613581  1
  O2-  O134  1  0.12372506  0.87461213  0.00739474  1
  O2-  O135  1  0.12566923  0.87463729  0.50693472  1
  O2-  O136  1  0.37573607  0.12709470  0.00670115  1
  O2-  O137  1  0.37447286  0.12386969  0.49564310  1
  O2-  O138  1  0.37570405  0.37697593  -0.00365155  1
  O2-  O139  1  0.37347831  0.37334875  0.50657262  1
  O2-  O140  1  0.37715240  0.62097362  -0.00113060  1
  O2-  O141  1  0.37348769  0.62717727  0.51682899  1
  O2-  O142  1  0.37600211  0.87453618  0.00804555  1
  O2-  O143  1  0.37378422  0.87471580  0.52081434  1
  O2-  O144  1  0.62542833  0.12591932  0.00635574  1
  O2-  O145  1  0.62413616  0.12346171  0.50607203  1
  O2-  O146  1  0.62579065  0.37679622  0.00680061  1
  O2-  O147  1  0.62438901  0.37377160  0.49809017  1
  O2-  O148  1  0.62333959  0.62356712  -0.00248952  1
  O2-  O149  1  0.62536788  0.62749582  0.50624885  1
  O2-  O150  1  0.62671365  0.87351857  0.00733650  1
  O2-  O151  1  0.62490401  0.87503506  0.49612683  1
  O2-  O152  1  0.87518901  0.12604846  -0.00401457  1
  O2-  O153  1  0.87608132  0.12365391  0.50612826  1
  O2-  O154  1  0.87457193  0.37524802  0.01860021  1
  O2-  O155  1  0.87556678  0.37537970  0.50796486  1
  O2-  O156  1  0.87451641  0.62392947  0.00664610  1
  O2-  O157  1  0.87506239  0.62715443  0.49761214  1
  O2-  O158  1  0.87322764  0.87616115  -0.00316159  1
  O2-  O159  1  0.87597046  0.87446520  0.49530537  1
  O2-  O160  1  0.12523629  0.00256306  0.16126249  1
  O2-  O161  1  0.12559357  0.00101584  0.66724411  1
  O2-  O162  1  0.12442695  0.24891650  0.16320859  1
  O2-  O163  1  0.12582772  0.25066296  0.66538307  1
  O2-  O164  1  0.12573895  0.50046479  0.16820186  1
  O2-  O165  1  0.12431082  0.49950011  0.66513894  1
  O2-  O166  1  0.12486846  0.74847821  0.16468802  1
  O2-  O167  1  0.12551754  0.74857422  0.66864128  1
  O2-  O168  1  0.37396616  0.00329252  0.16221813  1
  O2-  O169  1  0.37541892  -0.00053061  0.66945775  1
  O2-  O170  1  0.37482719  0.24884816  0.16395020  1
  O2-  O171  1  0.37446485  0.25079986  0.66235417  1
  O2-  O172  1  0.37490647  0.49897123  0.16867006  1
  O2-  O173  1  0.37535594  0.49894787  0.66086617  1
  O2-  O174  1  0.37530153  0.74905178  0.16480658  1
  O2-  O175  1  0.37498002  0.74969557  0.67152914  1
  O2-  O176  1  0.62544782  0.00015838  0.16440740  1
  O2-  O177  1  0.62456018  0.00108444  0.66412257  1
  O2-  O178  1  0.62516344  0.24984890  0.16643199  1
  O2-  O179  1  0.62544169  0.24794766  0.66320936  1
  O2-  O180  1  0.62457493  0.50155268  0.16954283  1
  O2-  O181  1  0.62459821  0.50203016  0.65969907  1
  O2-  O182  1  0.62457908  0.74842832  0.16474687  1
  O2-  O183  1  0.62509911  0.74854276  0.66397422  1
  O2-  O184  1  0.87475528  -0.00041671  0.16304311  1
  O2-  O185  1  0.87565806  0.00167068  0.66132653  1
  O2-  O186  1  0.87574257  0.25082977  0.17030677  1
  O2-  O187  1  0.87448960  0.24935769  0.66021542  1
  O2-  O188  1  0.87475665  0.49835766  0.17064964  1
  O2-  O189  1  0.87585274  0.49817798  0.66288600  1
  O2-  O190  1  0.87480017  0.75168511  0.16118178  1
  O2-  O191  1  0.87461609  0.75070721  0.66455892  1
  O2-  O192  1  0.00198499  0.12555380  0.16327572  1
  O2-  O193  1  -0.00157591  0.12587973  0.66249073  1
  O2-  O194  1  -0.00113797  0.37439481  0.16886048  1
  O2-  O195  1  -0.00070799  0.37345545  0.66374171  1
  O2-  O196  1  0.00169247  0.62403526  0.16555876  1
  O2-  O197  1  0.00040357  0.62524197  0.66544669  1
  O2-  O198  1  -0.00215667  0.87596616  0.16192069  1
  O2-  O199  1  0.00024880  0.87511937  0.66526867  1
  O2-  O200  1  0.24975582  0.12747396  0.15953709  1
  O2-  O201  1  0.24997194  0.12480507  0.66747320  1
  O2-  O202  1  0.25001936  0.37447752  0.16466386  1
  O2-  O203  1  0.25118475  0.37444013  0.66545159  1
  O2-  O204  1  0.24943449  0.62386359  0.16611139  1
  O2-  O205  1  0.25080928  0.62385361  0.66842479  1
  O2-  O206  1  0.24994999  0.87478386  0.16488045  1
  O2-  O207  1  0.25145747  0.87568157  0.67139403  1
  O2-  O208  1  0.49700656  0.12578089  0.16521280  1
  O2-  O209  1  0.50218871  0.12526215  0.66270789  1
  O2-  O210  1  0.49971707  0.37535732  0.16745984  1
  O2-  O211  1  0.49799206  0.37403871  0.65986416  1
  O2-  O212  1  0.49928928  0.62399920  0.16714387  1
  O2-  O213  1  0.50029816  0.62443268  0.66213542  1
  O2-  O214  1  0.50006637  0.87508683  0.16541666  1
  O2-  O215  1  0.49913059  0.87545398  0.66808641  1
  O2-  O216  1  0.75146318  0.12541080  0.16791424  1
  O2-  O217  1  0.75001601  0.12450806  0.65737507  1
  O2-  O218  1  0.75143766  0.37453460  0.16999772  1
  O2-  O219  1  0.75195195  0.37495703  0.66160133  1
  O2-  O220  1  0.74905304  0.62479483  0.16464949  1
  O2-  O221  1  0.74825267  0.62444475  0.66133816  1
  O2-  O222  1  0.75172682  0.87515066  0.16363949  1
  O2-  O223  1  0.74964360  0.87572312  0.66164938  1
  O2-  O224  1  0.12427155  0.00109476  0.34312446  1
  O2-  O225  1  0.12539384  0.00353089  0.85098182  1
  O2-  O226  1  0.12486517  0.24903076  0.34686936  1
  O2-  O227  1  0.12496557  0.24869559  0.84722768  1
  O2-  O228  1  0.12442021  0.50099192  0.35032538  1
  O2-  O229  1  0.12484575  0.49905060  0.84694584  1
  O2-  O230  1  0.12558752  0.74891225  0.34478039  1
  O2-  O231  1  0.12429846  0.74875643  0.85227353  1
  O2-  O232  1  0.37595924  0.00067564  0.34414907  1
  O2-  O233  1  0.37431642  0.00257672  0.85301901  1
  O2-  O234  1  0.37495780  0.25045805  0.34703397  1
  O2-  O235  1  0.37481327  0.24927020  0.84652570  1
  O2-  O236  1  0.37554361  0.49752423  0.35375247  1
  O2-  O237  1  0.37467310  0.49999409  0.84091138  1
  O2-  O238  1  0.37551701  0.75154100  0.34950404  1
  O2-  O239  1  0.37566698  0.74792510  0.85098129  1
  O2-  O240  1  0.62507136  0.00126913  0.34675689  1
  O2-  O241  1  0.62534379  -0.00051324  0.84860002  1
  O2-  O242  1  0.62552580  0.24853075  0.34932600  1
  O2-  O243  1  0.62504860  0.25073258  0.84824366  1
  O2-  O244  1  0.62438007  0.50111629  0.35250614  1
  O2-  O245  1  0.62543464  0.50185371  0.84283725  1
  O2-  O246  1  0.62471522  0.74938814  0.34754972  1
  O2-  O247  1  0.62491104  0.74804407  0.84637441  1
  O2-  O248  1  0.87456563  0.00153982  0.34660232  1
  O2-  O249  1  0.87525896  0.00038129  0.84297878  1
  O2-  O250  1  0.87444641  0.24938030  0.35463781  1
  O2-  O251  1  0.87573485  0.24935443  0.84361514  1
  O2-  O252  1  0.87467431  0.49947112  0.35220988  1
  O2-  O253  1  0.87505382  0.49867892  0.84804193  1
  O2-  O254  1  0.87360384  0.74988424  0.34212227  1
  O2-  O255  1  0.87521254  0.75157684  0.84752633  1
  O2-  O256  1  -0.00182331  0.12584727  0.34753755  1
  O2-  O257  1  0.00147164  0.12576947  0.84640806  1
  O2-  O258  1  -0.00255774  0.37366777  0.35174574  1
  O2-  O259  1  0.00099764  0.37432679  0.84648703  1
  O2-  O260  1  -0.00133306  0.62482809  0.34462334  1
  O2-  O261  1  0.00108643  0.62427664  0.85079955  1
  O2-  O262  1  -0.00257664  0.87548980  0.34324068  1
  O2-  O263  1  -0.00166081  0.87583416  0.84786484  1
  O2-  O264  1  0.25033832  0.12505741  0.34233528  1
  O2-  O265  1  0.24990851  0.12633815  0.85263844  1
  O2-  O266  1  0.25188744  0.37472254  0.34980401  1
  O2-  O267  1  0.25017015  0.37421864  0.84541735  1
  O2-  O268  1  0.24982956  0.62439961  0.34902409  1
  O2-  O269  1  0.25085521  0.62433627  0.85012158  1
  O2-  O270  1  0.25168581  0.87567467  0.34848515  1
  O2-  O271  1  0.24941283  0.87475890  0.85310127  1
  O2-  O272  1  0.50169601  0.12563824  0.34816829  1
  O2-  O273  1  0.49684867  0.12568393  0.84797026  1
  O2-  O274  1  0.49958309  0.37407552  0.35023982  1
  O2-  O275  1  0.49760483  0.37472637  0.84238529  1
  O2-  O276  1  0.50152390  0.62517375  0.35264232  1
  O2-  O277  1  0.49980319  0.62396616  0.84211363  1
  O2-  O278  1  0.50116880  0.87562726  0.34818608  1
  O2-  O279  1  0.50050575  0.87548528  0.85034336  1
  O2-  O280  1  0.74977546  0.12531310  0.35260735  1
  O2-  O281  1  0.75232303  0.12588753  0.84169296  1
  O2-  O282  1  0.75067133  0.37450129  0.35125261  1
  O2-  O283  1  0.75196325  0.37483145  0.84650694  1
  O2-  O284  1  0.74889108  0.62446116  0.34745140  1
  O2-  O285  1  0.74822630  0.62438823  0.84536124  1
  O2-  O286  1  0.74990304  0.87589744  0.34459552  1
  O2-  O287  1  0.75160326  0.87511811  0.84448879  1
