# generated using pymatgen
data_BaYFeCuO5
_symmetry_space_group_name_H-M   'P 1'
_cell_length_a   15.67323223
_cell_length_b   15.67246465
_cell_length_c   15.48964090
_cell_angle_alpha   90.00160577
_cell_angle_beta   90.00381240
_cell_angle_gamma   90.00053343
_symmetry_Int_Tables_number   1
_chemical_formula_structural   BaYFeCuO5
_chemical_formula_sum   'Ba32 Y32 Fe32 Cu32 O160'
_cell_volume   3804.84715815
_cell_formula_units_Z   32
loop_
 _symmetry_equiv_pos_site_id
 _symmetry_equiv_pos_as_xyz
  1  'x, y, z'
loop_
 _atom_type_symbol
 _atom_type_oxidation_number
  Ba2+  2.0
  Y3+  3.0
  Fe3+  3.0
  Cu2+  2.0
  O2-  -2.0
loop_
 _atom_site_type_symbol
 _atom_site_label
 _atom_site_symmetry_multiplicity
 _atom_site_fract_x
 _atom_site_fract_y
 _atom_site_fract_z
 _atom_site_occupancy
  Ba2+  Ba0  1  -0.00491760  -0.00257629  0.00019400  1
  Ba2+  Ba1  1  -0.00108312  0.00061512  0.51181533  1
  Ba2+  Ba2  1  -0.00883418  0.24673298  -0.00257874  1
  Ba2+  Ba3  1  -0.00045210  0.25007738  0.52344360  1
  Ba2+  Ba4  1  -0.01305225  0.49898695  0.01076162  1
  Ba2+  Ba5  1  -0.00609177  0.49225240  0.51540664  1
  Ba2+  Ba6  1  -0.00847114  0.75685081  0.01666754  1
  Ba2+  Ba7  1  -0.00534359  0.75709590  0.50625521  1
  Ba2+  Ba8  1  0.24837799  -0.00804913  0.00814564  1
  Ba2+  Ba9  1  0.25171909  0.00627986  0.51330836  1
  Ba2+  Ba10  1  0.24551848  0.24407423  0.00273707  1
  Ba2+  Ba11  1  0.25103244  0.24698766  0.52479343  1
  Ba2+  Ba12  1  0.25512359  0.50598810  0.00175479  1
  Ba2+  Ba13  1  0.24894172  0.48906804  0.51836401  1
  Ba2+  Ba14  1  0.25725974  0.75702004  0.00613685  1
  Ba2+  Ba15  1  0.24841586  0.75989269  0.50644301  1
  Ba2+  Ba16  1  0.50427991  -0.00806227  0.01811154  1
  Ba2+  Ba17  1  0.49678964  0.01075583  0.51009171  1
  Ba2+  Ba18  1  0.51154473  0.24910074  0.01701563  1
  Ba2+  Ba19  1  0.50040730  0.24601958  0.51590409  1
  Ba2+  Ba20  1  0.50839034  0.50628637  0.01302817  1
  Ba2+  Ba21  1  0.50428741  0.49267517  0.51225214  1
  Ba2+  Ba22  1  0.50093605  0.75311239  0.01227641  1
  Ba2+  Ba23  1  0.50079944  0.75023712  0.50629654  1
  Ba2+  Ba24  1  0.75136947  -0.00341070  0.01284231  1
  Ba2+  Ba25  1  0.75410378  0.00569150  0.51155859  1
  Ba2+  Ba26  1  0.75217560  0.25186812  0.01227552  1
  Ba2+  Ba27  1  0.75023384  0.25013309  0.51617089  1
  Ba2+  Ba28  1  0.75012422  0.49954904  0.02275082  1
  Ba2+  Ba29  1  0.75337319  0.49591227  0.51013766  1
  Ba2+  Ba30  1  0.74995763  0.75179304  0.02455160  1
  Ba2+  Ba31  1  0.75732612  0.74885385  0.50698749  1
  Y3+  Y32  1  -0.00050135  -0.00345092  0.25813109  1
  Y3+  Y33  1  -0.00310003  0.00096054  0.75859724  1
  Y3+  Y34  1  -0.00290458  0.25162808  0.25563415  1
  Y3+  Y35  1  -0.00318471  0.24897015  0.76027778  1
  Y3+  Y36  1  -0.00360017  0.49850623  0.25624581  1
  Y3+  Y37  1  -0.00399418  0.49797186  0.75696954  1
  Y3+  Y38  1  -0.00169822  0.75441285  0.25864349  1
  Y3+  Y39  1  -0.00395095  0.75189918  0.75556823  1
  Y3+  Y40  1  0.25030520  -0.00168232  0.25741694  1
  Y3+  Y41  1  0.25182863  0.00043376  0.75895914  1
  Y3+  Y42  1  0.25043654  0.24744944  0.25542485  1
  Y3+  Y43  1  0.24930935  0.24717417  0.75926244  1
  Y3+  Y44  1  0.24903061  0.50066984  0.25604084  1
  Y3+  Y45  1  0.25018956  0.49981665  0.75836171  1
  Y3+  Y46  1  0.24865457  0.75372360  0.25606538  1
  Y3+  Y47  1  0.25282036  0.75190118  0.75861654  1
  Y3+  Y48  1  0.50075887  0.00215114  0.26017565  1
  Y3+  Y49  1  0.49861564  0.00004926  0.75406750  1
  Y3+  Y50  1  0.50289030  0.24689142  0.25942996  1
  Y3+  Y51  1  0.50177094  0.24838337  0.75362754  1
  Y3+  Y52  1  0.50379510  0.50066190  0.25843902  1
  Y3+  Y53  1  0.50054057  0.49954017  0.75642171  1
  Y3+  Y54  1  0.50190054  0.75100227  0.25804630  1
  Y3+  Y55  1  0.49752042  0.75169690  0.75699883  1
  Y3+  Y56  1  0.74985306  0.00006660  0.26028076  1
  Y3+  Y57  1  0.75252280  0.00058306  0.75495291  1
  Y3+  Y58  1  0.74972885  0.25089569  0.25779149  1
  Y3+  Y59  1  0.75162494  0.24984741  0.75598536  1
  Y3+  Y60  1  0.75113079  0.49899846  0.25853277  1
  Y3+  Y61  1  0.75254745  0.49748359  0.75392994  1
  Y3+  Y62  1  0.75161047  0.75078402  0.26068222  1
  Y3+  Y63  1  0.75312577  0.75178135  0.75262717  1
  Fe3+  Fe64  1  0.12469054  0.37335172  0.37559935  1
  Fe3+  Fe65  1  0.87606361  0.62383065  0.37656203  1
  Fe3+  Fe66  1  0.12376427  0.37566881  0.87940398  1
  Fe3+  Fe67  1  0.12490752  0.12600057  0.37658954  1
  Fe3+  Fe68  1  0.62565786  0.87604237  0.37991921  1
  Fe3+  Fe69  1  0.87608247  0.12659515  0.37741644  1
  Fe3+  Fe70  1  0.37500665  0.87653324  0.37793009  1
  Fe3+  Fe71  1  0.12358989  0.87416056  0.87635221  1
  Fe3+  Fe72  1  0.62669928  0.62628302  0.87433255  1
  Fe3+  Fe73  1  0.62633305  0.37555234  0.87565921  1
  Fe3+  Fe74  1  0.12315604  0.62664030  0.87964766  1
  Fe3+  Fe75  1  0.37748352  0.37426526  0.87993068  1
  Fe3+  Fe76  1  0.37412364  0.37330201  0.37499422  1
  Fe3+  Fe77  1  0.62571667  0.12367877  0.87612851  1
  Fe3+  Fe78  1  0.62591625  0.37412720  0.37628629  1
  Fe3+  Fe79  1  0.37418658  0.62380802  0.38061406  1
  Fe3+  Fe80  1  0.62625686  0.87430266  0.87348780  1
  Fe3+  Fe81  1  0.12467411  0.62442716  0.38016186  1
  Fe3+  Fe82  1  0.87229305  0.62600524  0.87596637  1
  Fe3+  Fe83  1  0.37737420  0.12362605  0.88040753  1
  Fe3+  Fe84  1  0.37592374  0.37497605  0.13287107  1
  Fe3+  Fe85  1  0.62470440  0.87588868  0.63299823  1
  Fe3+  Fe86  1  0.12366131  0.62527058  0.63447414  1
  Fe3+  Fe87  1  0.37545242  0.62590461  0.13944550  1
  Fe3+  Fe88  1  0.12363249  0.62619857  0.13384352  1
  Fe3+  Fe89  1  0.62589156  0.62504265  0.63430451  1
  Fe3+  Fe90  1  0.12504817  0.87620996  0.63882490  1
  Fe3+  Fe91  1  0.12454303  0.37495739  0.13153612  1
  Fe3+  Fe92  1  0.12327584  0.12355931  0.13448282  1
  Fe3+  Fe93  1  0.37569106  0.12384698  0.13410834  1
  Fe3+  Fe94  1  0.37411162  0.62476915  0.63461266  1
  Fe3+  Fe95  1  0.87461439  0.12400181  0.13822431  1
  Cu2+  Cu96  1  0.37700939  0.87578349  0.87236061  1
  Cu2+  Cu97  1  0.87578986  0.37377285  0.37206594  1
  Cu2+  Cu98  1  0.87259807  0.37590754  0.87267005  1
  Cu2+  Cu99  1  0.37620129  0.62487238  0.86281294  1
  Cu2+  Cu100  1  0.12523224  0.87592044  0.36542981  1
  Cu2+  Cu101  1  0.87274105  0.87390844  0.87058591  1
  Cu2+  Cu102  1  0.87278351  0.12418893  0.86345701  1
  Cu2+  Cu103  1  0.62538411  0.62482132  0.36825241  1
  Cu2+  Cu104  1  0.12439773  0.12382313  0.86667298  1
  Cu2+  Cu105  1  0.37380059  0.12657434  0.37121553  1
  Cu2+  Cu106  1  0.62588685  0.12566132  0.37405173  1
  Cu2+  Cu107  1  0.87497656  0.87665387  0.37362483  1
  Cu2+  Cu108  1  0.12456522  0.37444143  0.65805445  1
  Cu2+  Cu109  1  0.37483568  0.87519802  0.64685786  1
  Cu2+  Cu110  1  0.62515448  0.37490832  0.65058014  1
  Cu2+  Cu111  1  0.87459846  0.37370332  0.64276921  1
  Cu2+  Cu112  1  0.87591753  0.62475964  0.64741144  1
  Cu2+  Cu113  1  0.62589861  0.12409413  0.15186358  1
  Cu2+  Cu114  1  0.12430396  0.12451075  0.65679762  1
  Cu2+  Cu115  1  0.87502565  0.62571403  0.15433830  1
  Cu2+  Cu116  1  0.37569471  0.87487998  0.14386504  1
  Cu2+  Cu117  1  0.87559152  0.12511446  0.65224049  1
  Cu2+  Cu118  1  0.62545885  0.87515742  0.15767319  1
  Cu2+  Cu119  1  0.62583397  0.62602221  0.15657707  1
  Cu2+  Cu120  1  0.37505991  0.37481917  0.65571834  1
  Cu2+  Cu121  1  0.37463532  0.12508538  0.64596659  1
  Cu2+  Cu122  1  0.87463296  0.37383399  0.14192449  1
  Cu2+  Cu123  1  0.87527556  0.87613758  0.64024441  1
  Cu2+  Cu124  1  0.12437948  0.87526558  0.14958206  1
  Cu2+  Cu125  1  0.62580949  0.12465550  0.64106147  1
  Cu2+  Cu126  1  0.62476208  0.37508557  0.15248923  1
  Cu2+  Cu127  1  0.87431795  0.87672641  0.14487785  1
  O2-  O128  1  0.12366167  0.12314091  0.01453551  1
  O2-  O129  1  0.12591576  0.12825055  0.49648377  1
  O2-  O130  1  0.12424176  0.37708956  0.00582355  1
  O2-  O131  1  0.12658068  0.37262989  0.49541616  1
  O2-  O132  1  0.12434138  0.62660684  0.00620104  1
  O2-  O133  1  0.12541013  0.62318124  0.50697038  1
  O2-  O134  1  0.12375767  0.87181340  -0.00275661  1
  O2-  O135  1  0.12551749  0.87676905  0.51810485  1
  O2-  O136  1  0.37782336  0.12292719  0.00713671  1
  O2-  O137  1  0.37268542  0.12773383  0.50699307  1
  O2-  O138  1  0.37791726  0.37699290  0.00621933  1
  O2-  O139  1  0.37227551  0.37288779  0.49505776  1
  O2-  O140  1  0.37651233  0.62582032  0.01891953  1
  O2-  O141  1  0.37230011  0.62249852  0.50736151  1
  O2-  O142  1  0.37720418  0.87442398  0.00799187  1
  O2-  O143  1  0.37388845  0.87664820  0.49850155  1
  O2-  O144  1  0.62470147  0.12264923  -0.00372535  1
  O2-  O145  1  0.62521472  0.12635536  0.50737064  1
  O2-  O146  1  0.62532071  0.37689967  -0.00402406  1
  O2-  O147  1  0.62443489  0.37412967  0.49681095  1
  O2-  O148  1  0.62703599  0.62754222  -0.00548291  1
  O2-  O149  1  0.62282641  0.62303279  0.51420218  1
  O2-  O150  1  0.62612475  0.87271383  -0.00604957  1
  O2-  O151  1  0.62438401  0.87578381  0.50624982  1
  O2-  O152  1  0.87342196  0.12318753  0.01738571  1
  O2-  O153  1  0.87794352  0.12760616  0.49806669  1
  O2-  O154  1  0.87280678  0.37549107  0.00704572  1
  O2-  O155  1  0.87636686  0.37312138  0.50753842  1
  O2-  O156  1  0.87105129  0.62660515  -0.00370708  1
  O2-  O157  1  0.87887821  0.62292737  0.49718129  1
  O2-  O158  1  0.87246438  0.87465580  0.00843092  1
  O2-  O159  1  0.87562769  0.87660782  0.50715179  1
  O2-  O160  1  0.12609664  0.00044520  0.16592858  1
  O2-  O161  1  0.12562961  0.00012023  0.66669479  1
  O2-  O162  1  0.12678882  0.25111382  0.15919497  1
  O2-  O163  1  0.12567775  0.24941770  0.66914973  1
  O2-  O164  1  0.12621597  0.50038910  0.16189250  1
  O2-  O165  1  0.12563761  0.50153882  0.66467628  1
  O2-  O166  1  0.12434307  0.74832695  0.16689198  1
  O2-  O167  1  0.12580537  0.74850241  0.66219168  1
  O2-  O168  1  0.37558363  0.00302161  0.16418289  1
  O2-  O169  1  0.37429931  -0.00073232  0.66618943  1
  O2-  O170  1  0.37489444  0.24984734  0.15618973  1
  O2-  O171  1  0.37394422  0.25135910  0.67075912  1
  O2-  O172  1  0.37425470  0.49923619  0.16532319  1
  O2-  O173  1  0.37341212  0.50153144  0.66446900  1
  O2-  O174  1  0.37488679  0.74791986  0.17180822  1
  O2-  O175  1  0.37366541  0.74734697  0.66141330  1
  O2-  O176  1  0.62451265  -0.00137303  0.16675604  1
  O2-  O177  1  0.62417060  -0.00288486  0.66193974  1
  O2-  O178  1  0.62437665  0.25003743  0.16144558  1
  O2-  O179  1  0.62467421  0.25131368  0.66542664  1
  O2-  O180  1  0.62445395  0.50051276  0.16419732  1
  O2-  O181  1  0.62437391  0.50056458  0.66461748  1
  O2-  O182  1  0.62497979  0.75115040  0.16851572  1
  O2-  O183  1  0.62404099  0.75072961  0.65972450  1
  O2-  O184  1  0.87438092  0.00183796  0.16898155  1
  O2-  O185  1  0.87576337  0.00217310  0.66476793  1
  O2-  O186  1  0.87471842  0.24784790  0.16416302  1
  O2-  O187  1  0.87563131  0.24805605  0.66760197  1
  O2-  O188  1  0.87502288  0.50093023  0.16436819  1
  O2-  O189  1  0.87601214  0.50042332  0.66403222  1
  O2-  O190  1  0.87537638  0.74980630  0.16801646  1
  O2-  O191  1  0.87621463  0.74908196  0.66108804  1
  O2-  O192  1  0.00036353  0.12525184  0.16686732  1
  O2-  O193  1  -0.00062273  0.12564660  0.66716238  1
  O2-  O194  1  0.00341309  0.37581920  0.16239469  1
  O2-  O195  1  0.00094014  0.37451882  0.66867883  1
  O2-  O196  1  0.00145934  0.62436242  0.16162033  1
  O2-  O197  1  0.00193941  0.62426509  0.66519670  1
  O2-  O198  1  0.00068985  0.87494025  0.16640703  1
  O2-  O199  1  0.00174800  0.87506917  0.66751998  1
  O2-  O200  1  0.25110313  0.12527251  0.16088167  1
  O2-  O201  1  0.24905752  0.12534992  0.66967632  1
  O2-  O202  1  0.25063074  0.37606651  0.15756608  1
  O2-  O203  1  0.24958198  0.37540008  0.67064928  1
  O2-  O204  1  0.24824021  0.62513904  0.16502777  1
  O2-  O205  1  0.24927738  0.62369992  0.66544557  1
  O2-  O206  1  0.24892086  0.87411831  0.16393709  1
  O2-  O207  1  0.24959366  0.87448772  0.66835967  1
  O2-  O208  1  0.49943597  0.12506733  0.16428217  1
  O2-  O209  1  0.49952712  0.12540865  0.66429492  1
  O2-  O210  1  0.49806736  0.37574021  0.16243829  1
  O2-  O211  1  0.49968331  0.37571367  0.66354883  1
  O2-  O212  1  0.50012696  0.62497612  0.16820867  1
  O2-  O213  1  0.49819734  0.62420988  0.66230942  1
  O2-  O214  1  0.50231786  0.87429768  0.16659800  1
  O2-  O215  1  0.50069969  0.87401598  0.66105857  1
  O2-  O216  1  0.74958992  0.12443319  0.16690714  1
  O2-  O217  1  0.75236159  0.12503198  0.66252615  1
  O2-  O218  1  0.74825631  0.37528012  0.16566310  1
  O2-  O219  1  0.74900793  0.37464554  0.66228211  1
  O2-  O220  1  0.75013385  0.62588927  0.16652671  1
  O2-  O221  1  0.75046001  0.62514414  0.65885837  1
  O2-  O222  1  0.74810952  0.87486104  0.16841162  1
  O2-  O223  1  0.74767452  0.87492072  0.65960480  1
  O2-  O224  1  0.12555359  0.00063252  0.34816870  1
  O2-  O225  1  0.12479819  -0.00124565  0.84894642  1
  O2-  O226  1  0.12546041  0.25030745  0.33894906  1
  O2-  O227  1  0.12526935  0.25157736  0.85436738  1
  O2-  O228  1  0.12620335  0.50094655  0.34607487  1
  O2-  O229  1  0.12629144  0.50081347  0.85045120  1
  O2-  O230  1  0.12593220  0.74828735  0.35336061  1
  O2-  O231  1  0.12522138  0.74829297  0.84440639  1
  O2-  O232  1  0.37481005  -0.00158748  0.34693871  1
  O2-  O233  1  0.37571186  0.00296222  0.84929426  1
  O2-  O234  1  0.37450676  0.25239729  0.33852106  1
  O2-  O235  1  0.37465079  0.24994310  0.85539786  1
  O2-  O236  1  0.37358133  0.50073285  0.34717957  1
  O2-  O237  1  0.37436260  0.49749987  0.84954897  1
  O2-  O238  1  0.37405539  0.74865332  0.35418125  1
  O2-  O239  1  0.37506453  0.74882147  0.84588655  1
  O2-  O240  1  0.62413553  -0.00220270  0.35056103  1
  O2-  O241  1  0.62466028  -0.00008953  0.84296666  1
  O2-  O242  1  0.62486087  0.25171032  0.34454447  1
  O2-  O243  1  0.62451388  0.24973233  0.84759398  1
  O2-  O244  1  0.62454076  0.49931393  0.34746757  1
  O2-  O245  1  0.62366993  0.50035466  0.84486619  1
  O2-  O246  1  0.62429335  0.75148971  0.35300040  1
  O2-  O247  1  0.62438243  0.74970270  0.83931449  1
  O2-  O248  1  0.87604231  0.00218414  0.34937646  1
  O2-  O249  1  0.87405828  0.00041193  0.84863504  1
  O2-  O250  1  0.87571554  0.24881726  0.34394556  1
  O2-  O251  1  0.87435652  0.24885274  0.85165572  1
  O2-  O252  1  0.87619369  0.50078234  0.34693218  1
  O2-  O253  1  0.87510051  0.50238887  0.84582865  1
  O2-  O254  1  0.87599579  0.74885829  0.35095140  1
  O2-  O255  1  0.87478787  0.74806222  0.84261756  1
  O2-  O256  1  0.00083949  0.12560210  0.34490778  1
  O2-  O257  1  -0.00187998  0.12463962  0.85186260  1
  O2-  O258  1  0.00227147  0.37582544  0.34394607  1
  O2-  O259  1  0.00204704  0.37596975  0.85229194  1
  O2-  O260  1  0.00248033  0.62475935  0.34579341  1
  O2-  O261  1  0.00073278  0.62458457  0.84901998  1
  O2-  O262  1  0.00146565  0.87465242  0.35001411  1
  O2-  O263  1  0.00003868  0.87417340  0.84889428  1
  O2-  O264  1  0.24776959  0.12527576  0.34211661  1
  O2-  O265  1  0.25280815  0.12525944  0.85371774  1
  O2-  O266  1  0.24942943  0.37570122  0.33883920  1
  O2-  O267  1  0.25049799  0.37561470  0.85588156  1
  O2-  O268  1  0.24956672  0.62455113  0.34883399  1
  O2-  O269  1  0.24831951  0.62472278  0.85200324  1
  O2-  O270  1  0.25081983  0.87424843  0.34700451  1
  O2-  O271  1  0.24871306  0.87387723  0.85055314  1
  O2-  O272  1  0.49979788  0.12558432  0.34914609  1
  O2-  O273  1  0.49956822  0.12552351  0.84570451  1
  O2-  O274  1  0.49961195  0.37583681  0.34487899  1
  O2-  O275  1  0.49939058  0.37498994  0.84659301  1
  O2-  O276  1  0.49706571  0.62467333  0.35210977  1
  O2-  O277  1  0.50090161  0.62460829  0.84506159  1
  O2-  O278  1  0.50066541  0.87418646  0.34949292  1
  O2-  O279  1  0.50223832  0.87442489  0.84363099  1
  O2-  O280  1  0.75220919  0.12509855  0.34894685  1
  O2-  O281  1  0.74866938  0.12460635  0.84491703  1
  O2-  O282  1  0.74917139  0.37549322  0.34811973  1
  O2-  O283  1  0.74773465  0.37532132  0.84360429  1
  O2-  O284  1  0.75136179  0.62491627  0.35020216  1
  O2-  O285  1  0.74945309  0.62508000  0.83871707  1
  O2-  O286  1  0.74771394  0.87502907  0.35180038  1
  O2-  O287  1  0.74838836  0.87456808  0.84123974  1
