# generated using pymatgen
data_BaYFeCuO5
_symmetry_space_group_name_H-M   'P 1'
_cell_length_a   15.66410839
_cell_length_b   15.66449281
_cell_length_c   15.46844492
_cell_angle_alpha   90.00124569
_cell_angle_beta   89.99649798
_cell_angle_gamma   90.00328649
_symmetry_Int_Tables_number   1
_chemical_formula_structural   BaYFeCuO5
_chemical_formula_sum   'Ba32 Y32 Fe32 Cu32 O160'
_cell_volume   3795.49716231
_cell_formula_units_Z   32
loop_
 _symmetry_equiv_pos_site_id
 _symmetry_equiv_pos_as_xyz
  1  'x, y, z'
loop_
 _atom_type_symbol
 _atom_type_oxidation_number
  Ba2+  2.0
  Y3+  3.0
  Fe3+  3.0
  Cu2+  2.0
  O2-  -2.0
loop_
 _atom_site_type_symbol
 _atom_site_label
 _atom_site_symmetry_multiplicity
 _atom_site_fract_x
 _atom_site_fract_y
 _atom_site_fract_z
 _atom_site_occupancy
  Ba2+  Ba0  1  -0.00657167  -0.00252709  0.01485486  1
  Ba2+  Ba1  1  -0.00085237  -0.00109055  0.51988202  1
  Ba2+  Ba2  1  -0.00033821  0.25042287  0.00594254  1
  Ba2+  Ba3  1  -0.00730078  0.24803218  0.50687781  1
  Ba2+  Ba4  1  0.00755700  0.50426387  0.00183658  1
  Ba2+  Ba5  1  -0.01263964  0.50021420  0.50648037  1
  Ba2+  Ba6  1  0.00245593  0.74788530  0.01170134  1
  Ba2+  Ba7  1  -0.00701996  0.75297618  0.51857236  1
  Ba2+  Ba8  1  0.25718054  -0.00552126  0.01494954  1
  Ba2+  Ba9  1  0.24357922  -0.00309818  0.51166816  1
  Ba2+  Ba10  1  0.25322064  0.25689341  0.01795612  1
  Ba2+  Ba11  1  0.25093648  0.25046661  0.50152880  1
  Ba2+  Ba12  1  0.24221361  0.49702921  0.01189738  1
  Ba2+  Ba13  1  0.25583854  0.49372402  0.50677794  1
  Ba2+  Ba14  1  0.24637958  0.75282259  0.01186577  1
  Ba2+  Ba15  1  0.24812717  0.75958755  0.51887612  1
  Ba2+  Ba16  1  0.49907812  -0.00084414  0.01242680  1
  Ba2+  Ba17  1  0.50047312  0.00033017  0.50665089  1
  Ba2+  Ba18  1  0.50035606  0.24978806  0.02763445  1
  Ba2+  Ba19  1  0.50255866  0.25639492  0.50605492  1
  Ba2+  Ba20  1  0.50370490  0.49495334  0.02460084  1
  Ba2+  Ba21  1  0.50664546  0.49625704  0.51073811  1
  Ba2+  Ba22  1  0.50156695  0.75654065  0.00485535  1
  Ba2+  Ba23  1  0.50484312  0.74631894  0.51069457  1
  Ba2+  Ba24  1  0.75069606  0.00245778  0.01117773  1
  Ba2+  Ba25  1  0.75637296  0.00315542  0.51291954  1
  Ba2+  Ba26  1  0.74655034  0.24423262  0.01679847  1
  Ba2+  Ba27  1  0.75361586  0.25366498  0.51214954  1
  Ba2+  Ba28  1  0.74442645  0.50290015  0.01361576  1
  Ba2+  Ba29  1  0.75215334  0.50178961  0.51200342  1
  Ba2+  Ba30  1  0.74932623  0.75001959  0.00616763  1
  Ba2+  Ba31  1  0.75442398  0.74139281  0.51048347  1
  Y3+  Y32  1  -0.00056970  -0.00020524  0.25270989  1
  Y3+  Y33  1  -0.00256231  0.00074510  0.76007071  1
  Y3+  Y34  1  -0.00059222  0.25029519  0.25538079  1
  Y3+  Y35  1  -0.00216429  0.25153058  0.76018369  1
  Y3+  Y36  1  -0.00057731  0.50030390  0.25726352  1
  Y3+  Y37  1  -0.00113601  0.50096043  0.75967004  1
  Y3+  Y38  1  -0.00015682  0.74908305  0.25480316  1
  Y3+  Y39  1  -0.00141158  0.74759772  0.75960403  1
  Y3+  Y40  1  0.25016729  -0.00088539  0.25441090  1
  Y3+  Y41  1  0.25152563  -0.00245940  0.75795659  1
  Y3+  Y42  1  0.25000290  0.25175414  0.25795756  1
  Y3+  Y43  1  0.24940765  0.25283712  0.75722462  1
  Y3+  Y44  1  0.24849871  0.49868612  0.25629507  1
  Y3+  Y45  1  0.24824984  0.49911801  0.75887340  1
  Y3+  Y46  1  0.24861455  0.75028549  0.25284328  1
  Y3+  Y47  1  0.25073033  0.75132434  0.76074863  1
  Y3+  Y48  1  0.49983330  0.00103026  0.25637389  1
  Y3+  Y49  1  0.49914345  -0.00301933  0.75827379  1
  Y3+  Y50  1  0.50019498  0.25016504  0.26083698  1
  Y3+  Y51  1  0.49973128  0.25245320  0.75129583  1
  Y3+  Y52  1  0.50120377  0.49946416  0.26194868  1
  Y3+  Y53  1  0.50095280  0.49932962  0.75097918  1
  Y3+  Y54  1  0.50126711  0.74848373  0.25756021  1
  Y3+  Y55  1  0.50004286  0.75132892  0.75651268  1
  Y3+  Y56  1  0.75066436  0.00190655  0.25474570  1
  Y3+  Y57  1  0.75170661  0.00103343  0.75947270  1
  Y3+  Y58  1  0.75040696  0.24842336  0.25755127  1
  Y3+  Y59  1  0.75297615  0.25109270  0.75684757  1
  Y3+  Y60  1  0.75071919  0.50194666  0.26235592  1
  Y3+  Y61  1  0.75141248  0.50081142  0.75339413  1
  Y3+  Y62  1  0.75040221  0.74739071  0.25983602  1
  Y3+  Y63  1  0.75080852  0.74708247  0.75516043  1
  Fe3+  Fe64  1  0.87570356  0.87500880  0.37545822  1
  Fe3+  Fe65  1  0.62368096  0.62370249  0.87529069  1
  Fe3+  Fe66  1  0.87328033  0.37643263  0.88057109  1
  Fe3+  Fe67  1  0.37583769  0.12669241  0.87659364  1
  Fe3+  Fe68  1  0.62389789  0.37449801  0.87541257  1
  Fe3+  Fe69  1  0.37576865  0.62368239  0.87979770  1
  Fe3+  Fe70  1  0.12630077  0.12526094  0.88064300  1
  Fe3+  Fe71  1  0.87359900  0.87387550  0.87679794  1
  Fe3+  Fe72  1  0.37707760  0.37546496  0.87622850  1
  Fe3+  Fe73  1  0.62337275  0.12611243  0.87547884  1
  Fe3+  Fe74  1  0.37420128  0.12419804  0.37834179  1
  Fe3+  Fe75  1  0.12344794  0.87538558  0.37446365  1
  Fe3+  Fe76  1  0.37382426  0.62559435  0.37974313  1
  Fe3+  Fe77  1  0.12316018  0.37459092  0.37942303  1
  Fe3+  Fe78  1  0.87604012  0.12404011  0.37398989  1
  Fe3+  Fe79  1  0.62728136  0.37438953  0.37563238  1
  Fe3+  Fe80  1  0.12458887  0.87575793  0.87713119  1
  Fe3+  Fe81  1  0.12459123  0.62623239  0.38115397  1
  Fe3+  Fe82  1  0.37449723  0.87409644  0.37702684  1
  Fe3+  Fe83  1  0.62653428  0.87557815  0.38026345  1
  Fe3+  Fe84  1  0.12342529  0.37518199  0.63501877  1
  Fe3+  Fe85  1  0.12469566  0.62506387  0.63486083  1
  Fe3+  Fe86  1  0.12429074  0.12578567  0.63858781  1
  Fe3+  Fe87  1  0.87425861  0.62465055  0.13721429  1
  Fe3+  Fe88  1  0.37436183  0.62518809  0.63489052  1
  Fe3+  Fe89  1  0.87447784  0.37577496  0.13545306  1
  Fe3+  Fe90  1  0.37575465  0.62463762  0.13545737  1
  Fe3+  Fe91  1  0.62671915  0.87532990  0.63550780  1
  Fe3+  Fe92  1  0.12580411  0.12523386  0.13491407  1
  Fe3+  Fe93  1  0.62587281  0.87419188  0.13979380  1
  Fe3+  Fe94  1  0.62577179  0.12542810  0.63517743  1
  Fe3+  Fe95  1  0.37446559  0.12481238  0.63346884  1
  Cu2+  Cu96  1  0.12553639  0.37438625  0.87293450  1
  Cu2+  Cu97  1  0.62581522  0.12407316  0.36767771  1
  Cu2+  Cu98  1  0.12619705  0.62569752  0.87142243  1
  Cu2+  Cu99  1  0.87384027  0.62442105  0.86684754  1
  Cu2+  Cu100  1  0.62522466  0.62546470  0.37415910  1
  Cu2+  Cu101  1  0.62563441  0.87496761  0.86086180  1
  Cu2+  Cu102  1  0.87495472  0.37469602  0.37013840  1
  Cu2+  Cu103  1  0.37505701  0.37544155  0.37275153  1
  Cu2+  Cu104  1  0.87422413  0.12585492  0.87493401  1
  Cu2+  Cu105  1  0.12428075  0.12393369  0.36219714  1
  Cu2+  Cu106  1  0.37551064  0.87484990  0.87328546  1
  Cu2+  Cu107  1  0.87637951  0.62578742  0.37192249  1
  Cu2+  Cu108  1  0.12334967  0.37509890  0.14337482  1
  Cu2+  Cu109  1  0.37684744  0.87371808  0.14269668  1
  Cu2+  Cu110  1  0.12451695  0.87516242  0.14757634  1
  Cu2+  Cu111  1  0.62428124  0.12474379  0.15436423  1
  Cu2+  Cu112  1  0.87364151  0.87371079  0.14933074  1
  Cu2+  Cu113  1  0.62648041  0.37494735  0.15574586  1
  Cu2+  Cu114  1  0.62535119  0.62483654  0.64061635  1
  Cu2+  Cu115  1  0.87417668  0.87509102  0.65368176  1
  Cu2+  Cu116  1  0.87549452  0.12539117  0.65490913  1
  Cu2+  Cu117  1  0.37473445  0.12547194  0.15366503  1
  Cu2+  Cu118  1  0.87598886  0.62447174  0.64449324  1
  Cu2+  Cu119  1  0.87642787  0.37533059  0.64316349  1
  Cu2+  Cu120  1  0.12382992  0.87493542  0.65557108  1
  Cu2+  Cu121  1  0.87514092  0.12550274  0.14023736  1
  Cu2+  Cu122  1  0.37384239  0.37479606  0.63849684  1
  Cu2+  Cu123  1  0.62504673  0.62489173  0.15344904  1
  Cu2+  Cu124  1  0.37585944  0.87538158  0.64872039  1
  Cu2+  Cu125  1  0.62653805  0.37442722  0.64860578  1
  Cu2+  Cu126  1  0.37549528  0.37598389  0.15635797  1
  Cu2+  Cu127  1  0.12459778  0.62432831  0.14289792  1
  O2-  O128  1  0.12801546  0.12534850  0.00725094  1
  O2-  O129  1  0.12345491  0.12505507  0.51840235  1
  O2-  O130  1  0.12548678  0.37422639  0.00798646  1
  O2-  O131  1  0.12317048  0.37403097  0.50781771  1
  O2-  O132  1  0.12673021  0.62549953  0.00736132  1
  O2-  O133  1  0.12516179  0.62666639  0.50754920  1
  O2-  O134  1  0.12523312  0.87598232  -0.00239660  1
  O2-  O135  1  0.12284332  0.87563472  0.49490662  1
  O2-  O136  1  0.37704414  0.12761943  -0.00356964  1
  O2-  O137  1  0.37292970  0.12297784  0.50626705  1
  O2-  O138  1  0.37844551  0.37463382  -0.00387181  1
  O2-  O139  1  0.37424584  0.37416245  0.50593185  1
  O2-  O140  1  0.37694500  0.62297233  0.00656204  1
  O2-  O141  1  0.37299076  0.62701291  0.50661425  1
  O2-  O142  1  0.37673886  0.87458804  0.00719254  1
  O2-  O143  1  0.37283298  0.87581886  0.49715962  1
  O2-  O144  1  0.62126541  0.12630596  -0.00421138  1
  O2-  O145  1  0.62670654  0.12320401  0.51498302  1
  O2-  O146  1  0.62221249  0.37397817  -0.00476924  1
  O2-  O147  1  0.62842223  0.37422784  0.49695431  1
  O2-  O148  1  0.62189633  0.62342782  -0.00443008  1
  O2-  O149  1  0.62482547  0.62551386  0.50724597  1
  O2-  O150  1  0.62525204  0.87487430  0.01889781  1
  O2-  O151  1  0.62670023  0.87595348  0.50746985  1
  O2-  O152  1  0.87371672  0.12571788  0.00689489  1
  O2-  O153  1  0.87719752  0.12263810  0.49482527  1
  O2-  O154  1  0.87342976  0.37670806  0.00787424  1
  O2-  O155  1  0.87509945  0.37391349  0.50759939  1
  O2-  O156  1  0.87341665  0.62378687  0.01662142  1
  O2-  O157  1  0.87687799  0.62614793  0.50790712  1
  O2-  O158  1  0.87252213  0.87369762  -0.00260228  1
  O2-  O159  1  0.87687656  0.87704820  0.49571561  1
  O2-  O160  1  0.12593438  0.00138438  0.16091973  1
  O2-  O161  1  0.12448292  0.00016290  0.66652933  1
  O2-  O162  1  0.12594373  0.24738081  0.16595826  1
  O2-  O163  1  0.12426616  0.25094228  0.66643011  1
  O2-  O164  1  0.12482711  0.49974271  0.16966201  1
  O2-  O165  1  0.12587233  0.50056037  0.66185327  1
  O2-  O166  1  0.12516663  0.75112615  0.16404177  1
  O2-  O167  1  0.12541804  0.74925527  0.66260965  1
  O2-  O168  1  0.37571034  0.00064136  0.16463175  1
  O2-  O169  1  0.37487133  0.00193323  0.66306366  1
  O2-  O170  1  0.37455586  0.25133711  0.16738378  1
  O2-  O171  1  0.37394703  0.24683718  0.66049465  1
  O2-  O172  1  0.37569380  0.50126190  0.16614161  1
  O2-  O173  1  0.37335273  0.50283211  0.66217183  1
  O2-  O174  1  0.37605634  0.74643855  0.16421812  1
  O2-  O175  1  0.37449373  0.74877617  0.66460730  1
  O2-  O176  1  0.62416524  0.00000310  0.16695748  1
  O2-  O177  1  0.62556339  -0.00035808  0.66496867  1
  O2-  O178  1  0.62483524  0.24938549  0.16531801  1
  O2-  O179  1  0.62537998  0.24975332  0.66197314  1
  O2-  O180  1  0.62500072  0.50007079  0.16555271  1
  O2-  O181  1  0.62523170  0.49780359  0.66181504  1
  O2-  O182  1  0.62500012  0.74951960  0.16868287  1
  O2-  O183  1  0.62495965  0.75306196  0.66381613  1
  O2-  O184  1  0.87454887  -0.00162229  0.16096407  1
  O2-  O185  1  0.87515192  0.00022315  0.66536203  1
  O2-  O186  1  0.87463315  0.25273923  0.16328356  1
  O2-  O187  1  0.87648047  0.24921634  0.66653222  1
  O2-  O188  1  0.87400151  0.49930603  0.16722003  1
  O2-  O189  1  0.87628877  0.50010368  0.66684408  1
  O2-  O190  1  0.87396500  0.74895527  0.16557077  1
  O2-  O191  1  0.87519784  0.75088401  0.66502098  1
  O2-  O192  1  0.00294838  0.12512997  0.16032172  1
  O2-  O193  1  0.00006497  0.12487751  0.66978012  1
  O2-  O194  1  -0.00373392  0.37514955  0.16523526  1
  O2-  O195  1  0.00358804  0.37545033  0.66848972  1
  O2-  O196  1  -0.00228559  0.62480247  0.16681289  1
  O2-  O197  1  0.00373150  0.62521538  0.66610267  1
  O2-  O198  1  -0.00090699  0.87450976  0.16046592  1
  O2-  O199  1  -0.00144437  0.87538363  0.66586601  1
  O2-  O200  1  0.24931153  0.12521109  0.16481376  1
  O2-  O201  1  0.25047814  0.12441996  0.66490204  1
  O2-  O202  1  0.25090784  0.37544224  0.16704537  1
  O2-  O203  1  0.24567979  0.37490612  0.66360440  1
  O2-  O204  1  0.25287287  0.62432903  0.16508566  1
  O2-  O205  1  0.24915456  0.62612516  0.66265851  1
  O2-  O206  1  0.24951281  0.87438780  0.16383669  1
  O2-  O207  1  0.25009999  0.87543234  0.66321645  1
  O2-  O208  1  0.49894511  0.12550416  0.16852641  1
  O2-  O209  1  0.49890195  0.12494019  0.65873823  1
  O2-  O210  1  0.50130389  0.37526940  0.16738510  1
  O2-  O211  1  0.50182326  0.37495474  0.65837347  1
  O2-  O212  1  0.49931698  0.62387999  0.16674012  1
  O2-  O213  1  0.49720066  0.62526021  0.66035064  1
  O2-  O214  1  0.50268562  0.87435821  0.17104722  1
  O2-  O215  1  0.50218876  0.87550144  0.66121972  1
  O2-  O216  1  0.74866529  0.12459227  0.16329182  1
  O2-  O217  1  0.75063463  0.12542736  0.66492089  1
  O2-  O218  1  0.75134878  0.37503421  0.16181004  1
  O2-  O219  1  0.74956175  0.37453183  0.66595788  1
  O2-  O220  1  0.74983762  0.62458739  0.16662307  1
  O2-  O221  1  0.75040161  0.62451229  0.66456011  1
  O2-  O222  1  0.74892434  0.87482500  0.16876381  1
  O2-  O223  1  0.74918273  0.87579107  0.66239913  1
  O2-  O224  1  0.12575426  -0.00099574  0.34400787  1
  O2-  O225  1  0.12546019  0.00147985  0.84837157  1
  O2-  O226  1  0.12450616  0.25066332  0.35137729  1
  O2-  O227  1  0.12590015  0.24737699  0.84904971  1
  O2-  O228  1  0.12546277  0.50042639  0.35421148  1
  O2-  O229  1  0.12557067  0.50004233  0.84694801  1
  O2-  O230  1  0.12558281  0.74949845  0.34677324  1
  O2-  O231  1  0.12541599  0.75198729  0.84652915  1
  O2-  O232  1  0.37452705  -0.00011580  0.34781943  1
  O2-  O233  1  0.37550094  0.00221568  0.84640931  1
  O2-  O234  1  0.37426163  0.24695699  0.35189713  1
  O2-  O235  1  0.37517267  0.25085643  0.84103417  1
  O2-  O236  1  0.37359068  0.50327360  0.35079195  1
  O2-  O237  1  0.37540311  0.50072131  0.84516663  1
  O2-  O238  1  0.37404516  0.74939808  0.34668372  1
  O2-  O239  1  0.37598776  0.74688768  0.84999892  1
  O2-  O240  1  0.62455564  -0.00223875  0.35049598  1
  O2-  O241  1  0.62409371  0.00046568  0.84738094  1
  O2-  O242  1  0.62520113  0.24939953  0.34866398  1
  O2-  O243  1  0.62440338  0.25087815  0.84149310  1
  O2-  O244  1  0.62512202  0.49893713  0.34896729  1
  O2-  O245  1  0.62421461  0.49949922  0.84283420  1
  O2-  O246  1  0.62450499  0.75351168  0.35167646  1
  O2-  O247  1  0.62388077  0.74913389  0.84751377  1
  O2-  O248  1  0.87539699  -0.00070184  0.34197126  1
  O2-  O249  1  0.87430194  -0.00178295  0.84856077  1
  O2-  O250  1  0.87621130  0.24795251  0.34618061  1
  O2-  O251  1  0.87462774  0.25393849  0.85036247  1
  O2-  O252  1  0.87603793  0.50012831  0.34992406  1
  O2-  O253  1  0.87459941  0.49895697  0.85032430  1
  O2-  O254  1  0.87593137  0.75208882  0.34684585  1
  O2-  O255  1  0.87422835  0.74942149  0.84808646  1
  O2-  O256  1  -0.00010115  0.12445908  0.34267018  1
  O2-  O257  1  0.00293312  0.12575855  0.85343908  1
  O2-  O258  1  0.00250452  0.37487905  0.34841009  1
  O2-  O259  1  -0.00317674  0.37552773  0.85284476  1
  O2-  O260  1  0.00396800  0.62494359  0.34928998  1
  O2-  O261  1  -0.00115098  0.62462985  0.85029324  1
  O2-  O262  1  0.00030735  0.87532850  0.34177662  1
  O2-  O263  1  -0.00052293  0.87485539  0.84786123  1
  O2-  O264  1  0.25085876  0.12442119  0.35027974  1
  O2-  O265  1  0.25002970  0.12535577  0.84672498  1
  O2-  O266  1  0.24627391  0.37464236  0.35111725  1
  O2-  O267  1  0.25289682  0.37542230  0.84596377  1
  O2-  O268  1  0.24890932  0.62524948  0.35009912  1
  O2-  O269  1  0.25378351  0.62475514  0.84697604  1
  O2-  O270  1  0.24977515  0.87486023  0.34554136  1
  O2-  O271  1  0.24839535  0.87539724  0.84694072  1
  O2-  O272  1  0.49804832  0.12381628  0.35338607  1
  O2-  O273  1  0.49965676  0.12537996  0.83913482  1
  O2-  O274  1  0.50213638  0.37469473  0.35016352  1
  O2-  O275  1  0.49983086  0.37550359  0.83876538  1
  O2-  O276  1  0.49666253  0.62594181  0.35168519  1
  O2-  O277  1  0.49881076  0.62496982  0.84284034  1
  O2-  O278  1  0.50039102  0.87500532  0.35278597  1
  O2-  O279  1  0.50189365  0.87454284  0.84583676  1
  O2-  O280  1  0.75142753  0.12395360  0.34647478  1
  O2-  O281  1  0.74730866  0.12547883  0.84732158  1
  O2-  O282  1  0.74954044  0.37412109  0.34443768  1
  O2-  O283  1  0.75004573  0.37583683  0.84900942  1
  O2-  O284  1  0.75081240  0.62587738  0.35008744  1
  O2-  O285  1  0.74817017  0.62485108  0.84759808  1
  O2-  O286  1  0.74969588  0.87534604  0.35007735  1
  O2-  O287  1  0.74991646  0.87416632  0.84548053  1
