# generated using pymatgen
data_BaYFeCuO5
_symmetry_space_group_name_H-M   'P 1'
_cell_length_a   15.65470471
_cell_length_b   15.65769682
_cell_length_c   15.44978503
_cell_angle_alpha   90.00626410
_cell_angle_beta   89.99616324
_cell_angle_gamma   90.00155170
_symmetry_Int_Tables_number   1
_chemical_formula_structural   BaYFeCuO5
_chemical_formula_sum   'Ba32 Y32 Fe32 Cu32 O160'
_cell_volume   3786.99905596
_cell_formula_units_Z   32
loop_
 _symmetry_equiv_pos_site_id
 _symmetry_equiv_pos_as_xyz
  1  'x, y, z'
loop_
 _atom_type_symbol
 _atom_type_oxidation_number
  Ba2+  2.0
  Y3+  3.0
  Fe3+  3.0
  Cu2+  2.0
  O2-  -2.0
loop_
 _atom_site_type_symbol
 _atom_site_label
 _atom_site_symmetry_multiplicity
 _atom_site_fract_x
 _atom_site_fract_y
 _atom_site_fract_z
 _atom_site_occupancy
  Ba2+  Ba0  1  -0.00576540  -0.00665055  0.01524190  1
  Ba2+  Ba1  1  0.00566799  -0.00742971  0.51532728  1
  Ba2+  Ba2  1  -0.00659504  0.25702683  0.00594414  1
  Ba2+  Ba3  1  0.00904456  0.25278703  0.51207881  1
  Ba2+  Ba4  1  -0.00144094  0.50151491  0.00639370  1
  Ba2+  Ba5  1  0.00751823  0.50612027  0.51114353  1
  Ba2+  Ba6  1  -0.00045598  0.74880432  0.01635583  1
  Ba2+  Ba7  1  0.00343893  0.74940604  0.51678198  1
  Ba2+  Ba8  1  0.25373410  -0.00471102  0.02283375  1
  Ba2+  Ba9  1  0.24697708  -0.01062676  0.50925177  1
  Ba2+  Ba10  1  0.24948476  0.24927958  0.00718425  1
  Ba2+  Ba11  1  0.24020294  0.25212307  0.51172386  1
  Ba2+  Ba12  1  0.23886444  0.50300299  0.00176438  1
  Ba2+  Ba13  1  0.24157644  0.50645961  0.51101215  1
  Ba2+  Ba14  1  0.24244765  0.75164810  0.01686173  1
  Ba2+  Ba15  1  0.24740080  0.75161159  0.51120603  1
  Ba2+  Ba16  1  0.49646291  0.00379691  0.01311653  1
  Ba2+  Ba17  1  0.50237472  -0.01107141  0.51051529  1
  Ba2+  Ba18  1  0.50511689  0.24594811  0.01112259  1
  Ba2+  Ba19  1  0.50320225  0.24456873  0.51144902  1
  Ba2+  Ba20  1  0.50925317  0.49953547  0.00691021  1
  Ba2+  Ba21  1  0.50144818  0.51304805  0.51171885  1
  Ba2+  Ba22  1  0.49925411  0.75082360  0.00673791  1
  Ba2+  Ba23  1  0.50236254  0.75298292  0.51173505  1
  Ba2+  Ba24  1  0.75641938  0.00167695  0.00595516  1
  Ba2+  Ba25  1  0.74455607  -0.00812022  0.51664517  1
  Ba2+  Ba26  1  0.75380813  0.25288005  0.01325333  1
  Ba2+  Ba27  1  0.74784366  0.24546526  0.51182734  1
  Ba2+  Ba28  1  0.75556261  0.49763934  0.01295259  1
  Ba2+  Ba29  1  0.74943114  0.51253518  0.51167469  1
  Ba2+  Ba30  1  0.75768979  0.74830494  0.00623633  1
  Ba2+  Ba31  1  0.74658792  0.75078240  0.51699190  1
  Y3+  Y32  1  -0.00059247  -0.00365416  0.25542595  1
  Y3+  Y33  1  -0.00023031  -0.00343680  0.75585502  1
  Y3+  Y34  1  -0.00100362  0.25203535  0.25731762  1
  Y3+  Y35  1  0.00170039  0.25300414  0.75736054  1
  Y3+  Y36  1  0.00117620  0.50171288  0.25714915  1
  Y3+  Y37  1  0.00249389  0.50125391  0.75817596  1
  Y3+  Y38  1  0.00199611  0.74961785  0.25594374  1
  Y3+  Y39  1  0.00039054  0.74961083  0.75748186  1
  Y3+  Y40  1  0.25089347  -0.00485752  0.25973688  1
  Y3+  Y41  1  0.24857061  -0.00276827  0.75189499  1
  Y3+  Y42  1  0.24911157  0.25029422  0.25866006  1
  Y3+  Y43  1  0.24652723  0.25133905  0.75601257  1
  Y3+  Y44  1  0.24581302  0.50209618  0.25972577  1
  Y3+  Y45  1  0.24589245  0.50227418  0.75639239  1
  Y3+  Y46  1  0.24672066  0.75139280  0.25953349  1
  Y3+  Y47  1  0.24809753  0.74884246  0.75437587  1
  Y3+  Y48  1  0.49826306  -0.00352631  0.25981580  1
  Y3+  Y49  1  0.50151383  -0.00164475  0.75402974  1
  Y3+  Y50  1  0.49967365  0.24991776  0.25695122  1
  Y3+  Y51  1  0.50104674  0.24820355  0.75668447  1
  Y3+  Y52  1  0.50160664  0.50137041  0.25862074  1
  Y3+  Y53  1  0.50076028  0.50406754  0.75705624  1
  Y3+  Y54  1  0.50070299  0.75184091  0.26128392  1
  Y3+  Y55  1  0.50053143  0.74980055  0.75437313  1
  Y3+  Y56  1  0.75167975  -0.00268121  0.25617236  1
  Y3+  Y57  1  0.74958622  -0.00256962  0.75747928  1
  Y3+  Y58  1  0.75240695  0.25184747  0.25612548  1
  Y3+  Y59  1  0.75041100  0.24888421  0.75803360  1
  Y3+  Y60  1  0.75142828  0.50044008  0.25724516  1
  Y3+  Y61  1  0.75051726  0.50370515  0.75795529  1
  Y3+  Y62  1  0.75041775  0.74999851  0.25830781  1
  Y3+  Y63  1  0.75071544  0.75049868  0.75668762  1
  Fe3+  Fe64  1  0.37434480  0.62563162  0.87985335  1
  Fe3+  Fe65  1  0.87567046  0.12381623  0.38035726  1
  Fe3+  Fe66  1  0.62514487  0.37565257  0.38044387  1
  Fe3+  Fe67  1  0.37388176  0.87533311  0.87612395  1
  Fe3+  Fe68  1  0.87564358  0.62535091  0.87524507  1
  Fe3+  Fe69  1  0.62575778  0.12351329  0.37725046  1
  Fe3+  Fe70  1  0.62492043  0.87521141  0.87951488  1
  Fe3+  Fe71  1  0.87535736  0.87415987  0.37815280  1
  Fe3+  Fe72  1  0.37423415  0.62609931  0.37670968  1
  Fe3+  Fe73  1  0.37418213  0.12395743  0.87514085  1
  Fe3+  Fe74  1  0.12508072  0.87510779  0.87722572  1
  Fe3+  Fe75  1  0.87569810  0.62635265  0.37718495  1
  Fe3+  Fe76  1  0.62628278  0.37481504  0.87509532  1
  Fe3+  Fe77  1  0.37428241  0.37598322  0.38083199  1
  Fe3+  Fe78  1  0.87580946  0.37575894  0.38136647  1
  Fe3+  Fe79  1  0.87575192  0.12493753  0.87479823  1
  Fe3+  Fe80  1  0.12480403  0.12340548  0.87943919  1
  Fe3+  Fe81  1  0.37436051  0.12416536  0.37979813  1
  Fe3+  Fe82  1  0.12419711  0.12369571  0.37601479  1
  Fe3+  Fe83  1  0.37509609  0.37524546  0.87877391  1
  Fe3+  Fe84  1  0.87514895  0.37674273  0.63437664  1
  Fe3+  Fe85  1  0.87608472  0.12412814  0.63446647  1
  Fe3+  Fe86  1  0.37462893  0.62473280  0.13486975  1
  Fe3+  Fe87  1  0.37382609  0.12411266  0.63357941  1
  Fe3+  Fe88  1  0.62555389  0.62534150  0.13714796  1
  Fe3+  Fe89  1  0.12482426  0.37517374  0.13815920  1
  Fe3+  Fe90  1  0.12407787  0.12466634  0.13482981  1
  Fe3+  Fe91  1  0.62611751  0.12442912  0.13880631  1
  Fe3+  Fe92  1  0.62528643  0.87469817  0.13479431  1
  Fe3+  Fe93  1  0.62515257  0.37593856  0.63455837  1
  Fe3+  Fe94  1  0.37472766  0.37650511  0.63443011  1
  Fe3+  Fe95  1  0.37481596  0.37613462  0.13453103  1
  Cu2+  Cu96  1  0.12407879  0.62616486  0.37065383  1
  Cu2+  Cu97  1  0.87575846  0.87477391  0.87166246  1
  Cu2+  Cu98  1  0.12328553  0.87430099  0.37071558  1
  Cu2+  Cu99  1  0.62573545  0.62609774  0.37165921  1
  Cu2+  Cu100  1  0.62497697  0.12431181  0.86355260  1
  Cu2+  Cu101  1  0.12471806  0.62680747  0.87251873  1
  Cu2+  Cu102  1  0.12456361  0.37540290  0.37269215  1
  Cu2+  Cu103  1  0.62508189  0.62601306  0.86693455  1
  Cu2+  Cu104  1  0.37463443  0.87352768  0.37370179  1
  Cu2+  Cu105  1  0.12515527  0.37486607  0.86450161  1
  Cu2+  Cu106  1  0.87455329  0.37579431  0.86916201  1
  Cu2+  Cu107  1  0.62652183  0.87450886  0.37072636  1
  Cu2+  Cu108  1  0.12458698  0.12452651  0.65038199  1
  Cu2+  Cu109  1  0.62519867  0.62583511  0.64405827  1
  Cu2+  Cu110  1  0.12458597  0.62587540  0.64423001  1
  Cu2+  Cu111  1  0.37454726  0.12526045  0.15346578  1
  Cu2+  Cu112  1  0.37445920  0.62499900  0.65099558  1
  Cu2+  Cu113  1  0.62506528  0.37511874  0.15280535  1
  Cu2+  Cu114  1  0.37620569  0.87313621  0.15176761  1
  Cu2+  Cu115  1  0.62525266  0.12464359  0.65013710  1
  Cu2+  Cu116  1  0.87361717  0.87349872  0.14126962  1
  Cu2+  Cu117  1  0.12477190  0.37658947  0.64355770  1
  Cu2+  Cu118  1  0.12483743  0.87506559  0.15109624  1
  Cu2+  Cu119  1  0.12477543  0.87368492  0.64358858  1
  Cu2+  Cu120  1  0.87604405  0.37603776  0.14321644  1
  Cu2+  Cu121  1  0.87512327  0.87416376  0.64862495  1
  Cu2+  Cu122  1  0.87565734  0.12509996  0.15209358  1
  Cu2+  Cu123  1  0.62507218  0.87411856  0.64686357  1
  Cu2+  Cu124  1  0.12480376  0.62446391  0.14193681  1
  Cu2+  Cu125  1  0.87489925  0.62467999  0.15179542  1
  Cu2+  Cu126  1  0.37473801  0.87353506  0.64145668  1
  Cu2+  Cu127  1  0.87546772  0.62522762  0.65053735  1
  O2-  O128  1  0.12468245  0.12427814  0.00599562  1
  O2-  O129  1  0.12475361  0.12418906  0.49679135  1
  O2-  O130  1  0.12583384  0.37346292  0.01737404  1
  O2-  O131  1  0.12542361  0.37505581  0.50836506  1
  O2-  O132  1  0.12455208  0.62560760  0.00797449  1
  O2-  O133  1  0.12495310  0.62700122  0.50768079  1
  O2-  O134  1  0.12632032  0.87743756  -0.00200800  1
  O2-  O135  1  0.12394505  0.87388233  0.50666490  1
  O2-  O136  1  0.37480251  0.12531089  -0.00429779  1
  O2-  O137  1  0.37402932  0.12473864  0.50620893  1
  O2-  O138  1  0.37550507  0.37438428  0.00653271  1
  O2-  O139  1  0.37526172  0.37617273  0.50728966  1
  O2-  O140  1  0.37509511  0.62374644  0.00713258  1
  O2-  O141  1  0.37427291  0.62532826  0.49747951  1
  O2-  O142  1  0.37504327  0.87717531  -0.00360603  1
  O2-  O143  1  0.37529702  0.87400825  0.50682558  1
  O2-  O144  1  0.62537788  0.12552815  0.01811363  1
  O2-  O145  1  0.62537665  0.12449056  0.49798214  1
  O2-  O146  1  0.62570990  0.37334754  -0.00387608  1
  O2-  O147  1  0.62419698  0.37530545  0.50682941  1
  O2-  O148  1  0.62462939  0.62479189  0.01658066  1
  O2-  O149  1  0.62496815  0.62612700  0.50794806  1
  O2-  O150  1  0.62408314  0.87621605  0.00765465  1
  O2-  O151  1  0.62584289  0.87393532  0.50725826  1
  O2-  O152  1  0.87561295  0.12643097  -0.00436071  1
  O2-  O153  1  0.87585912  0.12367686  0.50592246  1
  O2-  O154  1  0.87425882  0.37518580  0.00638979  1
  O2-  O155  1  0.87524805  0.37574451  0.50722708  1
  O2-  O156  1  0.87517575  0.62363527  -0.00331334  1
  O2-  O157  1  0.87576207  0.62664954  0.49761233  1
  O2-  O158  1  0.87393419  0.87516977  0.00687061  1
  O2-  O159  1  0.87458537  0.87509882  0.49858719  1
  O2-  O160  1  0.12544910  0.00109575  0.16206463  1
  O2-  O161  1  0.12469232  0.00058480  0.66388668  1
  O2-  O162  1  0.12570799  0.24882647  0.16583425  1
  O2-  O163  1  0.12515123  0.24953878  0.66594521  1
  O2-  O164  1  0.12575854  0.49808839  0.16798990  1
  O2-  O165  1  0.12515543  0.50105933  0.66627241  1
  O2-  O166  1  0.12523097  0.75141080  0.16296045  1
  O2-  O167  1  0.12492300  0.74951647  0.66623889  1
  O2-  O168  1  0.37533929  -0.00072910  0.16513634  1
  O2-  O169  1  0.37491194  0.00259978  0.66097954  1
  O2-  O170  1  0.37514764  0.25255714  0.16621320  1
  O2-  O171  1  0.37513344  0.25033376  0.66053525  1
  O2-  O172  1  0.37566613  0.49960463  0.16352728  1
  O2-  O173  1  0.37621208  0.49839162  0.66585896  1
  O2-  O174  1  0.37687784  0.74767524  0.15963517  1
  O2-  O175  1  0.37500164  0.74819645  0.66754716  1
  O2-  O176  1  0.62454067  -0.00119744  0.16429179  1
  O2-  O177  1  0.62503288  0.00076787  0.66603749  1
  O2-  O178  1  0.62477205  0.24974792  0.16826798  1
  O2-  O179  1  0.62461247  0.25213195  0.66111882  1
  O2-  O180  1  0.62453520  0.50037277  0.16712818  1
  O2-  O181  1  0.62425566  0.49700507  0.66396917  1
  O2-  O182  1  0.62428581  0.75067081  0.16367424  1
  O2-  O183  1  0.62510719  0.75001071  0.66884305  1
  O2-  O184  1  0.87448895  0.00085056  0.16449083  1
  O2-  O185  1  0.87520038  0.00129495  0.66199794  1
  O2-  O186  1  0.87505523  0.24910260  0.16886890  1
  O2-  O187  1  0.87452424  0.25042459  0.65933345  1
  O2-  O188  1  0.87465911  0.50188494  0.16754284  1
  O2-  O189  1  0.87368819  0.49875789  0.66200506  1
  O2-  O190  1  0.87400249  0.74756652  0.16261791  1
  O2-  O191  1  0.87451748  0.74969292  0.66469547  1
  O2-  O192  1  0.00166559  0.12507418  0.16329779  1
  O2-  O193  1  -0.00167402  0.12589479  0.66288118  1
  O2-  O194  1  0.00218478  0.37427886  0.16771682  1
  O2-  O195  1  -0.00336442  0.37502218  0.66425055  1
  O2-  O196  1  -0.00170423  0.62453180  0.16366538  1
  O2-  O197  1  -0.00132412  0.62479151  0.66553196  1
  O2-  O198  1  0.00037682  0.87495868  0.16338698  1
  O2-  O199  1  -0.00100685  0.87485213  0.66500786  1
  O2-  O200  1  0.24830058  0.12573773  0.16262502  1
  O2-  O201  1  0.25123687  0.12645259  0.66383908  1
  O2-  O202  1  0.25121410  0.37431248  0.16600880  1
  O2-  O203  1  0.25331049  0.37511620  0.66578610  1
  O2-  O204  1  0.25322946  0.62451228  0.16394676  1
  O2-  O205  1  0.25083299  0.62390818  0.66680692  1
  O2-  O206  1  0.25097685  0.87482408  0.16498328  1
  O2-  O207  1  0.24958714  0.87457022  0.66367407  1
  O2-  O208  1  0.50047244  0.12566642  0.16743474  1
  O2-  O209  1  0.49795057  0.12621788  0.66246672  1
  O2-  O210  1  0.49800975  0.37469845  0.16483108  1
  O2-  O211  1  0.49972228  0.37416862  0.66224479  1
  O2-  O212  1  0.49915389  0.62331022  0.16468333  1
  O2-  O213  1  0.49897207  0.62450207  0.66737345  1
  O2-  O214  1  0.50214633  0.87539799  0.16436956  1
  O2-  O215  1  0.50018914  0.87470928  0.66606447  1
  O2-  O216  1  0.74994927  0.12578780  0.16787811  1
  O2-  O217  1  0.75227566  0.12542765  0.66162406  1
  O2-  O218  1  0.74934294  0.37498963  0.16758661  1
  O2-  O219  1  0.74981604  0.37426781  0.65875968  1
  O2-  O220  1  0.74964047  0.62394430  0.16522335  1
  O2-  O221  1  0.75128694  0.62492866  0.66506818  1
  O2-  O222  1  0.74642574  0.87492199  0.16381192  1
  O2-  O223  1  0.75085719  0.87534605  0.66694667  1
  O2-  O224  1  0.12460989  0.00176149  0.34477667  1
  O2-  O225  1  0.12586856  0.00100154  0.84604791  1
  O2-  O226  1  0.12520179  0.24777873  0.34732120  1
  O2-  O227  1  0.12555205  0.24812711  0.85079297  1
  O2-  O228  1  0.12507093  0.50031834  0.35054725  1
  O2-  O229  1  0.12588225  0.49914502  0.85049086  1
  O2-  O230  1  0.12423423  0.74983893  0.34648548  1
  O2-  O231  1  0.12585809  0.75236600  0.84797349  1
  O2-  O232  1  0.37503838  0.00265693  0.35016835  1
  O2-  O233  1  0.37459751  0.00004756  0.84233236  1
  O2-  O234  1  0.37538739  0.25015127  0.35196041  1
  O2-  O235  1  0.37496877  0.25111137  0.84567207  1
  O2-  O236  1  0.37548407  0.49855558  0.34747295  1
  O2-  O237  1  0.37568333  0.49982535  0.85189861  1
  O2-  O238  1  0.37487659  0.74813021  0.34348071  1
  O2-  O239  1  0.37589701  0.74936602  0.85103655  1
  O2-  O240  1  0.62536494  0.00223778  0.34528190  1
  O2-  O241  1  0.62438096  -0.00190810  0.85016104  1
  O2-  O242  1  0.62446046  0.25120849  0.35113215  1
  O2-  O243  1  0.62389835  0.25032414  0.84433979  1
  O2-  O244  1  0.62468020  0.49653438  0.35078839  1
  O2-  O245  1  0.62390970  0.49977769  0.84701868  1
  O2-  O246  1  0.62547648  0.75008664  0.34621934  1
  O2-  O247  1  0.62357216  0.75222609  0.85322316  1
  O2-  O248  1  0.87484827  0.00120848  0.34746615  1
  O2-  O249  1  0.87497482  0.00175364  0.84539216  1
  O2-  O250  1  0.87470317  0.25004089  0.35335962  1
  O2-  O251  1  0.87549908  0.24825593  0.84279376  1
  O2-  O252  1  0.87435612  0.49857792  0.35056954  1
  O2-  O253  1  0.87439696  0.50209258  0.84503104  1
  O2-  O254  1  0.87505815  0.75028589  0.34449191  1
  O2-  O255  1  0.87474425  0.74857697  0.84771526  1
  O2-  O256  1  -0.00212999  0.12557214  0.34711679  1
  O2-  O257  1  0.00238143  0.12526444  0.84665403  1
  O2-  O258  1  -0.00317007  0.37403107  0.35020137  1
  O2-  O259  1  0.00147148  0.37464382  0.84848159  1
  O2-  O260  1  -0.00181774  0.62418626  0.34616007  1
  O2-  O261  1  -0.00053077  0.62463504  0.84775615  1
  O2-  O262  1  -0.00233276  0.87595911  0.34586407  1
  O2-  O263  1  0.00194243  0.87633617  0.84752888  1
  O2-  O264  1  0.25131112  0.12561649  0.34732941  1
  O2-  O265  1  0.24843866  0.12648265  0.84721610  1
  O2-  O266  1  0.25316579  0.37412013  0.34930537  1
  O2-  O267  1  0.25211924  0.37449012  0.85101713  1
  O2-  O268  1  0.25062482  0.62432346  0.34667809  1
  O2-  O269  1  0.25273963  0.62429226  0.85067962  1
  O2-  O270  1  0.24885228  0.87504831  0.34971019  1
  O2-  O271  1  0.25030887  0.87561956  0.84426221  1
  O2-  O272  1  0.49873610  0.12637457  0.35048306  1
  O2-  O273  1  0.49883925  0.12544185  0.84651645  1
  O2-  O274  1  0.49967905  0.37421508  0.35071148  1
  O2-  O275  1  0.49872127  0.37471923  0.84678231  1
  O2-  O276  1  0.49881951  0.62401270  0.34656797  1
  O2-  O277  1  0.49797619  0.62427833  0.85201310  1
  O2-  O278  1  0.50060989  0.87513627  0.34874951  1
  O2-  O279  1  0.50012978  0.87582159  0.84890166  1
  O2-  O280  1  0.75201873  0.12649626  0.35014241  1
  O2-  O281  1  0.75028489  0.12513691  0.84599609  1
  O2-  O282  1  0.75023643  0.37388420  0.35264135  1
  O2-  O283  1  0.74818871  0.37445776  0.84207561  1
  O2-  O284  1  0.75202081  0.62410042  0.34701132  1
  O2-  O285  1  0.74987257  0.62557450  0.84806433  1
  O2-  O286  1  0.75263228  0.87572482  0.34546315  1
  O2-  O287  1  0.74743304  0.87547402  0.85132331  1
