# generated using pymatgen
data_BaYFeCuO5
_symmetry_space_group_name_H-M   'P 1'
_cell_length_a   15.66839780
_cell_length_b   15.66745039
_cell_length_c   15.48205220
_cell_angle_alpha   90.00032603
_cell_angle_beta   89.99917861
_cell_angle_gamma   90.00229285
_symmetry_Int_Tables_number   1
_chemical_formula_structural   BaYFeCuO5
_chemical_formula_sum   'Ba32 Y32 Fe32 Cu32 O160'
_cell_volume   3800.59370151
_cell_formula_units_Z   32
loop_
 _symmetry_equiv_pos_site_id
 _symmetry_equiv_pos_as_xyz
  1  'x, y, z'
loop_
 _atom_type_symbol
 _atom_type_oxidation_number
  Ba2+  2.0
  Y3+  3.0
  Fe3+  3.0
  Cu2+  2.0
  O2-  -2.0
loop_
 _atom_site_type_symbol
 _atom_site_label
 _atom_site_symmetry_multiplicity
 _atom_site_fract_x
 _atom_site_fract_y
 _atom_site_fract_z
 _atom_site_occupancy
  Ba2+  Ba0  1  0.00071624  0.01042724  0.00673322  1
  Ba2+  Ba1  1  0.00358312  -0.00499727  0.52193995  1
  Ba2+  Ba2  1  -0.00220846  0.25489508  0.00126436  1
  Ba2+  Ba3  1  0.00327942  0.25862474  0.51038108  1
  Ba2+  Ba4  1  0.00003314  0.49789952  -0.00375913  1
  Ba2+  Ba5  1  -0.00085216  0.49670452  0.51613257  1
  Ba2+  Ba6  1  0.00265273  0.73802570  0.00240354  1
  Ba2+  Ba7  1  -0.00154847  0.74854276  0.52640952  1
  Ba2+  Ba8  1  0.24955803  0.00103625  0.00712339  1
  Ba2+  Ba9  1  0.25314842  -0.00070396  0.52059788  1
  Ba2+  Ba10  1  0.24452879  0.25516052  -0.00961588  1
  Ba2+  Ba11  1  0.25014678  0.25371888  0.51569100  1
  Ba2+  Ba12  1  0.24273769  0.49733103  -0.00405021  1
  Ba2+  Ba13  1  0.24602665  0.49164346  0.51079117  1
  Ba2+  Ba14  1  0.24693979  0.74586041  0.01220076  1
  Ba2+  Ba15  1  0.24780677  0.75617407  0.51691202  1
  Ba2+  Ba16  1  0.49959919  -0.00555337  0.01858740  1
  Ba2+  Ba17  1  0.49974174  -0.00418654  0.51485567  1
  Ba2+  Ba18  1  0.50247810  0.25895349  0.00248540  1
  Ba2+  Ba19  1  0.49743162  0.25052628  0.52131431  1
  Ba2+  Ba20  1  0.50188006  0.48996070  0.00293696  1
  Ba2+  Ba21  1  0.50267672  0.49468781  0.51722206  1
  Ba2+  Ba22  1  0.49939712  0.75686779  0.01884325  1
  Ba2+  Ba23  1  0.50408209  0.75858481  0.50869179  1
  Ba2+  Ba24  1  0.75044291  0.00186841  0.01636400  1
  Ba2+  Ba25  1  0.74337819  -0.00636484  0.51387817  1
  Ba2+  Ba26  1  0.75509520  0.25839142  0.01267538  1
  Ba2+  Ba27  1  0.74840980  0.25639471  0.51615849  1
  Ba2+  Ba28  1  0.75501129  0.49154193  0.00233108  1
  Ba2+  Ba29  1  0.75303442  0.49980962  0.52183773  1
  Ba2+  Ba30  1  0.75109360  0.74763344  0.00676718  1
  Ba2+  Ba31  1  0.74841352  0.75057910  0.52185408  1
  Y3+  Y32  1  -0.00130585  0.00224566  0.25554292  1
  Y3+  Y33  1  0.00186372  0.00103426  0.75718471  1
  Y3+  Y34  1  -0.00225463  0.25366378  0.26043695  1
  Y3+  Y35  1  0.00128307  0.25252246  0.75501702  1
  Y3+  Y36  1  -0.00009843  0.49750738  0.25941238  1
  Y3+  Y37  1  -0.00036395  0.49949167  0.75689195  1
  Y3+  Y38  1  0.00134665  0.74684752  0.25343226  1
  Y3+  Y39  1  0.00024052  0.74610664  0.75919812  1
  Y3+  Y40  1  0.25259835  -0.00131880  0.25768208  1
  Y3+  Y41  1  0.25040390  0.00132979  0.75531140  1
  Y3+  Y42  1  0.24931296  0.25339464  0.26459680  1
  Y3+  Y43  1  0.24893862  0.25128425  0.75308205  1
  Y3+  Y44  1  0.24821133  0.49918921  0.26173424  1
  Y3+  Y45  1  0.24754977  0.49833342  0.75519304  1
  Y3+  Y46  1  0.25131959  0.74959980  0.25698514  1
  Y3+  Y47  1  0.24878720  0.74858786  0.75722188  1
  Y3+  Y48  1  0.50020291  -0.00411964  0.25981442  1
  Y3+  Y49  1  0.49989102  0.00028888  0.75305112  1
  Y3+  Y50  1  0.50013875  0.25272873  0.25743200  1
  Y3+  Y51  1  0.50013159  0.25212760  0.75677496  1
  Y3+  Y52  1  0.49951951  0.49836216  0.25815709  1
  Y3+  Y53  1  0.50107587  0.49671424  0.75757929  1
  Y3+  Y54  1  0.49937290  0.75328319  0.25977386  1
  Y3+  Y55  1  0.50079575  0.75057728  0.75311342  1
  Y3+  Y56  1  0.74914389  0.00020977  0.25720958  1
  Y3+  Y57  1  0.74818943  -0.00022290  0.75361466  1
  Y3+  Y58  1  0.75272740  0.25326812  0.25574381  1
  Y3+  Y59  1  0.74962215  0.25362228  0.75781150  1
  Y3+  Y60  1  0.75172800  0.49621974  0.25568355  1
  Y3+  Y61  1  0.75200709  0.49793183  0.75905286  1
  Y3+  Y62  1  0.74786005  0.75075063  0.25638324  1
  Y3+  Y63  1  0.75006812  0.74827111  0.75663735  1
  Fe3+  Fe64  1  0.62549040  0.37526946  0.37713610  1
  Fe3+  Fe65  1  0.62460889  0.87555477  0.87683013  1
  Fe3+  Fe66  1  0.37579689  0.12509904  0.37786473  1
  Fe3+  Fe67  1  0.87392725  0.12557335  0.87478645  1
  Fe3+  Fe68  1  0.62527381  0.12509331  0.87934041  1
  Fe3+  Fe69  1  0.62611506  0.62448950  0.37753702  1
  Fe3+  Fe70  1  0.12390897  0.87493921  0.37469402  1
  Fe3+  Fe71  1  0.87513067  0.87547835  0.87863626  1
  Fe3+  Fe72  1  0.37556979  0.12524584  0.87893221  1
  Fe3+  Fe73  1  0.12513730  0.87527019  0.87881001  1
  Fe3+  Fe74  1  0.12385333  0.62601661  0.37931467  1
  Fe3+  Fe75  1  0.12487092  0.12393115  0.37973884  1
  Fe3+  Fe76  1  0.37585961  0.62473814  0.87920423  1
  Fe3+  Fe77  1  0.37524316  0.62489654  0.38153565  1
  Fe3+  Fe78  1  0.62488048  0.12580059  0.37731236  1
  Fe3+  Fe79  1  0.62437872  0.62477056  0.87926729  1
  Fe3+  Fe80  1  0.37550641  0.87469600  0.87639020  1
  Fe3+  Fe81  1  0.87575342  0.87367546  0.37576202  1
  Fe3+  Fe82  1  0.87430093  0.62533819  0.37764630  1
  Fe3+  Fe83  1  0.87476363  0.12507886  0.38106910  1
  Fe3+  Fe84  1  0.37427251  0.62317801  0.13459600  1
  Fe3+  Fe85  1  0.87563694  0.62275039  0.13512006  1
  Fe3+  Fe86  1  0.62468612  0.12684593  0.13439702  1
  Fe3+  Fe87  1  0.37396278  0.12696788  0.13368617  1
  Fe3+  Fe88  1  0.12436043  0.87521462  0.13295562  1
  Fe3+  Fe89  1  0.37249993  0.37470769  0.13782974  1
  Fe3+  Fe90  1  0.12511750  0.37525488  0.13989738  1
  Fe3+  Fe91  1  0.37511353  0.62468058  0.63553467  1
  Fe3+  Fe92  1  0.12572296  0.12811013  0.13757861  1
  Fe3+  Fe93  1  0.62463346  0.62343776  0.13353345  1
  Fe3+  Fe94  1  0.87622700  0.87456137  0.13226981  1
  Fe3+  Fe95  1  0.87472995  0.12528248  0.63471805  1
  Cu2+  Cu96  1  0.62602343  0.37438894  0.87126545  1
  Cu2+  Cu97  1  0.37395020  0.87498742  0.37360534  1
  Cu2+  Cu98  1  0.12415635  0.37538183  0.37459870  1
  Cu2+  Cu99  1  0.37445319  0.37501829  0.86145668  1
  Cu2+  Cu100  1  0.87413730  0.62481975  0.86434397  1
  Cu2+  Cu101  1  0.12446674  0.37464382  0.85758382  1
  Cu2+  Cu102  1  0.62647285  0.87482974  0.37080775  1
  Cu2+  Cu103  1  0.37616249  0.37516854  0.37612178  1
  Cu2+  Cu104  1  0.12578100  0.62464619  0.87075169  1
  Cu2+  Cu105  1  0.87398929  0.37601522  0.37532997  1
  Cu2+  Cu106  1  0.87575938  0.37415606  0.86935486  1
  Cu2+  Cu107  1  0.12530779  0.12514731  0.86162136  1
  Cu2+  Cu108  1  0.62608212  0.87471595  0.15000910  1
  Cu2+  Cu109  1  0.87553711  0.12626475  0.15060654  1
  Cu2+  Cu110  1  0.37481634  0.37577722  0.64407486  1
  Cu2+  Cu111  1  0.37363297  0.87529639  0.15001425  1
  Cu2+  Cu112  1  0.12537576  0.62450298  0.64907513  1
  Cu2+  Cu113  1  0.12484885  0.87436206  0.65731651  1
  Cu2+  Cu114  1  0.37497569  0.87401921  0.64302160  1
  Cu2+  Cu115  1  0.87510678  0.87502942  0.65531344  1
  Cu2+  Cu116  1  0.37529156  0.12539660  0.65202768  1
  Cu2+  Cu117  1  0.62457214  0.62413154  0.65209327  1
  Cu2+  Cu118  1  0.62498574  0.87459887  0.64447124  1
  Cu2+  Cu119  1  0.62538790  0.37516494  0.65342386  1
  Cu2+  Cu120  1  0.12437271  0.37539754  0.64440009  1
  Cu2+  Cu121  1  0.62464585  0.37550988  0.14177292  1
  Cu2+  Cu122  1  0.12462761  0.12525519  0.64773068  1
  Cu2+  Cu123  1  0.87528260  0.37478732  0.64366972  1
  Cu2+  Cu124  1  0.87485963  0.62458784  0.65375942  1
  Cu2+  Cu125  1  0.62530341  0.12569905  0.64923714  1
  Cu2+  Cu126  1  0.87711105  0.37581356  0.14296606  1
  Cu2+  Cu127  1  0.12546094  0.62248492  0.14109193  1
  O2-  O128  1  0.12608345  0.12824438  0.01706602  1
  O2-  O129  1  0.12511146  0.12037969  0.49958598  1
  O2-  O130  1  0.12543952  0.37398105  0.01914914  1
  O2-  O131  1  0.12474136  0.37527076  0.50920915  1
  O2-  O132  1  0.12675382  0.62385363  0.00576087  1
  O2-  O133  1  0.12343848  0.62915324  0.49925432  1
  O2-  O134  1  0.12493713  0.87571046  0.00560916  1
  O2-  O135  1  0.12295267  0.87450300  0.49458938  1
  O2-  O136  1  0.37395345  0.12610683  0.00685729  1
  O2-  O137  1  0.37642932  0.12380217  0.49795183  1
  O2-  O138  1  0.37113910  0.37456757  0.01746048  1
  O2-  O139  1  0.37653054  0.37520700  0.50945315  1
  O2-  O140  1  0.37560752  0.62440554  0.00690709  1
  O2-  O141  1  0.37522637  0.62560623  0.50789826  1
  O2-  O142  1  0.37562026  0.87579532  -0.00327038  1
  O2-  O143  1  0.37400116  0.87480335  0.50699098  1
  O2-  O144  1  0.62558042  0.12495688  0.00580042  1
  O2-  O145  1  0.62409447  0.12549063  0.49731237  1
  O2-  O146  1  0.62495091  0.37447929  0.00656283  1
  O2-  O147  1  0.62523531  0.37531257  0.49774640  1
  O2-  O148  1  0.62339442  0.62495083  0.00634329  1
  O2-  O149  1  0.62687803  0.62475746  0.49735891  1
  O2-  O150  1  0.62441292  0.87611126  -0.00274236  1
  O2-  O151  1  0.62656437  0.87432052  0.50649661  1
  O2-  O152  1  0.87385565  0.12510339  -0.00475014  1
  O2-  O153  1  0.87498764  0.12314257  0.50674368  1
  O2-  O154  1  0.87742528  0.37497824  0.00651185  1
  O2-  O155  1  0.87358075  0.37545777  0.50881352  1
  O2-  O156  1  0.87501251  0.62292712  0.01483326  1
  O2-  O157  1  0.87388083  0.62812671  0.49763931  1
  O2-  O158  1  0.87585722  0.87619582  0.00513006  1
  O2-  O159  1  0.87604300  0.87336719  0.49539815  1
  O2-  O160  1  0.12407666  -0.00038278  0.15995082  1
  O2-  O161  1  0.12511043  -0.00072413  0.66685444  1
  O2-  O162  1  0.12562729  0.25040441  0.17290130  1
  O2-  O163  1  0.12504592  0.24898297  0.66458623  1
  O2-  O164  1  0.12619916  0.49790097  0.17026096  1
  O2-  O165  1  0.12494060  0.50130563  0.66591641  1
  O2-  O166  1  0.12494740  0.75250734  0.15857429  1
  O2-  O167  1  0.12523160  0.74974052  0.66771978  1
  O2-  O168  1  0.37502877  0.00199883  0.16052569  1
  O2-  O169  1  0.37502620  0.00098846  0.66603208  1
  O2-  O170  1  0.37450741  0.24887810  0.16720124  1
  O2-  O171  1  0.37524092  0.24917248  0.66645146  1
  O2-  O172  1  0.37496090  0.50055217  0.16774553  1
  O2-  O173  1  0.37583883  0.50309084  0.66683298  1
  O2-  O174  1  0.37497671  0.74878426  0.16181841  1
  O2-  O175  1  0.37473794  0.74685699  0.66597414  1
  O2-  O176  1  0.62526732  0.00183704  0.16188962  1
  O2-  O177  1  0.62470626  0.00102588  0.66542809  1
  O2-  O178  1  0.62460643  0.24778089  0.16318673  1
  O2-  O179  1  0.62529185  0.25051194  0.66600789  1
  O2-  O180  1  0.62377808  0.50282818  0.16391155  1
  O2-  O181  1  0.62449849  0.49960066  0.66695398  1
  O2-  O182  1  0.62432276  0.74805495  0.16099589  1
  O2-  O183  1  0.62551182  0.74853278  0.66759759  1
  O2-  O184  1  0.87547662  -0.00159142  0.16085434  1
  O2-  O185  1  0.87505412  0.00118162  0.66354768  1
  O2-  O186  1  0.87554648  0.24962818  0.16771004  1
  O2-  O187  1  0.87432496  0.24694370  0.66289625  1
  O2-  O188  1  0.87496564  0.50150099  0.16790261  1
  O2-  O189  1  0.87476568  0.50097412  0.66587501  1
  O2-  O190  1  0.87541595  0.75084034  0.15939285  1
  O2-  O191  1  0.87463502  0.75008806  0.66800024  1
  O2-  O192  1  0.00079372  0.12517082  0.16664925  1
  O2-  O193  1  -0.00191709  0.12339716  0.66372425  1
  O2-  O194  1  0.00205863  0.37454880  0.16963965  1
  O2-  O195  1  -0.00014558  0.37494388  0.66530202  1
  O2-  O196  1  -0.00127314  0.62508676  0.16473319  1
  O2-  O197  1  -0.00003690  0.62603976  0.66564226  1
  O2-  O198  1  -0.00008268  0.87568338  0.15918790  1
  O2-  O199  1  0.00015361  0.87490586  0.66839103  1
  O2-  O200  1  0.25102928  0.12381393  0.16577634  1
  O2-  O201  1  0.25004671  0.12439248  0.66561095  1
  O2-  O202  1  0.25029304  0.37486869  0.17356162  1
  O2-  O203  1  0.24956322  0.37545696  0.66512568  1
  O2-  O204  1  0.25321457  0.62553602  0.16561514  1
  O2-  O205  1  0.25157043  0.62556363  0.66446824  1
  O2-  O206  1  0.24736129  0.87582336  0.16136423  1
  O2-  O207  1  0.24873851  0.87458570  0.66739027  1
  O2-  O208  1  0.49929357  0.12497451  0.15732328  1
  O2-  O209  1  0.50042154  0.12567764  0.66768281  1
  O2-  O210  1  0.49701083  0.37502610  0.16455311  1
  O2-  O211  1  0.50146434  0.37483350  0.66654875  1
  O2-  O212  1  0.49931130  0.62561474  0.16176015  1
  O2-  O213  1  0.49876538  0.62482494  0.66453756  1
  O2-  O214  1  0.49985376  0.87475919  0.16373968  1
  O2-  O215  1  0.50022517  0.87460457  0.66456931  1
  O2-  O216  1  0.74894521  0.12496614  0.16147978  1
  O2-  O217  1  0.75147159  0.12392801  0.66248638  1
  O2-  O218  1  0.75064297  0.37487060  0.16243546  1
  O2-  O219  1  0.74895520  0.37533185  0.66638965  1
  O2-  O220  1  0.74869117  0.62588646  0.16082771  1
  O2-  O221  1  0.74952166  0.62498899  0.66714201  1
  O2-  O222  1  0.75281365  0.87514430  0.15955488  1
  O2-  O223  1  0.75088078  0.87487740  0.66710340  1
  O2-  O224  1  0.12430329  0.00010706  0.34054004  1
  O2-  O225  1  0.12547699  -0.00204313  0.85127908  1
  O2-  O226  1  0.12431906  0.24775615  0.35245388  1
  O2-  O227  1  0.12484675  0.25002737  0.84850629  1
  O2-  O228  1  0.12512020  0.50254502  0.35091307  1
  O2-  O229  1  0.12563332  0.49851872  0.84923401  1
  O2-  O230  1  0.12473658  0.74977154  0.33994461  1
  O2-  O231  1  0.12509272  0.75330528  0.85111349  1
  O2-  O232  1  0.37521449  0.00206527  0.34347118  1
  O2-  O233  1  0.37492515  0.00091984  0.84906802  1
  O2-  O234  1  0.37603343  0.24828581  0.34780946  1
  O2-  O235  1  0.37526502  0.24857562  0.85140726  1
  O2-  O236  1  0.37537726  0.50355992  0.35060194  1
  O2-  O237  1  0.37549664  0.50095984  0.85195255  1
  O2-  O238  1  0.37494689  0.74637952  0.34699788  1
  O2-  O239  1  0.37582511  0.74929275  0.84853697  1
  O2-  O240  1  0.62594914  0.00202531  0.34523384  1
  O2-  O241  1  0.62501450  0.00084636  0.84782188  1
  O2-  O242  1  0.62548947  0.25003685  0.34415140  1
  O2-  O243  1  0.62458303  0.24672094  0.85012068  1
  O2-  O244  1  0.62479977  0.50010401  0.34436233  1
  O2-  O245  1  0.62484648  0.50256060  0.85185488  1
  O2-  O246  1  0.62479978  0.74804812  0.34386907  1
  O2-  O247  1  0.62445800  0.74942934  0.85007488  1
  O2-  O248  1  0.87491898  0.00116268  0.34480762  1
  O2-  O249  1  0.87472535  -0.00128163  0.84683234  1
  O2-  O250  1  0.87430916  0.24733986  0.35202550  1
  O2-  O251  1  0.87551137  0.24786072  0.84492693  1
  O2-  O252  1  0.87405602  0.50215385  0.34833412  1
  O2-  O253  1  0.87469121  0.50065245  0.84970515  1
  O2-  O254  1  0.87500480  0.74970396  0.33946848  1
  O2-  O255  1  0.87516766  0.75233779  0.85290866  1
  O2-  O256  1  -0.00147720  0.12413682  0.34894775  1
  O2-  O257  1  -0.00022956  0.12352094  0.84796898  1
  O2-  O258  1  -0.00068679  0.37522133  0.35159965  1
  O2-  O259  1  0.00126194  0.37456797  0.84802374  1
  O2-  O260  1  -0.00036077  0.62578811  0.34473714  1
  O2-  O261  1  -0.00114018  0.62531285  0.85042815  1
  O2-  O262  1  -0.00038277  0.87531339  0.33934829  1
  O2-  O263  1  -0.00008564  0.87600229  0.85316426  1
  O2-  O264  1  0.24973868  0.12421753  0.34651932  1
  O2-  O265  1  0.25182416  0.12483241  0.85133426  1
  O2-  O266  1  0.24986482  0.37552080  0.35381475  1
  O2-  O267  1  0.24947501  0.37465111  0.84870066  1
  O2-  O268  1  0.25015586  0.62606714  0.34934610  1
  O2-  O269  1  0.25382975  0.62515512  0.84916845  1
  O2-  O270  1  0.24730499  0.87451348  0.34396941  1
  O2-  O271  1  0.24973127  0.87507803  0.85020237  1
  O2-  O272  1  0.50076713  0.12469804  0.34083940  1
  O2-  O273  1  0.50005646  0.12461051  0.85283149  1
  O2-  O274  1  0.50254988  0.37557375  0.34490920  1
  O2-  O275  1  0.49901730  0.37501030  0.85051184  1
  O2-  O276  1  0.49974459  0.62527743  0.34691629  1
  O2-  O277  1  0.50016940  0.62477532  0.84949188  1
  O2-  O278  1  0.50020428  0.87471744  0.34904180  1
  O2-  O279  1  0.50010461  0.87518394  0.84497152  1
  O2-  O280  1  0.75120863  0.12438829  0.34606584  1
  O2-  O281  1  0.74827246  0.12399664  0.84605018  1
  O2-  O282  1  0.74794936  0.37479189  0.34461418  1
  O2-  O283  1  0.75064805  0.37422770  0.84901910  1
  O2-  O284  1  0.74997721  0.62567645  0.34147700  1
  O2-  O285  1  0.74780342  0.62628658  0.85246314  1
  O2-  O286  1  0.75285634  0.87540906  0.34214192  1
  O2-  O287  1  0.75059948  0.87494446  0.85001631  1
