# generated using pymatgen
data_BaYFeCuO5
_symmetry_space_group_name_H-M   'P 1'
_cell_length_a   15.64798977
_cell_length_b   15.65073370
_cell_length_c   15.44469765
_cell_angle_alpha   89.99943197
_cell_angle_beta   90.00394891
_cell_angle_gamma   90.00628726
_symmetry_Int_Tables_number   1
_chemical_formula_structural   BaYFeCuO5
_chemical_formula_sum   'Ba32 Y32 Fe32 Cu32 O160'
_cell_volume   3782.44535496
_cell_formula_units_Z   32
loop_
 _symmetry_equiv_pos_site_id
 _symmetry_equiv_pos_as_xyz
  1  'x, y, z'
loop_
 _atom_type_symbol
 _atom_type_oxidation_number
  Ba2+  2.0
  Y3+  3.0
  Fe3+  3.0
  Cu2+  2.0
  O2-  -2.0
loop_
 _atom_site_type_symbol
 _atom_site_label
 _atom_site_symmetry_multiplicity
 _atom_site_fract_x
 _atom_site_fract_y
 _atom_site_fract_z
 _atom_site_occupancy
  Ba2+  Ba0  1  -0.00452228  0.00435858  0.01216302  1
  Ba2+  Ba1  1  0.00660987  -0.00742632  0.50676180  1
  Ba2+  Ba2  1  -0.00387854  0.25663453  0.02198120  1
  Ba2+  Ba3  1  -0.00033500  0.25954201  0.50574087  1
  Ba2+  Ba4  1  0.00245111  0.50112076  0.02242839  1
  Ba2+  Ba5  1  -0.00134629  0.50551790  0.50673876  1
  Ba2+  Ba6  1  0.00287408  0.73837647  0.01145346  1
  Ba2+  Ba7  1  0.00445114  0.74204250  0.50703594  1
  Ba2+  Ba8  1  0.26096417  -0.00319255  0.01149062  1
  Ba2+  Ba9  1  0.25265995  0.00076680  0.50680268  1
  Ba2+  Ba10  1  0.25579231  0.25792017  0.01515168  1
  Ba2+  Ba11  1  0.25901995  0.25125757  0.50736368  1
  Ba2+  Ba12  1  0.24941063  0.50064198  0.01724036  1
  Ba2+  Ba13  1  0.24354685  0.49843988  0.50552472  1
  Ba2+  Ba14  1  0.25423261  0.74441324  0.01221630  1
  Ba2+  Ba15  1  0.23877402  0.74952719  0.50769528  1
  Ba2+  Ba16  1  0.50010262  -0.00038656  0.01618426  1
  Ba2+  Ba17  1  0.50092284  0.00763548  0.51712864  1
  Ba2+  Ba18  1  0.49610085  0.24639748  0.01135867  1
  Ba2+  Ba19  1  0.50076286  0.25052792  0.51823557  1
  Ba2+  Ba20  1  0.49305415  0.50165694  0.00641422  1
  Ba2+  Ba21  1  0.50655957  0.49299693  0.50669084  1
  Ba2+  Ba22  1  0.49664638  0.75288497  0.01151695  1
  Ba2+  Ba23  1  0.50837626  0.74986869  0.50778925  1
  Ba2+  Ba24  1  0.74191142  0.00514372  0.01405114  1
  Ba2+  Ba25  1  0.74033707  0.00001024  0.51761276  1
  Ba2+  Ba26  1  0.75103014  0.24482280  0.01591366  1
  Ba2+  Ba27  1  0.74302390  0.25700689  0.51553354  1
  Ba2+  Ba28  1  0.75479422  0.50281075  0.01315812  1
  Ba2+  Ba29  1  0.75045964  0.49957822  0.50702322  1
  Ba2+  Ba30  1  0.74441190  0.74611819  0.01035685  1
  Ba2+  Ba31  1  0.75001571  0.74122394  0.50595732  1
  Y3+  Y32  1  0.00085960  -0.00095066  0.25850741  1
  Y3+  Y33  1  0.00164675  -0.00199902  0.75553436  1
  Y3+  Y34  1  0.00002831  0.25246592  0.25681214  1
  Y3+  Y35  1  -0.00048486  0.25180592  0.75524182  1
  Y3+  Y36  1  0.00173348  0.50246916  0.25976752  1
  Y3+  Y37  1  0.00047516  0.50305091  0.75378374  1
  Y3+  Y38  1  0.00196698  0.74587885  0.26099915  1
  Y3+  Y39  1  0.00258875  0.74694499  0.75375582  1
  Y3+  Y40  1  0.25332783  -0.00069420  0.25956263  1
  Y3+  Y41  1  0.25195676  -0.00186446  0.75554920  1
  Y3+  Y42  1  0.25283915  0.25175796  0.25746299  1
  Y3+  Y43  1  0.25391625  0.25139425  0.75662988  1
  Y3+  Y44  1  0.24833466  0.50016692  0.25667270  1
  Y3+  Y45  1  0.24936072  0.50033220  0.75871803  1
  Y3+  Y46  1  0.24862338  0.74904877  0.25820991  1
  Y3+  Y47  1  0.24716250  0.74953755  0.75813338  1
  Y3+  Y48  1  0.49841553  0.00155894  0.25455343  1
  Y3+  Y49  1  0.49967458  0.00185112  0.75865146  1
  Y3+  Y50  1  0.49888650  0.24914319  0.25652697  1
  Y3+  Y51  1  0.49968192  0.25061324  0.75785710  1
  Y3+  Y52  1  0.50002580  0.49845654  0.25797018  1
  Y3+  Y53  1  0.49939964  0.49679129  0.75815470  1
  Y3+  Y54  1  0.49891072  0.75119018  0.25573013  1
  Y3+  Y55  1  0.49949617  0.75032887  0.75944150  1
  Y3+  Y56  1  0.74792367  0.00117296  0.25299900  1
  Y3+  Y57  1  0.74653049  0.00111185  0.75829624  1
  Y3+  Y58  1  0.74849867  0.25039953  0.25532444  1
  Y3+  Y59  1  0.74626964  0.25125465  0.75678511  1
  Y3+  Y60  1  0.75047484  0.50109194  0.26065704  1
  Y3+  Y61  1  0.75055192  0.49939806  0.75438981  1
  Y3+  Y62  1  0.75026107  0.74771383  0.25848427  1
  Y3+  Y63  1  0.74979069  0.74831521  0.75590270  1
  Fe3+  Fe64  1  0.62442917  0.12597571  0.37540267  1
  Fe3+  Fe65  1  0.87520262  0.62443890  0.87600476  1
  Fe3+  Fe66  1  0.37571831  0.62511993  0.38023063  1
  Fe3+  Fe67  1  0.37468539  0.12500987  0.87636037  1
  Fe3+  Fe68  1  0.62426663  0.87493665  0.87678613  1
  Fe3+  Fe69  1  0.12486420  0.87460960  0.88087899  1
  Fe3+  Fe70  1  0.37592875  0.87504502  0.38013039  1
  Fe3+  Fe71  1  0.37438241  0.62498124  0.87542140  1
  Fe3+  Fe72  1  0.62507758  0.87597728  0.37565238  1
  Fe3+  Fe73  1  0.87564824  0.37552922  0.87617323  1
  Fe3+  Fe74  1  0.87498140  0.87454937  0.87929112  1
  Fe3+  Fe75  1  0.12423310  0.37576370  0.87815896  1
  Fe3+  Fe76  1  0.87427044  0.37501823  0.37556021  1
  Fe3+  Fe77  1  0.37609664  0.37490921  0.37655969  1
  Fe3+  Fe78  1  0.12578814  0.12607526  0.37856665  1
  Fe3+  Fe79  1  0.87513629  0.12577669  0.87522413  1
  Fe3+  Fe80  1  0.87379174  0.12459666  0.37940887  1
  Fe3+  Fe81  1  0.12532915  0.12614553  0.88026609  1
  Fe3+  Fe82  1  0.62513927  0.37538771  0.88057904  1
  Fe3+  Fe83  1  0.87425670  0.87493450  0.37909220  1
  Fe3+  Fe84  1  0.12522682  0.87461650  0.13551825  1
  Fe3+  Fe85  1  0.12649153  0.12527635  0.13542056  1
  Fe3+  Fe86  1  0.12581732  0.12554212  0.63409538  1
  Fe3+  Fe87  1  0.12562695  0.37510080  0.63639534  1
  Fe3+  Fe88  1  0.37557404  0.87357489  0.63496161  1
  Fe3+  Fe89  1  0.87503874  0.12528066  0.63259840  1
  Fe3+  Fe90  1  0.87489038  0.87359637  0.13458495  1
  Fe3+  Fe91  1  0.62406483  0.62414891  0.63960793  1
  Fe3+  Fe92  1  0.87447928  0.87387932  0.63429765  1
  Fe3+  Fe93  1  0.62481812  0.37552497  0.13508837  1
  Fe3+  Fe94  1  0.37465685  0.62402899  0.63390828  1
  Fe3+  Fe95  1  0.62394298  0.62454447  0.13875644  1
  Cu2+  Cu96  1  0.12645382  0.62416220  0.37136228  1
  Cu2+  Cu97  1  0.62502190  0.37391809  0.37060195  1
  Cu2+  Cu98  1  0.37419334  0.37536303  0.87311754  1
  Cu2+  Cu99  1  0.12459272  0.62397361  0.87277506  1
  Cu2+  Cu100  1  0.62510611  0.62409789  0.86477702  1
  Cu2+  Cu101  1  0.12548693  0.37435850  0.36395960  1
  Cu2+  Cu102  1  0.37650024  0.12522375  0.37325797  1
  Cu2+  Cu103  1  0.37467738  0.87477976  0.87177404  1
  Cu2+  Cu104  1  0.87487913  0.62488886  0.37274583  1
  Cu2+  Cu105  1  0.62442707  0.12592748  0.87317837  1
  Cu2+  Cu106  1  0.12536750  0.87524383  0.37188456  1
  Cu2+  Cu107  1  0.62384746  0.62487618  0.36323869  1
  Cu2+  Cu108  1  0.12524644  0.37513479  0.15258823  1
  Cu2+  Cu109  1  0.62366630  0.12581177  0.14129426  1
  Cu2+  Cu110  1  0.87395158  0.37624357  0.15343485  1
  Cu2+  Cu111  1  0.87460346  0.62567614  0.15405447  1
  Cu2+  Cu112  1  0.62499664  0.12550234  0.65345509  1
  Cu2+  Cu113  1  0.12557399  0.87489153  0.64191958  1
  Cu2+  Cu114  1  0.37470592  0.37621168  0.64983315  1
  Cu2+  Cu115  1  0.12578971  0.62524655  0.14352522  1
  Cu2+  Cu116  1  0.12625290  0.62412512  0.64314264  1
  Cu2+  Cu117  1  0.37466769  0.12536019  0.64175906  1
  Cu2+  Cu118  1  0.62458885  0.37614925  0.64406568  1
  Cu2+  Cu119  1  0.62498409  0.87425717  0.15038632  1
  Cu2+  Cu120  1  0.87484248  0.62477189  0.64091888  1
  Cu2+  Cu121  1  0.37555526  0.62491413  0.15502923  1
  Cu2+  Cu122  1  0.87591244  0.12451771  0.15284541  1
  Cu2+  Cu123  1  0.87525879  0.37511656  0.64810400  1
  Cu2+  Cu124  1  0.62454959  0.87425507  0.65147967  1
  Cu2+  Cu125  1  0.37438740  0.87408977  0.14265397  1
  Cu2+  Cu126  1  0.37610325  0.37625441  0.14240268  1
  Cu2+  Cu127  1  0.37384313  0.12529138  0.15163629  1
  O2-  O128  1  0.12484794  0.12555292  0.00640135  1
  O2-  O129  1  0.12484658  0.12584168  0.50676010  1
  O2-  O130  1  0.12305773  0.37473910  -0.00111498  1
  O2-  O131  1  0.12586145  0.37306449  0.51554726  1
  O2-  O132  1  0.12508584  0.62405842  0.00869435  1
  O2-  O133  1  0.12579681  0.62353758  0.50686571  1
  O2-  O134  1  0.12400217  0.87531801  0.00807363  1
  O2-  O135  1  0.12527248  0.87636433  0.50702703  1
  O2-  O136  1  0.37298712  0.12459587  -0.00243310  1
  O2-  O137  1  0.37609373  0.12475580  0.50762999  1
  O2-  O138  1  0.37501046  0.37624700  0.00772927  1
  O2-  O139  1  0.37666275  0.37490816  0.49753853  1
  O2-  O140  1  0.37475038  0.62539166  -0.00315615  1
  O2-  O141  1  0.37583074  0.62486437  0.50702040  1
  O2-  O142  1  0.37516241  0.87405396  0.00764333  1
  O2-  O143  1  0.37633184  0.87448567  0.50713107  1
  O2-  O144  1  0.62479845  0.12562188  0.00664785  1
  O2-  O145  1  0.62586602  0.12556831  0.49622553  1
  O2-  O146  1  0.62605771  0.37568802  0.00776972  1
  O2-  O147  1  0.62507579  0.37462127  0.50735816  1
  O2-  O148  1  0.62476676  0.62394874  0.01808145  1
  O2-  O149  1  0.62446366  0.62416823  0.51821314  1
  O2-  O150  1  0.62521898  0.87488462  -0.00239900  1
  O2-  O151  1  0.62547628  0.87625090  0.49619714  1
  O2-  O152  1  0.87692218  0.12582269  -0.00416846  1
  O2-  O153  1  0.87389779  0.12421116  0.50542464  1
  O2-  O154  1  0.87594619  0.37500064  -0.00365715  1
  O2-  O155  1  0.87359359  0.37416371  0.49651590  1
  O2-  O156  1  0.87503029  0.62477715  -0.00313286  1
  O2-  O157  1  0.87442705  0.62547369  0.50667700  1
  O2-  O158  1  0.87523165  0.87479725  0.00599447  1
  O2-  O159  1  0.87365750  0.87514909  0.50629025  1
  O2-  O160  1  0.12423103  -0.00000527  0.16257972  1
  O2-  O161  1  0.12479761  0.00311176  0.66602139  1
  O2-  O162  1  0.12464598  0.24865516  0.16282710  1
  O2-  O163  1  0.12419920  0.24876095  0.66550447  1
  O2-  O164  1  0.12505268  0.49895016  0.16580988  1
  O2-  O165  1  0.12564350  0.49793025  0.66515556  1
  O2-  O166  1  0.12438110  0.75295332  0.16487104  1
  O2-  O167  1  0.12514523  0.74954081  0.66657125  1
  O2-  O168  1  0.37387811  0.00128655  0.16675875  1
  O2-  O169  1  0.37479408  -0.00318108  0.66279509  1
  O2-  O170  1  0.37429656  0.24913180  0.16394455  1
  O2-  O171  1  0.37512957  0.25190295  0.66468639  1
  O2-  O172  1  0.37542102  0.50207943  0.16650188  1
  O2-  O173  1  0.37495736  0.50139986  0.66290535  1
  O2-  O174  1  0.37460328  0.74804371  0.16829793  1
  O2-  O175  1  0.37574834  0.74948703  0.66176358  1
  O2-  O176  1  0.62498903  -0.00120022  0.16273272  1
  O2-  O177  1  0.62556958  -0.00022585  0.66302678  1
  O2-  O178  1  0.62553895  0.25275643  0.16216372  1
  O2-  O179  1  0.62481338  0.24947657  0.66570233  1
  O2-  O180  1  0.62566710  0.49918892  0.16702248  1
  O2-  O181  1  0.62436660  0.50157702  0.66934225  1
  O2-  O182  1  0.62515196  0.74938833  0.16695392  1
  O2-  O183  1  0.62455669  0.74918204  0.66664405  1
  O2-  O184  1  0.87620304  -0.00253441  0.16404018  1
  O2-  O185  1  0.87505686  0.00038576  0.66122134  1
  O2-  O186  1  0.87560245  0.24983488  0.16415071  1
  O2-  O187  1  0.87593948  0.24765986  0.65987511  1
  O2-  O188  1  0.87437026  0.50109624  0.16496043  1
  O2-  O189  1  0.87492291  0.49878003  0.66329274  1
  O2-  O190  1  0.87576439  0.75222739  0.16557165  1
  O2-  O191  1  0.87489220  0.75266652  0.66447865  1
  O2-  O192  1  0.00246096  0.12430879  0.16556132  1
  O2-  O193  1  0.00000184  0.12394696  0.66083999  1
  O2-  O194  1  -0.00102234  0.37471845  0.16524687  1
  O2-  O195  1  0.00074395  0.37385929  0.66307197  1
  O2-  O196  1  -0.00152800  0.62552633  0.16659904  1
  O2-  O197  1  0.00073668  0.62528376  0.66285405  1
  O2-  O198  1  0.00030765  0.87631585  0.16291042  1
  O2-  O199  1  -0.00301309  0.87626998  0.66477177  1
  O2-  O200  1  0.24790331  0.12442599  0.16600197  1
  O2-  O201  1  0.24713072  0.12530825  0.66326987  1
  O2-  O202  1  0.24957298  0.37532250  0.16591722  1
  O2-  O203  1  0.24949584  0.37420469  0.66587641  1
  O2-  O204  1  0.25220088  0.62542321  0.16681025  1
  O2-  O205  1  0.25309793  0.62546175  0.66382881  1
  O2-  O206  1  0.24650709  0.87571976  0.16595241  1
  O2-  O207  1  0.25325581  0.87440812  0.66511956  1
  O2-  O208  1  0.49761287  0.12485159  0.16314341  1
  O2-  O209  1  0.50139880  0.12502988  0.66498349  1
  O2-  O210  1  0.50312355  0.37554086  0.16360446  1
  O2-  O211  1  0.49842565  0.37513655  0.66716045  1
  O2-  O212  1  0.49997823  0.62531060  0.16769692  1
  O2-  O213  1  0.49820924  0.62515935  0.66562370  1
  O2-  O214  1  0.50090971  0.87463196  0.16493537  1
  O2-  O215  1  0.49871375  0.87464472  0.66205061  1
  O2-  O216  1  0.75165767  0.12430243  0.16356829  1
  O2-  O217  1  0.75165588  0.12470535  0.66240981  1
  O2-  O218  1  0.74855792  0.37509474  0.16189325  1
  O2-  O219  1  0.75150358  0.37441442  0.66555706  1
  O2-  O220  1  0.74941970  0.62600057  0.16614826  1
  O2-  O221  1  0.74828680  0.62540190  0.66602357  1
  O2-  O222  1  0.75181893  0.87500323  0.16125992  1
  O2-  O223  1  0.75141278  0.87576113  0.66413800  1
  O2-  O224  1  0.12433775  0.00350372  0.34776553  1
  O2-  O225  1  0.12309663  0.00051257  0.85149465  1
  O2-  O226  1  0.12432326  0.24762780  0.34768588  1
  O2-  O227  1  0.12394771  0.24852720  0.84779378  1
  O2-  O228  1  0.12590311  0.49846215  0.34961235  1
  O2-  O229  1  0.12415006  0.49851877  0.84650933  1
  O2-  O230  1  0.12536472  0.74987456  0.34850522  1
  O2-  O231  1  0.12392329  0.75249035  0.85110395  1
  O2-  O232  1  0.37523413  -0.00280909  0.35099254  1
  O2-  O233  1  0.37371981  0.00174618  0.84558835  1
  O2-  O234  1  0.37504682  0.25144750  0.34697047  1
  O2-  O235  1  0.37378574  0.24837039  0.84770199  1
  O2-  O236  1  0.37564484  0.50102552  0.34991061  1
  O2-  O237  1  0.37490330  0.50169408  0.84610737  1
  O2-  O238  1  0.37584279  0.75052428  0.35270699  1
  O2-  O239  1  0.37424113  0.74836019  0.84492992  1
  O2-  O240  1  0.62588046  0.00025180  0.34390758  1
  O2-  O241  1  0.62537861  -0.00146384  0.84645114  1
  O2-  O242  1  0.62585222  0.24794724  0.34379784  1
  O2-  O243  1  0.62562627  0.25355390  0.84964832  1
  O2-  O244  1  0.62449076  0.50113530  0.35028859  1
  O2-  O245  1  0.62540544  0.49819206  0.85183810  1
  O2-  O246  1  0.62522415  0.75107302  0.34953241  1
  O2-  O247  1  0.62608491  0.75006113  0.84859338  1
  O2-  O248  1  0.87535578  0.00043612  0.34964151  1
  O2-  O249  1  0.87623434  -0.00146143  0.84623423  1
  O2-  O250  1  0.87561685  0.24782337  0.34826746  1
  O2-  O251  1  0.87542629  0.25031102  0.84231480  1
  O2-  O252  1  0.87509033  0.49871245  0.34861944  1
  O2-  O253  1  0.87471972  0.49980399  0.84477354  1
  O2-  O254  1  0.87459336  0.75266108  0.35056753  1
  O2-  O255  1  0.87500089  0.75163315  0.84820397  1
  O2-  O256  1  -0.00088748  0.12423620  0.35164138  1
  O2-  O257  1  0.00132630  0.12410525  0.84444290  1
  O2-  O258  1  -0.00034964  0.37358368  0.34901481  1
  O2-  O259  1  -0.00033321  0.37419627  0.84310946  1
  O2-  O260  1  0.00099228  0.62517679  0.35030754  1
  O2-  O261  1  -0.00213854  0.62615776  0.84519517  1
  O2-  O262  1  -0.00317644  0.87649781  0.34839981  1
  O2-  O263  1  -0.00020373  0.87595288  0.85010559  1
  O2-  O264  1  0.24822633  0.12480301  0.35135328  1
  O2-  O265  1  0.24768938  0.12410811  0.84635694  1
  O2-  O266  1  0.25098520  0.37447975  0.34925428  1
  O2-  O267  1  0.24761608  0.37427317  0.84764050  1
  O2-  O268  1  0.25386060  0.62560485  0.35066447  1
  O2-  O269  1  0.25050463  0.62538005  0.84642167  1
  O2-  O270  1  0.25352908  0.87531592  0.35029906  1
  O2-  O271  1  0.24608209  0.87623220  0.84910923  1
  O2-  O272  1  0.50194541  0.12444465  0.34559722  1
  O2-  O273  1  0.49792593  0.12542284  0.84787004  1
  O2-  O274  1  0.49880429  0.37513756  0.34563905  1
  O2-  O275  1  0.50214470  0.37537374  0.85192326  1
  O2-  O276  1  0.49824836  0.62586574  0.35117238  1
  O2-  O277  1  0.49997409  0.62504497  0.84799816  1
  O2-  O278  1  0.49941844  0.87489992  0.34818773  1
  O2-  O279  1  0.50118852  0.87444685  0.84557778  1
  O2-  O280  1  0.75128343  0.12432159  0.34616800  1
  O2-  O281  1  0.75215535  0.12463817  0.84588987  1
  O2-  O282  1  0.75144575  0.37422446  0.34482153  1
  O2-  O283  1  0.74972689  0.37508246  0.84851052  1
  O2-  O284  1  0.74786739  0.62558114  0.34945507  1
  O2-  O285  1  0.75092746  0.62542591  0.84777156  1
  O2-  O286  1  0.75103640  0.87588639  0.34559483  1
  O2-  O287  1  0.75161321  0.87532457  0.84808985  1
