# generated using pymatgen
data_BaYFeCuO5
_symmetry_space_group_name_H-M   'P 1'
_cell_length_a   15.68132237
_cell_length_b   15.68339126
_cell_length_c   15.52207630
_cell_angle_alpha   90.00510410
_cell_angle_beta   89.99555600
_cell_angle_gamma   89.99746054
_symmetry_Int_Tables_number   1
_chemical_formula_structural   BaYFeCuO5
_chemical_formula_sum   'Ba32 Y32 Fe32 Cu32 O160'
_cell_volume   3817.44220427
_cell_formula_units_Z   32
loop_
 _symmetry_equiv_pos_site_id
 _symmetry_equiv_pos_as_xyz
  1  'x, y, z'
loop_
 _atom_type_symbol
 _atom_type_oxidation_number
  Ba2+  2.0
  Y3+  3.0
  Fe3+  3.0
  Cu2+  2.0
  O2-  -2.0
loop_
 _atom_site_type_symbol
 _atom_site_label
 _atom_site_symmetry_multiplicity
 _atom_site_fract_x
 _atom_site_fract_y
 _atom_site_fract_z
 _atom_site_occupancy
  Ba2+  Ba0  1  -0.00490322  0.00085094  0.02328324  1
  Ba2+  Ba1  1  0.00963898  -0.00025337  0.50664031  1
  Ba2+  Ba2  1  -0.00238292  0.25058440  0.01788834  1
  Ba2+  Ba3  1  0.00654686  0.25450233  0.50274747  1
  Ba2+  Ba4  1  0.00010406  0.49915463  0.02184255  1
  Ba2+  Ba5  1  -0.00033727  0.49710428  0.50230895  1
  Ba2+  Ba6  1  -0.00206657  0.74977220  0.02632012  1
  Ba2+  Ba7  1  0.00314781  0.74963307  0.50628613  1
  Ba2+  Ba8  1  0.23823220  -0.00162110  0.01623949  1
  Ba2+  Ba9  1  0.24655123  0.00331432  0.50114920  1
  Ba2+  Ba10  1  0.23803923  0.25312300  0.01059539  1
  Ba2+  Ba11  1  0.24843102  0.24964992  0.48989754  1
  Ba2+  Ba12  1  0.24378570  0.50380014  0.01053304  1
  Ba2+  Ba13  1  0.25332718  0.50056146  0.49918346  1
  Ba2+  Ba14  1  0.24641289  0.74290228  0.01570419  1
  Ba2+  Ba15  1  0.25221430  0.74624465  0.51363111  1
  Ba2+  Ba16  1  0.51135134  -0.00211169  0.00622735  1
  Ba2+  Ba17  1  0.48863438  0.00064839  0.50814536  1
  Ba2+  Ba18  1  0.51077360  0.25177638  0.00650277  1
  Ba2+  Ba19  1  0.49318505  0.25565619  0.50015620  1
  Ba2+  Ba20  1  0.50338345  0.50686087  0.01605371  1
  Ba2+  Ba21  1  0.49799026  0.50140603  0.51513237  1
  Ba2+  Ba22  1  0.50365804  0.74358270  0.01593856  1
  Ba2+  Ba23  1  0.49322422  0.74233173  0.51633909  1
  Ba2+  Ba24  1  0.75648576  0.00164867  0.01084214  1
  Ba2+  Ba25  1  0.75445624  -0.00406474  0.51173090  1
  Ba2+  Ba26  1  0.75605275  0.24786066  0.01068419  1
  Ba2+  Ba27  1  0.75157941  0.26155451  0.51273255  1
  Ba2+  Ba28  1  0.75111023  0.50086530  0.02690639  1
  Ba2+  Ba29  1  0.75110651  0.49758335  0.51116631  1
  Ba2+  Ba30  1  0.75149955  0.75062261  0.02731676  1
  Ba2+  Ba31  1  0.75321547  0.74397093  0.50940292  1
  Y3+  Y32  1  0.00199639  0.00168780  0.25910921  1
  Y3+  Y33  1  -0.00071696  0.00157700  0.75393124  1
  Y3+  Y34  1  0.00078979  0.25151376  0.25817721  1
  Y3+  Y35  1  -0.00005996  0.25077090  0.75741390  1
  Y3+  Y36  1  -0.00112705  0.49767770  0.25925183  1
  Y3+  Y37  1  0.00104286  0.49814630  0.75512076  1
  Y3+  Y38  1  0.00033648  0.74920578  0.25939705  1
  Y3+  Y39  1  0.00006425  0.74964625  0.75180240  1
  Y3+  Y40  1  0.24621824  0.00097584  0.25848847  1
  Y3+  Y41  1  0.24857903  -0.00005296  0.75657881  1
  Y3+  Y42  1  0.24653069  0.25076647  0.25601242  1
  Y3+  Y43  1  0.24564818  0.25088502  0.76205930  1
  Y3+  Y44  1  0.25027056  0.50046677  0.25478685  1
  Y3+  Y45  1  0.24991674  0.50255799  0.76096412  1
  Y3+  Y46  1  0.24996076  0.74753558  0.25654914  1
  Y3+  Y47  1  0.25223179  0.74645002  0.75769917  1
  Y3+  Y48  1  0.49885104  -0.00055967  0.25749094  1
  Y3+  Y49  1  0.49954390  -0.00043292  0.75806159  1
  Y3+  Y50  1  0.49888686  0.25095864  0.25662939  1
  Y3+  Y51  1  0.50192261  0.25082868  0.75967735  1
  Y3+  Y52  1  0.49807595  0.50223904  0.25672949  1
  Y3+  Y53  1  0.49887066  0.50257560  0.75787469  1
  Y3+  Y54  1  0.49845755  0.74728449  0.25556742  1
  Y3+  Y55  1  0.49681567  0.74655194  0.75649803  1
  Y3+  Y56  1  0.75219201  -0.00005286  0.25683410  1
  Y3+  Y57  1  0.75275206  0.00156154  0.75706753  1
  Y3+  Y58  1  0.75312275  0.25239853  0.25740011  1
  Y3+  Y59  1  0.75283045  0.25004763  0.75750647  1
  Y3+  Y60  1  0.75264723  0.49928021  0.26052561  1
  Y3+  Y61  1  0.75015490  0.49856878  0.75061831  1
  Y3+  Y62  1  0.75078297  0.74874106  0.25938011  1
  Y3+  Y63  1  0.75098959  0.74962515  0.75084614  1
  Fe3+  Fe64  1  0.87429958  0.62522859  0.87567481  1
  Fe3+  Fe65  1  0.62412517  0.62475855  0.37671818  1
  Fe3+  Fe66  1  0.12168395  0.12387598  0.87824263  1
  Fe3+  Fe67  1  0.87546747  0.37681128  0.87679223  1
  Fe3+  Fe68  1  0.62726147  0.87308747  0.87403204  1
  Fe3+  Fe69  1  0.87507098  0.12592651  0.38030008  1
  Fe3+  Fe70  1  0.37432807  0.87436314  0.88128607  1
  Fe3+  Fe71  1  0.87588957  0.87494965  0.37760391  1
  Fe3+  Fe72  1  0.62752038  0.37691138  0.87641600  1
  Fe3+  Fe73  1  0.12260686  0.87396805  0.87727308  1
  Fe3+  Fe74  1  0.62822759  0.62548570  0.87417218  1
  Fe3+  Fe75  1  0.62357995  0.87455404  0.37956152  1
  Fe3+  Fe76  1  0.12557311  0.62481197  0.37542367  1
  Fe3+  Fe77  1  0.87592734  0.87330386  0.87458856  1
  Fe3+  Fe78  1  0.62381995  0.37588872  0.37546745  1
  Fe3+  Fe79  1  0.62484107  0.12507736  0.38135388  1
  Fe3+  Fe80  1  0.37457707  0.12475008  0.88349873  1
  Fe3+  Fe81  1  0.12175082  0.62585098  0.87638713  1
  Fe3+  Fe82  1  0.37377295  0.87331790  0.37532749  1
  Fe3+  Fe83  1  0.37484538  0.37599719  0.88309699  1
  Fe3+  Fe84  1  0.87716841  0.62394485  0.63352839  1
  Fe3+  Fe85  1  0.87688092  0.12599798  0.63327615  1
  Fe3+  Fe86  1  0.37308816  0.37402849  0.64183599  1
  Fe3+  Fe87  1  0.62397466  0.12615355  0.63414195  1
  Fe3+  Fe88  1  0.12683304  0.87455972  0.63675410  1
  Fe3+  Fe89  1  0.37466859  0.87542354  0.13390875  1
  Fe3+  Fe90  1  0.37455348  0.12502135  0.13457303  1
  Fe3+  Fe91  1  0.37272225  0.12725512  0.64069667  1
  Fe3+  Fe92  1  0.37534380  0.37484509  0.13495997  1
  Fe3+  Fe93  1  0.62629515  0.12518164  0.14064729  1
  Fe3+  Fe94  1  0.12712830  0.37541680  0.63802451  1
  Fe3+  Fe95  1  0.62356319  0.87465633  0.63276385  1
  Cu2+  Cu96  1  0.87521090  0.62478067  0.36664372  1
  Cu2+  Cu97  1  0.62619666  0.12468876  0.86069094  1
  Cu2+  Cu98  1  0.37488420  0.12479740  0.35868777  1
  Cu2+  Cu99  1  0.37548244  0.62508208  0.87579428  1
  Cu2+  Cu100  1  0.87488407  0.37468362  0.37325297  1
  Cu2+  Cu101  1  0.12430347  0.12567223  0.37182811  1
  Cu2+  Cu102  1  0.12571918  0.37619615  0.36052831  1
  Cu2+  Cu103  1  0.87619289  0.12460128  0.87143334  1
  Cu2+  Cu104  1  0.12575245  0.87388838  0.36154131  1
  Cu2+  Cu105  1  0.37502604  0.37563135  0.35758709  1
  Cu2+  Cu106  1  0.12260160  0.37625311  0.87509774  1
  Cu2+  Cu107  1  0.37515887  0.62489172  0.37070728  1
  Cu2+  Cu108  1  0.87544925  0.62475169  0.15665030  1
  Cu2+  Cu109  1  0.87487582  0.37502894  0.15392537  1
  Cu2+  Cu110  1  0.87584666  0.87545109  0.64379378  1
  Cu2+  Cu111  1  0.12455176  0.37556246  0.14279408  1
  Cu2+  Cu112  1  0.62515781  0.37494153  0.15224797  1
  Cu2+  Cu113  1  0.37360284  0.62277848  0.64327518  1
  Cu2+  Cu114  1  0.37445517  0.87528386  0.65298169  1
  Cu2+  Cu115  1  0.12393037  0.62481222  0.15485329  1
  Cu2+  Cu116  1  0.12666930  0.12679072  0.64157944  1
  Cu2+  Cu117  1  0.37440117  0.62453519  0.14021025  1
  Cu2+  Cu118  1  0.12486006  0.87431944  0.15389470  1
  Cu2+  Cu119  1  0.87531949  0.87499053  0.15773905  1
  Cu2+  Cu120  1  0.62495937  0.62454602  0.64730843  1
  Cu2+  Cu121  1  0.62496453  0.87549142  0.15501591  1
  Cu2+  Cu122  1  0.12422590  0.12538595  0.15340176  1
  Cu2+  Cu123  1  0.62589610  0.62483004  0.15632689  1
  Cu2+  Cu124  1  0.62374731  0.37430741  0.65091558  1
  Cu2+  Cu125  1  0.87494355  0.12569506  0.14560177  1
  Cu2+  Cu126  1  0.87669192  0.37463761  0.64025660  1
  Cu2+  Cu127  1  0.12603657  0.62346336  0.64860924  1
  O2-  O128  1  0.12021584  0.12245489  -0.00156162  1
  O2-  O129  1  0.12751576  0.12603272  0.50623574  1
  O2-  O130  1  0.12199243  0.37630477  0.00926510  1
  O2-  O131  1  0.13053832  0.37500259  0.51791864  1
  O2-  O132  1  0.11981758  0.62717139  -0.00372134  1
  O2-  O133  1  0.12705510  0.62442211  0.49576555  1
  O2-  O134  1  0.11999816  0.87399362  -0.00331329  1
  O2-  O135  1  0.12966547  0.87504216  0.51628182  1
  O2-  O136  1  0.37567357  0.12356540  0.00915730  1
  O2-  O137  1  0.37368114  0.12794801  0.52055007  1
  O2-  O138  1  0.37703318  0.37546275  0.00911961  1
  O2-  O139  1  0.37234108  0.37263117  0.52180317  1
  O2-  O140  1  0.37581376  0.62626562  0.00785525  1
  O2-  O141  1  0.37484849  0.62351734  0.50703485  1
  O2-  O142  1  0.37561106  0.87541597  0.00707315  1
  O2-  O143  1  0.37489515  0.87416305  0.49532791  1
  O2-  O144  1  0.62744317  0.12332463  0.02046406  1
  O2-  O145  1  0.62212996  0.12634698  0.50769122  1
  O2-  O146  1  0.62848752  0.37718721  -0.00361203  1
  O2-  O147  1  0.62160656  0.37529952  0.49559308  1
  O2-  O148  1  0.63010392  0.62678296  -0.00597589  1
  O2-  O149  1  0.62286168  0.62408252  0.49655971  1
  O2-  O150  1  0.62886010  0.87332481  -0.00630105  1
  O2-  O151  1  0.62161745  0.87541788  0.50528460  1
  O2-  O152  1  0.87488642  0.12450300  0.00745866  1
  O2-  O153  1  0.87513465  0.12557176  0.50650919  1
  O2-  O154  1  0.87350537  0.37744325  -0.00308272  1
  O2-  O155  1  0.87594680  0.37437997  0.50632523  1
  O2-  O156  1  0.87323242  0.62666106  -0.00503054  1
  O2-  O157  1  0.87692382  0.62407716  0.51281181  1
  O2-  O158  1  0.87465732  0.87286529  -0.00587567  1
  O2-  O159  1  0.87493175  0.87480573  0.49746110  1
  O2-  O160  1  0.12482751  0.00030716  0.16573687  1
  O2-  O161  1  0.12642082  -0.00124673  0.66422047  1
  O2-  O162  1  0.12447863  0.24895326  0.16569308  1
  O2-  O163  1  0.12550721  0.25210174  0.67081623  1
  O2-  O164  1  0.12498144  0.50217017  0.16467771  1
  O2-  O165  1  0.12634667  0.49965481  0.66679668  1
  O2-  O166  1  0.12465080  0.74883441  0.16441639  1
  O2-  O167  1  0.12635571  0.74929785  0.66145833  1
  O2-  O168  1  0.37469005  0.00052826  0.16317571  1
  O2-  O169  1  0.37572597  0.00122777  0.66872622  1
  O2-  O170  1  0.37593093  0.24897748  0.16229733  1
  O2-  O171  1  0.37535205  0.25015459  0.67753751  1
  O2-  O172  1  0.37555427  0.49728658  0.16318021  1
  O2-  O173  1  0.37542365  0.49760714  0.66954909  1
  O2-  O174  1  0.37534348  0.75322589  0.16213600  1
  O2-  O175  1  0.37508188  0.75039067  0.66393064  1
  O2-  O176  1  0.62460236  0.00079867  0.17165126  1
  O2-  O177  1  0.62373885  0.00086330  0.65970111  1
  O2-  O178  1  0.62414710  0.24929013  0.16769449  1
  O2-  O179  1  0.62483241  0.24748590  0.66584319  1
  O2-  O180  1  0.62519139  0.49986918  0.16329996  1
  O2-  O181  1  0.62425449  0.49930208  0.66130471  1
  O2-  O182  1  0.62474156  0.75062086  0.16595821  1
  O2-  O183  1  0.62404339  0.75173690  0.65729158  1
  O2-  O184  1  0.87458850  -0.00113029  0.16761729  1
  O2-  O185  1  0.87455575  0.00202067  0.66208243  1
  O2-  O186  1  0.87490523  0.25164718  0.16712792  1
  O2-  O187  1  0.87463091  0.24707025  0.66569861  1
  O2-  O188  1  0.87447328  0.49988629  0.16542000  1
  O2-  O189  1  0.87510710  0.50142101  0.66353277  1
  O2-  O190  1  0.87483854  0.75020477  0.16602929  1
  O2-  O191  1  0.87521143  0.74934645  0.66007794  1
  O2-  O192  1  0.00093632  0.12490493  0.16896651  1
  O2-  O193  1  -0.00168960  0.12479490  0.65882417  1
  O2-  O194  1  -0.00157447  0.37516407  0.16729098  1
  O2-  O195  1  0.00267528  0.37506482  0.66373772  1
  O2-  O196  1  0.00020545  0.62511460  0.16641308  1
  O2-  O197  1  0.00070363  0.62496457  0.66081492  1
  O2-  O198  1  0.00029459  0.87522388  0.16757423  1
  O2-  O199  1  0.00175085  0.87514419  0.66058231  1
  O2-  O200  1  0.25127595  0.12510100  0.16102723  1
  O2-  O201  1  0.25145199  0.12543264  0.67440807  1
  O2-  O202  1  0.25298347  0.37396757  0.16245390  1
  O2-  O203  1  0.25002666  0.37511510  0.67776810  1
  O2-  O204  1  0.24748581  0.62522800  0.16291608  1
  O2-  O205  1  0.24900917  0.62460515  0.66959667  1
  O2-  O206  1  0.25112138  0.87563382  0.16012511  1
  O2-  O207  1  0.24994856  0.87459258  0.67175206  1
  O2-  O208  1  0.49834102  0.12414945  0.16650388  1
  O2-  O209  1  0.50069791  0.12511800  0.66877678  1
  O2-  O210  1  0.49873657  0.37389691  0.16233935  1
  O2-  O211  1  0.49917412  0.37374901  0.66961442  1
  O2-  O212  1  0.50190341  0.62530255  0.16352700  1
  O2-  O213  1  0.50097557  0.62444094  0.66625511  1
  O2-  O214  1  0.49814267  0.87682530  0.16173225  1
  O2-  O215  1  0.50127960  0.87581781  0.66557275  1
  O2-  O216  1  0.74871648  0.12506221  0.17192875  1
  O2-  O217  1  0.74958984  0.12431648  0.65820998  1
  O2-  O218  1  0.75000223  0.37434097  0.16688105  1
  O2-  O219  1  0.74842493  0.37393255  0.65850975  1
  O2-  O220  1  0.75016132  0.62579297  0.16783236  1
  O2-  O221  1  0.75066747  0.62531498  0.65787011  1
  O2-  O222  1  0.75010224  0.87545643  0.16853987  1
  O2-  O223  1  0.74736525  0.87595827  0.65659317  1
  O2-  O224  1  0.12545597  -0.00137237  0.34976100  1
  O2-  O225  1  0.12514009  -0.00092904  0.84429302  1
  O2-  O226  1  0.12587649  0.25256947  0.34904102  1
  O2-  O227  1  0.12423484  0.24803220  0.85159892  1
  O2-  O228  1  0.12568225  0.50001089  0.34712993  1
  O2-  O229  1  0.12436078  0.50238818  0.84756789  1
  O2-  O230  1  0.12560252  0.74914351  0.34667972  1
  O2-  O231  1  0.12476979  0.75072814  0.84160233  1
  O2-  O232  1  0.37528533  -0.00083790  0.34701801  1
  O2-  O233  1  0.37594963  0.00013712  0.85171762  1
  O2-  O234  1  0.37541518  0.24967958  0.34717843  1
  O2-  O235  1  0.37619489  0.24926887  0.85809938  1
  O2-  O236  1  0.37507772  0.49899112  0.34652831  1
  O2-  O237  1  0.37562256  0.49705538  0.85142716  1
  O2-  O238  1  0.37491703  0.75125167  0.34390756  1
  O2-  O239  1  0.37555715  0.75342449  0.84808319  1
  O2-  O240  1  0.62349600  -0.00001367  0.35458652  1
  O2-  O241  1  0.62520142  -0.00122654  0.84383984  1
  O2-  O242  1  0.62351985  0.24814414  0.34966042  1
  O2-  O243  1  0.62568777  0.25059843  0.84965619  1
  O2-  O244  1  0.62391493  0.50021981  0.34501242  1
  O2-  O245  1  0.62554740  0.50038117  0.84260613  1
  O2-  O246  1  0.62513037  0.75162250  0.34933196  1
  O2-  O247  1  0.62515901  0.75027351  0.83835109  1
  O2-  O248  1  0.87461976  0.00126349  0.35019407  1
  O2-  O249  1  0.87443815  -0.00216336  0.84487603  1
  O2-  O250  1  0.87390684  0.24705508  0.35018614  1
  O2-  O251  1  0.87431233  0.25191931  0.84866726  1
  O2-  O252  1  0.87500852  0.50034559  0.34939077  1
  O2-  O253  1  0.87447815  0.50076416  0.84279532  1
  O2-  O254  1  0.87420996  0.75133850  0.34846392  1
  O2-  O255  1  0.87449319  0.74968333  0.83894967  1
  O2-  O256  1  -0.00281443  0.12522533  0.35238458  1
  O2-  O257  1  0.00150425  0.12421596  0.84054924  1
  O2-  O258  1  0.00148176  0.37484656  0.35133805  1
  O2-  O259  1  -0.00212098  0.37541349  0.84408436  1
  O2-  O260  1  0.00057154  0.62500993  0.34923632  1
  O2-  O261  1  -0.00152779  0.62593857  0.84031467  1
  O2-  O262  1  0.00016312  0.87500019  0.35124425  1
  O2-  O263  1  -0.00032293  0.87476642  0.83982617  1
  O2-  O264  1  0.25087312  0.12505279  0.34563504  1
  O2-  O265  1  0.25051881  0.12430400  0.85474694  1
  O2-  O266  1  0.25095391  0.37478900  0.34633993  1
  O2-  O267  1  0.25196299  0.37401090  0.85830660  1
  O2-  O268  1  0.24903893  0.62429242  0.34501406  1
  O2-  O269  1  0.24778678  0.62600738  0.85192328  1
  O2-  O270  1  0.25033631  0.87565117  0.34353904  1
  O2-  O271  1  0.25040412  0.87604997  0.85355467  1
  O2-  O272  1  0.50166211  0.12440682  0.35004660  1
  O2-  O273  1  0.49851687  0.12417402  0.85303244  1
  O2-  O274  1  0.49991808  0.37379581  0.34481707  1
  O2-  O275  1  0.50011025  0.37386337  0.85157540  1
  O2-  O276  1  0.50128919  0.62592526  0.34499452  1
  O2-  O277  1  0.50279974  0.62562072  0.84864299  1
  O2-  O278  1  0.50101962  0.87540865  0.34494130  1
  O2-  O279  1  0.49931527  0.87636911  0.84969286  1
  O2-  O280  1  0.74911399  0.12370139  0.35462960  1
  O2-  O281  1  0.74947615  0.12442808  0.84331542  1
  O2-  O282  1  0.74745966  0.37462149  0.34900532  1
  O2-  O283  1  0.75060398  0.37497176  0.84008708  1
  O2-  O284  1  0.74912436  0.62529344  0.35033426  1
  O2-  O285  1  0.75074128  0.62557487  0.83686044  1
  O2-  O286  1  0.74803224  0.87644291  0.35185374  1
  O2-  O287  1  0.75088538  0.87506923  0.83816411  1
