# generated using pymatgen
data_BaYFeCuO5
_symmetry_space_group_name_H-M   'P 1'
_cell_length_a   15.69149148
_cell_length_b   15.68972744
_cell_length_c   15.57402529
_cell_angle_alpha   90.00216600
_cell_angle_beta   90.00639225
_cell_angle_gamma   90.00360533
_symmetry_Int_Tables_number   1
_chemical_formula_structural   BaYFeCuO5
_chemical_formula_sum   'Ba32 Y32 Fe32 Cu32 O160'
_cell_volume   3834.25061607
_cell_formula_units_Z   32
loop_
 _symmetry_equiv_pos_site_id
 _symmetry_equiv_pos_as_xyz
  1  'x, y, z'
loop_
 _atom_type_symbol
 _atom_type_oxidation_number
  Ba2+  2.0
  Y3+  3.0
  Fe3+  3.0
  Cu2+  2.0
  O2-  -2.0
loop_
 _atom_site_type_symbol
 _atom_site_label
 _atom_site_symmetry_multiplicity
 _atom_site_fract_x
 _atom_site_fract_y
 _atom_site_fract_z
 _atom_site_occupancy
  Ba2+  Ba0  1  0.00150695  0.00181759  0.02126446  1
  Ba2+  Ba1  1  0.00040042  0.00991347  0.49653567  1
  Ba2+  Ba2  1  0.00239648  0.24633389  0.01929717  1
  Ba2+  Ba3  1  0.00268278  0.25298091  0.48638878  1
  Ba2+  Ba4  1  0.00016363  0.50013829  0.01582129  1
  Ba2+  Ba5  1  0.00297192  0.49728982  0.49362435  1
  Ba2+  Ba6  1  -0.00098467  0.75234110  0.01898222  1
  Ba2+  Ba7  1  0.00063380  0.73921805  0.50817129  1
  Ba2+  Ba8  1  0.24855936  0.00090779  0.02109959  1
  Ba2+  Ba9  1  0.25629047  0.00446705  0.51391901  1
  Ba2+  Ba10  1  0.24786555  0.24705372  0.01976990  1
  Ba2+  Ba11  1  0.25113528  0.25463791  0.50096592  1
  Ba2+  Ba12  1  0.25220481  0.50328920  0.01077725  1
  Ba2+  Ba13  1  0.25011890  0.49705557  0.48962382  1
  Ba2+  Ba14  1  0.25289592  0.74872630  0.01137353  1
  Ba2+  Ba15  1  0.25461922  0.74383065  0.49999270  1
  Ba2+  Ba16  1  0.50051639  -0.00160335  0.02545738  1
  Ba2+  Ba17  1  0.50049218  -0.00191480  0.51933185  1
  Ba2+  Ba18  1  0.49608578  0.24257251  0.02132541  1
  Ba2+  Ba19  1  0.49206765  0.24868436  0.51830290  1
  Ba2+  Ba20  1  0.49487965  0.50765019  0.00566389  1
  Ba2+  Ba21  1  0.49114768  0.50122100  0.50691932  1
  Ba2+  Ba22  1  0.49774632  0.75029466  0.01189763  1
  Ba2+  Ba23  1  0.50141525  0.75222170  0.51407951  1
  Ba2+  Ba24  1  0.74985135  -0.00106214  0.02859795  1
  Ba2+  Ba25  1  0.74223472  0.00131310  0.50737076  1
  Ba2+  Ba26  1  0.75465695  0.24325959  0.02205648  1
  Ba2+  Ba27  1  0.75511101  0.24753336  0.50046714  1
  Ba2+  Ba28  1  0.75454590  0.50604161  0.01159643  1
  Ba2+  Ba29  1  0.75411347  0.50398405  0.51501906  1
  Ba2+  Ba30  1  0.74982106  0.75332661  0.01918032  1
  Ba2+  Ba31  1  0.74298288  0.74764117  0.51655934  1
  Y3+  Y32  1  0.00109970  0.00201580  0.25695578  1
  Y3+  Y33  1  0.00198953  0.00109157  0.75779736  1
  Y3+  Y34  1  0.00144105  0.24997260  0.25430536  1
  Y3+  Y35  1  0.00218782  0.24884904  0.76221878  1
  Y3+  Y36  1  0.00039845  0.49754862  0.25506815  1
  Y3+  Y37  1  0.00044666  0.50109588  0.76033280  1
  Y3+  Y38  1  -0.00002497  0.75049450  0.25823895  1
  Y3+  Y39  1  0.00052090  0.74896268  0.75677466  1
  Y3+  Y40  1  0.24907160  0.00091568  0.25615241  1
  Y3+  Y41  1  0.25034885  0.00114745  0.75730787  1
  Y3+  Y42  1  0.24949227  0.25153798  0.25584821  1
  Y3+  Y43  1  0.25047337  0.24973855  0.75809460  1
  Y3+  Y44  1  0.25250356  0.49804800  0.25475718  1
  Y3+  Y45  1  0.25159492  0.50080442  0.76264923  1
  Y3+  Y46  1  0.25205034  0.74887603  0.25525518  1
  Y3+  Y47  1  0.25161940  0.74876185  0.76063443  1
  Y3+  Y48  1  0.50086306  -0.00206018  0.25807651  1
  Y3+  Y49  1  0.50037112  -0.00071330  0.75159194  1
  Y3+  Y50  1  0.49730657  0.25147888  0.25735679  1
  Y3+  Y51  1  0.49839283  0.24972895  0.75453248  1
  Y3+  Y52  1  0.49552172  0.49951712  0.25619769  1
  Y3+  Y53  1  0.49904035  0.50192625  0.75917001  1
  Y3+  Y54  1  0.49902748  0.75060862  0.25736140  1
  Y3+  Y55  1  0.50092838  0.74908835  0.75763522  1
  Y3+  Y56  1  0.74912442  -0.00059067  0.26177619  1
  Y3+  Y57  1  0.74742164  -0.00057470  0.75093223  1
  Y3+  Y58  1  0.75200014  0.24968453  0.25789349  1
  Y3+  Y59  1  0.74863369  0.24934966  0.75513818  1
  Y3+  Y60  1  0.75157214  0.49857091  0.25616652  1
  Y3+  Y61  1  0.74909301  0.50213305  0.75806327  1
  Y3+  Y62  1  0.74871821  0.75234692  0.25982513  1
  Y3+  Y63  1  0.74742800  0.74940237  0.75408634  1
  Fe3+  Fe64  1  0.12465223  0.87542504  0.87713357  1
  Fe3+  Fe65  1  0.87487779  0.62745669  0.87623968  1
  Fe3+  Fe66  1  0.87407991  0.62458411  0.37516105  1
  Fe3+  Fe67  1  0.62422275  0.37576303  0.37941999  1
  Fe3+  Fe68  1  0.87377062  0.87653073  0.87462830  1
  Fe3+  Fe69  1  0.12511881  0.37457825  0.88178662  1
  Fe3+  Fe70  1  0.87481317  0.87472011  0.38020539  1
  Fe3+  Fe71  1  0.37551225  0.87514808  0.37622155  1
  Fe3+  Fe72  1  0.12579792  0.87469606  0.37994932  1
  Fe3+  Fe73  1  0.87382750  0.12300207  0.87664105  1
  Fe3+  Fe74  1  0.62568496  0.87625504  0.87545208  1
  Fe3+  Fe75  1  0.62520541  0.37415821  0.88089553  1
  Fe3+  Fe76  1  0.62501451  0.12371276  0.87566047  1
  Fe3+  Fe77  1  0.37605317  0.37337537  0.87947916  1
  Fe3+  Fe78  1  0.37569621  0.12351516  0.87597676  1
  Fe3+  Fe79  1  0.62289644  0.12602001  0.37658346  1
  Fe3+  Fe80  1  0.87391995  0.37370100  0.87978758  1
  Fe3+  Fe81  1  0.62380202  0.62414694  0.37670231  1
  Fe3+  Fe82  1  0.37510433  0.12496425  0.37465346  1
  Fe3+  Fe83  1  0.37610633  0.87652715  0.87628142  1
  Fe3+  Fe84  1  0.62438681  0.37556567  0.63403460  1
  Fe3+  Fe85  1  0.12506892  0.62506969  0.13991458  1
  Fe3+  Fe86  1  0.37333815  0.62395199  0.64015557  1
  Fe3+  Fe87  1  0.12572625  0.87447438  0.63225855  1
  Fe3+  Fe88  1  0.12461657  0.12727978  0.63649628  1
  Fe3+  Fe89  1  0.87784284  0.37460940  0.63770636  1
  Fe3+  Fe90  1  0.62460348  0.37510997  0.13399043  1
  Fe3+  Fe91  1  0.12612185  0.62245487  0.63875212  1
  Fe3+  Fe92  1  0.87668647  0.87507166  0.63134799  1
  Fe3+  Fe93  1  0.87670221  0.12674976  0.63545515  1
  Fe3+  Fe94  1  0.62493721  0.62516825  0.13849697  1
  Fe3+  Fe95  1  0.12546699  0.37577641  0.63928852  1
  Cu2+  Cu96  1  0.12528639  0.62507440  0.35879520  1
  Cu2+  Cu97  1  0.12548495  0.37506555  0.35631443  1
  Cu2+  Cu98  1  0.62594017  0.62585584  0.86437793  1
  Cu2+  Cu99  1  0.87487137  0.12488908  0.36100196  1
  Cu2+  Cu100  1  0.62381648  0.87430913  0.37401735  1
  Cu2+  Cu101  1  0.12576733  0.12410361  0.87523482  1
  Cu2+  Cu102  1  0.37590333  0.37419368  0.37146546  1
  Cu2+  Cu103  1  0.37513459  0.62523947  0.35945619  1
  Cu2+  Cu104  1  0.12427694  0.62584602  0.86685508  1
  Cu2+  Cu105  1  0.12659848  0.12493504  0.36129338  1
  Cu2+  Cu106  1  0.87429299  0.37537093  0.35989948  1
  Cu2+  Cu107  1  0.37554649  0.62646219  0.87415973  1
  Cu2+  Cu108  1  0.62486039  0.12692184  0.64606738  1
  Cu2+  Cu109  1  0.37552136  0.62535882  0.14331870  1
  Cu2+  Cu110  1  0.37254740  0.37678087  0.64337934  1
  Cu2+  Cu111  1  0.37347145  0.12545139  0.65095186  1
  Cu2+  Cu112  1  0.87602563  0.62408354  0.65136314  1
  Cu2+  Cu113  1  0.62456415  0.87433704  0.63938945  1
  Cu2+  Cu114  1  0.62386570  0.62320425  0.65178490  1
  Cu2+  Cu115  1  0.37504156  0.12423283  0.15455124  1
  Cu2+  Cu116  1  0.87463989  0.62578772  0.15509045  1
  Cu2+  Cu117  1  0.37473118  0.87485324  0.15203981  1
  Cu2+  Cu118  1  0.87499613  0.12429283  0.15771922  1
  Cu2+  Cu119  1  0.12516769  0.87425873  0.15511971  1
  Cu2+  Cu120  1  0.87439961  0.37470726  0.14966586  1
  Cu2+  Cu121  1  0.62479797  0.87468662  0.15611719  1
  Cu2+  Cu122  1  0.62481786  0.12508040  0.15608739  1
  Cu2+  Cu123  1  0.37328802  0.87358698  0.65062595  1
  Cu2+  Cu124  1  0.37566351  0.37495360  0.14611147  1
  Cu2+  Cu125  1  0.87520296  0.87538614  0.15758291  1
  Cu2+  Cu126  1  0.12543932  0.37549516  0.14898126  1
  Cu2+  Cu127  1  0.12545897  0.12485734  0.14395060  1
  O2-  O128  1  0.12481335  0.12359234  0.00882386  1
  O2-  O129  1  0.12403785  0.12838708  0.51703734  1
  O2-  O130  1  0.12420387  0.37414527  0.00147772  1
  O2-  O131  1  0.12457887  0.37607939  0.51951918  1
  O2-  O132  1  0.12332263  0.62728886  0.01980461  1
  O2-  O133  1  0.12683644  0.62071348  0.51929163  1
  O2-  O134  1  0.12315925  0.87564691  -0.00343621  1
  O2-  O135  1  0.12583832  0.87461952  0.50639916  1
  O2-  O136  1  0.37666096  0.12196066  -0.00440929  1
  O2-  O137  1  0.37521130  0.12546151  0.49445674  1
  O2-  O138  1  0.37788808  0.37160792  -0.00092201  1
  O2-  O139  1  0.37348880  0.37596908  0.50605327  1
  O2-  O140  1  0.37561270  0.62723011  0.00840084  1
  O2-  O141  1  0.37195132  0.62281556  0.52030122  1
  O2-  O142  1  0.37592855  0.87795281  -0.00418169  1
  O2-  O143  1  0.37434955  0.87443263  0.49565972  1
  O2-  O144  1  0.62620165  0.12201424  -0.00533358  1
  O2-  O145  1  0.62248249  0.12839323  0.49608068  1
  O2-  O146  1  0.62579277  0.37373128  0.00664472  1
  O2-  O147  1  0.62494390  0.37600296  0.50614777  1
  O2-  O148  1  0.62628141  0.62697139  0.01880230  1
  O2-  O149  1  0.62465053  0.62228854  0.49649187  1
  O2-  O150  1  0.62699354  0.87778323  -0.00522256  1
  O2-  O151  1  0.62454551  0.87406649  0.50639896  1
  O2-  O152  1  0.87214428  0.12077844  -0.00383230  1
  O2-  O153  1  0.87896343  0.12961604  0.51597722  1
  O2-  O154  1  0.87156278  0.37354179  -0.00107261  1
  O2-  O155  1  0.87832931  0.37520697  0.51815256  1
  O2-  O156  1  0.87413210  0.62983445  -0.00419728  1
  O2-  O157  1  0.87533340  0.62276948  0.49489466  1
  O2-  O158  1  0.87349909  0.87693094  -0.00636602  1
  O2-  O159  1  0.87647111  0.87435843  0.50543092  1
  O2-  O160  1  0.12480264  -0.00194176  0.16784520  1
  O2-  O161  1  0.12504558  -0.00068834  0.66052624  1
  O2-  O162  1  0.12496511  0.25155143  0.16454913  1
  O2-  O163  1  0.12499052  0.25028468  0.67109559  1
  O2-  O164  1  0.12429239  0.50037348  0.16523498  1
  O2-  O165  1  0.12515194  0.49984044  0.67480513  1
  O2-  O166  1  0.12392110  0.74961057  0.17006179  1
  O2-  O167  1  0.12386064  0.75052602  0.66252673  1
  O2-  O168  1  0.37466885  -0.00041289  0.16552624  1
  O2-  O169  1  0.37353149  -0.00055046  0.65849295  1
  O2-  O170  1  0.37615635  0.24922447  0.16338022  1
  O2-  O171  1  0.37468970  0.24943667  0.66459207  1
  O2-  O172  1  0.37557963  0.49892793  0.16469868  1
  O2-  O173  1  0.37475846  0.50211380  0.67374909  1
  O2-  O174  1  0.37526617  0.75158527  0.16601823  1
  O2-  O175  1  0.37466664  0.74882911  0.66706694  1
  O2-  O176  1  0.62547578  -0.00027004  0.16734050  1
  O2-  O177  1  0.62536558  0.00223017  0.65806775  1
  O2-  O178  1  0.62502029  0.25130634  0.16235657  1
  O2-  O179  1  0.62415235  0.25249274  0.66462190  1
  O2-  O180  1  0.62644704  0.49847581  0.16353211  1
  O2-  O181  1  0.62565860  0.49767477  0.66852710  1
  O2-  O182  1  0.62596876  0.75014511  0.16732585  1
  O2-  O183  1  0.62438916  0.74757617  0.66352088  1
  O2-  O184  1  0.87497514  -0.00032371  0.16918964  1
  O2-  O185  1  0.87557279  -0.00032055  0.65835019  1
  O2-  O186  1  0.87451429  0.24902944  0.16426923  1
  O2-  O187  1  0.87541056  0.25045064  0.67104437  1
  O2-  O188  1  0.87373550  0.50034148  0.16246825  1
  O2-  O189  1  0.87387656  0.49903101  0.67010819  1
  O2-  O190  1  0.87516455  0.75109675  0.16749102  1
  O2-  O191  1  0.87677069  0.75073644  0.65795279  1
  O2-  O192  1  -0.00098414  0.12421882  0.16600644  1
  O2-  O193  1  0.00061844  0.12478957  0.67131485  1
  O2-  O194  1  -0.00103311  0.37498340  0.16396158  1
  O2-  O195  1  0.00066877  0.37584143  0.67323187  1
  O2-  O196  1  -0.00082950  0.62566349  0.16706858  1
  O2-  O197  1  0.00118454  0.62424400  0.66694212  1
  O2-  O198  1  -0.00029329  0.87496415  0.16837196  1
  O2-  O199  1  0.00086354  0.87494186  0.66151072  1
  O2-  O200  1  0.25151669  0.12451662  0.16511546  1
  O2-  O201  1  0.24874553  0.12491490  0.66610814  1
  O2-  O202  1  0.25112123  0.37488192  0.16401066  1
  O2-  O203  1  0.24817627  0.37509628  0.67090907  1
  O2-  O204  1  0.24898263  0.62532153  0.16598946  1
  O2-  O205  1  0.24922649  0.62567478  0.67377873  1
  O2-  O206  1  0.24999897  0.87447163  0.16516624  1
  O2-  O207  1  0.24730659  0.87451088  0.66386895  1
  O2-  O208  1  0.49995380  0.12482340  0.16306265  1
  O2-  O209  1  0.49860505  0.12574995  0.66079498  1
  O2-  O210  1  0.50237039  0.37482747  0.16431680  1
  O2-  O211  1  0.50150762  0.37566904  0.66128307  1
  O2-  O212  1  0.50197776  0.62471802  0.16687443  1
  O2-  O213  1  0.49900636  0.62398528  0.66625769  1
  O2-  O214  1  0.50005876  0.87494188  0.16336890  1
  O2-  O215  1  0.49798381  0.87489986  0.66240290  1
  O2-  O216  1  0.74985705  0.12496673  0.16783514  1
  O2-  O217  1  0.75128621  0.12655098  0.66044540  1
  O2-  O218  1  0.74791455  0.37392254  0.16586360  1
  O2-  O219  1  0.74938211  0.37472807  0.66225982  1
  O2-  O220  1  0.74992264  0.62545422  0.16663681  1
  O2-  O221  1  0.75009406  0.62423671  0.66128584  1
  O2-  O222  1  0.75022220  0.87534520  0.16827929  1
  O2-  O223  1  0.75371021  0.87421086  0.65906749  1
  O2-  O224  1  0.12456653  -0.00239768  0.35158567  1
  O2-  O225  1  0.12488834  -0.00230944  0.84174145  1
  O2-  O226  1  0.12548223  0.25018659  0.34796188  1
  O2-  O227  1  0.12529431  0.25204449  0.84982632  1
  O2-  O228  1  0.12445210  0.50007856  0.34757447  1
  O2-  O229  1  0.12400345  0.49987976  0.85416285  1
  O2-  O230  1  0.12475042  0.75150057  0.35313527  1
  O2-  O231  1  0.12468613  0.75098254  0.84449930  1
  O2-  O232  1  0.37427619  -0.00012059  0.34593957  1
  O2-  O233  1  0.37629285  -0.00022088  0.83940638  1
  O2-  O234  1  0.37466002  0.24831441  0.34536254  1
  O2-  O235  1  0.37613454  0.24969469  0.84482691  1
  O2-  O236  1  0.37501420  0.50144095  0.34772327  1
  O2-  O237  1  0.37675297  0.49829441  0.85373822  1
  O2-  O238  1  0.37421234  0.75005076  0.34806029  1
  O2-  O239  1  0.37537442  0.75228538  0.84804025  1
  O2-  O240  1  0.62492873  0.00199117  0.34952943  1
  O2-  O241  1  0.62484593  0.00005154  0.83811714  1
  O2-  O242  1  0.62541410  0.25168046  0.34628801  1
  O2-  O243  1  0.62564622  0.25086457  0.84711125  1
  O2-  O244  1  0.62498556  0.49883189  0.34557882  1
  O2-  O245  1  0.62552063  0.49819990  0.85417746  1
  O2-  O246  1  0.62494983  0.74739453  0.34811492  1
  O2-  O247  1  0.62605574  0.75128766  0.84597823  1
  O2-  O248  1  0.87606612  -0.00173570  0.35277529  1
  O2-  O249  1  0.87458353  -0.00032151  0.83752181  1
  O2-  O250  1  0.87444016  0.25064890  0.34832743  1
  O2-  O251  1  0.87335959  0.24944848  0.84798623  1
  O2-  O252  1  0.87524673  0.50025460  0.34520748  1
  O2-  O253  1  0.87411841  0.50007413  0.85059704  1
  O2-  O254  1  0.87540985  0.75089667  0.34963368  1
  O2-  O255  1  0.87434168  0.75149596  0.83998539  1
  O2-  O256  1  0.00093560  0.12499409  0.34981044  1
  O2-  O257  1  -0.00215346  0.12430019  0.84936270  1
  O2-  O258  1  0.00025552  0.37499136  0.34830667  1
  O2-  O259  1  -0.00089068  0.37488512  0.85052913  1
  O2-  O260  1  -0.00051931  0.62508282  0.34884159  1
  O2-  O261  1  -0.00114414  0.62628958  0.84733386  1
  O2-  O262  1  0.00030818  0.87456007  0.35295321  1
  O2-  O263  1  -0.00067243  0.87486971  0.84250163  1
  O2-  O264  1  0.25058395  0.12461870  0.34684778  1
  O2-  O265  1  0.25247097  0.12427628  0.84678099  1
  O2-  O266  1  0.24912734  0.37534737  0.34761665  1
  O2-  O267  1  0.25073948  0.37552922  0.85035889  1
  O2-  O268  1  0.25000837  0.62518383  0.34900141  1
  O2-  O269  1  0.24851491  0.62556707  0.85365338  1
  O2-  O270  1  0.24880734  0.87415403  0.34814348  1
  O2-  O271  1  0.25036133  0.87521855  0.84574878  1
  O2-  O272  1  0.49953516  0.12566546  0.34288775  1
  O2-  O273  1  0.50079145  0.12571462  0.84165489  1
  O2-  O274  1  0.50288075  0.37538199  0.34753845  1
  O2-  O275  1  0.50198931  0.37480067  0.84538574  1
  O2-  O276  1  0.49977943  0.62381257  0.34733549  1
  O2-  O277  1  0.50208479  0.62518108  0.84864297  1
  O2-  O278  1  0.49775616  0.87444996  0.34504473  1
  O2-  O279  1  0.50093169  0.87479967  0.84333145  1
  O2-  O280  1  0.74895783  0.12578667  0.35051731  1
  O2-  O281  1  0.74921501  0.12464422  0.83964215  1
  O2-  O282  1  0.74780936  0.37506734  0.35038791  1
  O2-  O283  1  0.74847897  0.37533656  0.84456878  1
  O2-  O284  1  0.74981558  0.62408082  0.34579391  1
  O2-  O285  1  0.75093812  0.62517674  0.84405663  1
  O2-  O286  1  0.75295257  0.87515675  0.35167285  1
  O2-  O287  1  0.74956154  0.87552394  0.83908429  1
