# generated using pymatgen
data_BaYFeCuO5
_symmetry_space_group_name_H-M   'P 1'
_cell_length_a   15.67197163
_cell_length_b   15.67241728
_cell_length_c   15.49059223
_cell_angle_alpha   89.98997296
_cell_angle_beta   89.99909568
_cell_angle_gamma   89.99854849
_symmetry_Int_Tables_number   1
_chemical_formula_structural   BaYFeCuO5
_chemical_formula_sum   'Ba32 Y32 Fe32 Cu32 O160'
_cell_volume   3804.76324939
_cell_formula_units_Z   32
loop_
 _symmetry_equiv_pos_site_id
 _symmetry_equiv_pos_as_xyz
  1  'x, y, z'
loop_
 _atom_type_symbol
 _atom_type_oxidation_number
  Ba2+  2.0
  Y3+  3.0
  Fe3+  3.0
  Cu2+  2.0
  O2-  -2.0
loop_
 _atom_site_type_symbol
 _atom_site_label
 _atom_site_symmetry_multiplicity
 _atom_site_fract_x
 _atom_site_fract_y
 _atom_site_fract_z
 _atom_site_occupancy
  Ba2+  Ba0  1  -0.00004153  0.00010750  0.00382136  1
  Ba2+  Ba1  1  0.00689526  0.00486755  0.51071226  1
  Ba2+  Ba2  1  0.00222433  0.25254232  0.01197092  1
  Ba2+  Ba3  1  0.00164830  0.24780842  0.51225671  1
  Ba2+  Ba4  1  0.00204813  0.49877630  0.02132784  1
  Ba2+  Ba5  1  -0.00597998  0.49485821  0.51239171  1
  Ba2+  Ba6  1  0.00131566  0.74998645  0.02030590  1
  Ba2+  Ba7  1  0.00136529  0.75276056  0.51069777  1
  Ba2+  Ba8  1  0.24384166  0.00392530  0.02424670  1
  Ba2+  Ba9  1  0.24361703  0.00618753  0.51058743  1
  Ba2+  Ba10  1  0.24275529  0.24780903  0.01742559  1
  Ba2+  Ba11  1  0.25132622  0.24938845  0.50749900  1
  Ba2+  Ba12  1  0.24163511  0.50123437  0.01689349  1
  Ba2+  Ba13  1  0.25691687  0.49207582  0.49750011  1
  Ba2+  Ba14  1  0.24377750  0.74612952  0.02479115  1
  Ba2+  Ba15  1  0.24890490  0.75248328  0.50236628  1
  Ba2+  Ba16  1  0.50184117  0.00862933  0.01240094  1
  Ba2+  Ba17  1  0.50725444  0.00639006  0.51199763  1
  Ba2+  Ba18  1  0.50173794  0.24016237  0.01136361  1
  Ba2+  Ba19  1  0.49969594  0.25040967  0.50667504  1
  Ba2+  Ba20  1  0.49904586  0.50792756  0.01674147  1
  Ba2+  Ba21  1  0.49876842  0.49480523  0.49928408  1
  Ba2+  Ba22  1  0.49949564  0.74305468  0.01783061  1
  Ba2+  Ba23  1  0.50673812  0.74762015  0.50718706  1
  Ba2+  Ba24  1  0.75427571  0.00478960  -0.00575595  1
  Ba2+  Ba25  1  0.74188190  0.00492813  0.51141482  1
  Ba2+  Ba26  1  0.75391417  0.24388254  0.00596194  1
  Ba2+  Ba27  1  0.74743603  0.24876894  0.51306184  1
  Ba2+  Ba28  1  0.75698291  0.50413169  0.02016997  1
  Ba2+  Ba29  1  0.74896095  0.49905815  0.51842119  1
  Ba2+  Ba30  1  0.75647108  0.74643180  0.01206456  1
  Ba2+  Ba31  1  0.74394995  0.74790881  0.51727010  1
  Y3+  Y32  1  0.00324450  0.00036001  0.26191785  1
  Y3+  Y33  1  -0.00020987  0.00145803  0.75280321  1
  Y3+  Y34  1  0.00259705  0.25102135  0.25835272  1
  Y3+  Y35  1  -0.00021212  0.24904447  0.75680030  1
  Y3+  Y36  1  0.00112793  0.49722839  0.25653929  1
  Y3+  Y37  1  0.00001788  0.49794908  0.75658325  1
  Y3+  Y38  1  0.00157027  0.75107004  0.26078495  1
  Y3+  Y39  1  -0.00065802  0.75212973  0.75298667  1
  Y3+  Y40  1  0.24674999  0.00128654  0.26182779  1
  Y3+  Y41  1  0.24832523  0.00120080  0.75127378  1
  Y3+  Y42  1  0.24720108  0.25059561  0.25983378  1
  Y3+  Y43  1  0.24976040  0.25079772  0.75507951  1
  Y3+  Y44  1  0.25022864  0.49762165  0.25820625  1
  Y3+  Y45  1  0.25002818  0.49661590  0.75726868  1
  Y3+  Y46  1  0.24959675  0.74953016  0.26126034  1
  Y3+  Y47  1  0.24931952  0.75176224  0.75227770  1
  Y3+  Y48  1  0.50328252  0.00255666  0.25881766  1
  Y3+  Y49  1  0.50275020  0.00231048  0.75652637  1
  Y3+  Y50  1  0.50160603  0.24852397  0.25779317  1
  Y3+  Y51  1  0.49942342  0.24808285  0.75717397  1
  Y3+  Y52  1  0.49826956  0.49962613  0.25774876  1
  Y3+  Y53  1  0.49852050  0.49887618  0.75615283  1
  Y3+  Y54  1  0.50022066  0.74884324  0.25896559  1
  Y3+  Y55  1  0.50134162  0.75124243  0.75511279  1
  Y3+  Y56  1  0.74643681  0.00134023  0.26031354  1
  Y3+  Y57  1  0.74876506  0.00245863  0.75551657  1
  Y3+  Y58  1  0.74819589  0.24848215  0.25684114  1
  Y3+  Y59  1  0.75062727  0.24656669  0.75820400  1
  Y3+  Y60  1  0.75058201  0.49943030  0.25547928  1
  Y3+  Y61  1  0.75150035  0.50041810  0.75574619  1
  Y3+  Y62  1  0.74876721  0.75062281  0.25830928  1
  Y3+  Y63  1  0.74971372  0.75107884  0.75481162  1
  Fe3+  Fe64  1  0.12528119  0.12515932  0.87450112  1
  Fe3+  Fe65  1  0.62493539  0.87429758  0.87998913  1
  Fe3+  Fe66  1  0.62587006  0.62326533  0.37478053  1
  Fe3+  Fe67  1  0.37414521  0.37470579  0.88225443  1
  Fe3+  Fe68  1  0.87566552  0.37550405  0.87728189  1
  Fe3+  Fe69  1  0.87344725  0.87570406  0.38153657  1
  Fe3+  Fe70  1  0.37540376  0.12527366  0.37573212  1
  Fe3+  Fe71  1  0.87720038  0.62592761  0.87396036  1
  Fe3+  Fe72  1  0.37281871  0.12373646  0.87650426  1
  Fe3+  Fe73  1  0.12452769  0.62544981  0.87403403  1
  Fe3+  Fe74  1  0.87363658  0.37424321  0.37598237  1
  Fe3+  Fe75  1  0.62499368  0.37555034  0.88131629  1
  Fe3+  Fe76  1  0.62542749  0.62475971  0.87645860  1
  Fe3+  Fe77  1  0.37298494  0.62641390  0.87712294  1
  Fe3+  Fe78  1  0.12544707  0.87457659  0.87484301  1
  Fe3+  Fe79  1  0.37675084  0.87626404  0.37884849  1
  Fe3+  Fe80  1  0.87430749  0.62447923  0.37770305  1
  Fe3+  Fe81  1  0.12472224  0.62275701  0.37936220  1
  Fe3+  Fe82  1  0.87466201  0.12546088  0.37923661  1
  Fe3+  Fe83  1  0.37354360  0.87522452  0.88081401  1
  Fe3+  Fe84  1  0.62573883  0.37464144  0.13424770  1
  Fe3+  Fe85  1  0.87592293  0.12384705  0.13968617  1
  Fe3+  Fe86  1  0.87378743  0.87657748  0.63497642  1
  Fe3+  Fe87  1  0.87544719  0.87706675  0.13992157  1
  Fe3+  Fe88  1  0.37633025  0.87640097  0.63294304  1
  Fe3+  Fe89  1  0.37495683  0.37372883  0.13553222  1
  Fe3+  Fe90  1  0.62620826  0.87541658  0.13428546  1
  Fe3+  Fe91  1  0.37480126  0.87616586  0.13621130  1
  Fe3+  Fe92  1  0.37535996  0.62369911  0.63433813  1
  Fe3+  Fe93  1  0.12573040  0.62375256  0.63257105  1
  Fe3+  Fe94  1  0.12545732  0.37506231  0.63667546  1
  Fe3+  Fe95  1  0.62405117  0.37455940  0.64008965  1
  Cu2+  Cu96  1  0.12410714  0.37503457  0.36703002  1
  Cu2+  Cu97  1  0.12441226  0.12655756  0.37272403  1
  Cu2+  Cu98  1  0.62463146  0.12526306  0.87290134  1
  Cu2+  Cu99  1  0.62495464  0.87474222  0.37328333  1
  Cu2+  Cu100  1  0.37583892  0.37284071  0.36905695  1
  Cu2+  Cu101  1  0.12495477  0.37505341  0.87310864  1
  Cu2+  Cu102  1  0.37526635  0.62456430  0.36590898  1
  Cu2+  Cu103  1  0.12505181  0.87499132  0.37487842  1
  Cu2+  Cu104  1  0.87565997  0.87468245  0.86053516  1
  Cu2+  Cu105  1  0.87652795  0.12480350  0.86039976  1
  Cu2+  Cu106  1  0.62594321  0.37491201  0.36009339  1
  Cu2+  Cu107  1  0.62535470  0.12636869  0.37199329  1
  Cu2+  Cu108  1  0.12554547  0.87521251  0.63878764  1
  Cu2+  Cu109  1  0.37549546  0.37453962  0.64211502  1
  Cu2+  Cu110  1  0.12370075  0.12462463  0.15568594  1
  Cu2+  Cu111  1  0.87527971  0.62532369  0.64695157  1
  Cu2+  Cu112  1  0.62401566  0.87586168  0.64168370  1
  Cu2+  Cu113  1  0.37536448  0.12545017  0.64983200  1
  Cu2+  Cu114  1  0.12458486  0.62504195  0.15894914  1
  Cu2+  Cu115  1  0.62688988  0.12411004  0.14179558  1
  Cu2+  Cu116  1  0.87612180  0.62609119  0.15583410  1
  Cu2+  Cu117  1  0.62472775  0.12686785  0.64469961  1
  Cu2+  Cu118  1  0.12481946  0.87555196  0.15652379  1
  Cu2+  Cu119  1  0.37461772  0.12484561  0.15311820  1
  Cu2+  Cu120  1  0.87452069  0.37394492  0.65187106  1
  Cu2+  Cu121  1  0.87454415  0.12516984  0.64719090  1
  Cu2+  Cu122  1  0.62577409  0.62534765  0.15160747  1
  Cu2+  Cu123  1  0.12490744  0.12683850  0.64168828  1
  Cu2+  Cu124  1  0.62377667  0.62385220  0.65233850  1
  Cu2+  Cu125  1  0.87477485  0.37369342  0.15039000  1
  Cu2+  Cu126  1  0.37380774  0.62497300  0.15427164  1
  Cu2+  Cu127  1  0.12488412  0.37419558  0.14344676  1
  O2-  O128  1  0.12477582  0.12303861  -0.00491226  1
  O2-  O129  1  0.12481234  0.12780741  0.50736403  1
  O2-  O130  1  0.12478533  0.37546420  0.00844569  1
  O2-  O131  1  0.12525799  0.37627895  0.51613760  1
  O2-  O132  1  0.12350307  0.62764322  -0.00596879  1
  O2-  O133  1  0.12554016  0.62203283  0.50600182  1
  O2-  O134  1  0.12560759  0.87335239  -0.00524937  1
  O2-  O135  1  0.12559385  0.87383423  0.50637536  1
  O2-  O136  1  0.37125679  0.12242869  -0.00343393  1
  O2-  O137  1  0.37627654  0.12491134  0.49588652  1
  O2-  O138  1  0.37399737  0.37546588  0.00807950  1
  O2-  O139  1  0.37661081  0.37389096  0.50685981  1
  O2-  O140  1  0.37175167  0.62780826  -0.00296442  1
  O2-  O141  1  0.37665083  0.62310562  0.51434827  1
  O2-  O142  1  0.37215877  0.87421705  0.00669907  1
  O2-  O143  1  0.37761401  0.87614484  0.50588584  1
  O2-  O144  1  0.62637742  0.12385299  0.00728125  1
  O2-  O145  1  0.62473504  0.12804505  0.50830804  1
  O2-  O146  1  0.62541779  0.37654023  0.00741704  1
  O2-  O147  1  0.62423532  0.37514835  0.51937191  1
  O2-  O148  1  0.62612841  0.62626416  -0.00335985  1
  O2-  O149  1  0.62589984  0.62256346  0.49529972  1
  O2-  O150  1  0.62632961  0.87379020  0.00709165  1
  O2-  O151  1  0.62388584  0.87404518  0.50763716  1
  O2-  O152  1  0.87702152  0.12195636  0.01910849  1
  O2-  O153  1  0.87395572  0.12653024  0.49962397  1
  O2-  O154  1  0.87632354  0.37719935  -0.00252780  1
  O2-  O155  1  0.87207854  0.37498001  0.49612929  1
  O2-  O156  1  0.87901459  0.62635391  -0.00594235  1
  O2-  O157  1  0.87235619  0.62354332  0.49719613  1
  O2-  O158  1  0.87641609  0.87562042  0.01973857  1
  O2-  O159  1  0.87270773  0.87555536  0.50763257  1
  O2-  O160  1  0.12501534  0.00024013  0.16754356  1
  O2-  O161  1  0.12558941  0.00027224  0.66180948  1
  O2-  O162  1  0.12460586  0.24829299  0.16540233  1
  O2-  O163  1  0.12455931  0.25253018  0.66744369  1
  O2-  O164  1  0.12518169  0.50111500  0.16555337  1
  O2-  O165  1  0.12508930  0.50075731  0.66623525  1
  O2-  O166  1  0.12528926  0.74988975  0.16822673  1
  O2-  O167  1  0.12564359  0.74721123  0.65858649  1
  O2-  O168  1  0.37537449  -0.00162587  0.16382049  1
  O2-  O169  1  0.37557953  0.00012913  0.66130728  1
  O2-  O170  1  0.37611433  0.25064467  0.16088960  1
  O2-  O171  1  0.37558435  0.24783782  0.66775507  1
  O2-  O172  1  0.37472330  0.49851279  0.16236913  1
  O2-  O173  1  0.37478397  0.50189890  0.66936375  1
  O2-  O174  1  0.37427312  0.75200167  0.16588091  1
  O2-  O175  1  0.37585024  0.75075085  0.66177982  1
  O2-  O176  1  0.62462180  -0.00385455  0.16637561  1
  O2-  O177  1  0.62456480  0.00139326  0.66614354  1
  O2-  O178  1  0.62484347  0.25281632  0.16251699  1
  O2-  O179  1  0.62506156  0.25180409  0.67115110  1
  O2-  O180  1  0.62542515  0.49899031  0.16113088  1
  O2-  O181  1  0.62511400  0.49942077  0.66839851  1
  O2-  O182  1  0.62488095  0.75175320  0.16323085  1
  O2-  O183  1  0.62378739  0.74810728  0.66330709  1
  O2-  O184  1  0.87560502  -0.00060367  0.17386258  1
  O2-  O185  1  0.87374799  -0.00096704  0.66336318  1
  O2-  O186  1  0.87508363  0.24876171  0.16441409  1
  O2-  O187  1  0.87441227  0.24960074  0.66701484  1
  O2-  O188  1  0.87543346  0.50060538  0.16226323  1
  O2-  O189  1  0.87451766  0.50044983  0.66277795  1
  O2-  O190  1  0.87584378  0.75166314  0.16879331  1
  O2-  O191  1  0.87429517  0.75167977  0.66019829  1
  O2-  O192  1  -0.00026610  0.12409432  0.16891788  1
  O2-  O193  1  -0.00112336  0.12512015  0.66310668  1
  O2-  O194  1  -0.00147661  0.37499808  0.16619319  1
  O2-  O195  1  -0.00043650  0.37549531  0.66280013  1
  O2-  O196  1  0.00051014  0.62586935  0.16829269  1
  O2-  O197  1  0.00237248  0.62494088  0.65772980  1
  O2-  O198  1  0.00051894  0.87444354  0.16942683  1
  O2-  O199  1  -0.00302687  0.87522180  0.66095163  1
  O2-  O200  1  0.24881488  0.12433337  0.16525302  1
  O2-  O201  1  0.25180452  0.12562094  0.66142202  1
  O2-  O202  1  0.25315754  0.37438867  0.16482310  1
  O2-  O203  1  0.24866174  0.37499784  0.66662886  1
  O2-  O204  1  0.24899415  0.62559826  0.16781642  1
  O2-  O205  1  0.24926743  0.62554541  0.66219414  1
  O2-  O206  1  0.25076281  0.87510632  0.16487826  1
  O2-  O207  1  0.25412407  0.87486749  0.66168482  1
  O2-  O208  1  0.49985556  0.12404910  0.16287610  1
  O2-  O209  1  0.49844908  0.12511243  0.66757561  1
  O2-  O210  1  0.50010498  0.37602872  0.16058284  1
  O2-  O211  1  0.50109523  0.37491545  0.67128129  1
  O2-  O212  1  0.49977988  0.62553838  0.16187502  1
  O2-  O213  1  0.49889135  0.62519539  0.66799966  1
  O2-  O214  1  0.50025699  0.87389646  0.15856875  1
  O2-  O215  1  0.49666308  0.87560340  0.66895529  1
  O2-  O216  1  0.75203490  0.12406234  0.16809982  1
  O2-  O217  1  0.75050174  0.12539000  0.66658950  1
  O2-  O218  1  0.74884090  0.37544787  0.16101724  1
  O2-  O219  1  0.75006087  0.37537924  0.66725572  1
  O2-  O220  1  0.75104999  0.62622614  0.16175601  1
  O2-  O221  1  0.74912935  0.62522638  0.66374372  1
  O2-  O222  1  0.74893819  0.87422200  0.16558927  1
  O2-  O223  1  0.75182759  0.87479061  0.66603577  1
  O2-  O224  1  0.12513220  0.00030103  0.35142373  1
  O2-  O225  1  0.12485894  -0.00046386  0.84286644  1
  O2-  O226  1  0.12475932  0.25191876  0.34892673  1
  O2-  O227  1  0.12559693  0.24832429  0.84848803  1
  O2-  O228  1  0.12525069  0.50102285  0.34915885  1
  O2-  O229  1  0.12521413  0.50188575  0.84667675  1
  O2-  O230  1  0.12572663  0.74621334  0.35238298  1
  O2-  O231  1  0.12546165  0.75054489  0.83900286  1
  O2-  O232  1  0.37580188  -0.00055165  0.34693304  1
  O2-  O233  1  0.37543066  -0.00242867  0.84559238  1
  O2-  O234  1  0.37561224  0.24825163  0.34410228  1
  O2-  O235  1  0.37485644  0.25082004  0.85082369  1
  O2-  O236  1  0.37547241  0.49934311  0.34717384  1
  O2-  O237  1  0.37522587  0.49969517  0.85081295  1
  O2-  O238  1  0.37544252  0.75174835  0.35124706  1
  O2-  O239  1  0.37447825  0.75202279  0.84414885  1
  O2-  O240  1  0.62480666  0.00056138  0.34986080  1
  O2-  O241  1  0.62445788  -0.00339801  0.85025183  1
  O2-  O242  1  0.62530543  0.25167095  0.34629846  1
  O2-  O243  1  0.62485294  0.25328690  0.85382279  1
  O2-  O244  1  0.62461771  0.50002631  0.34429902  1
  O2-  O245  1  0.62398901  0.49952992  0.84901626  1
  O2-  O246  1  0.62454257  0.74728155  0.34627272  1
  O2-  O247  1  0.62499934  0.75095394  0.84617752  1
  O2-  O248  1  0.87422893  -0.00058611  0.35324088  1
  O2-  O249  1  0.87535287  -0.00036423  0.84824878  1
  O2-  O250  1  0.87420598  0.24995518  0.34525845  1
  O2-  O251  1  0.87446918  0.25021773  0.85049495  1
  O2-  O252  1  0.87503294  0.50003784  0.34462235  1
  O2-  O253  1  0.87525834  0.50096897  0.84383505  1
  O2-  O254  1  0.87468591  0.75021299  0.35098276  1
  O2-  O255  1  0.87489054  0.74942819  0.84259636  1
  O2-  O256  1  -0.00200662  0.12521174  0.35005509  1
  O2-  O257  1  0.00096677  0.12413668  0.84556808  1
  O2-  O258  1  -0.00139600  0.37545621  0.34906147  1
  O2-  O259  1  -0.00188545  0.37492367  0.84471030  1
  O2-  O260  1  0.00048568  0.62471347  0.35144232  1
  O2-  O261  1  0.00051812  0.62607942  0.83887586  1
  O2-  O262  1  -0.00380976  0.87424047  0.35262584  1
  O2-  O263  1  0.00100232  0.87479326  0.84401562  1
  O2-  O264  1  0.25092850  0.12515949  0.34855642  1
  O2-  O265  1  0.25008514  0.12403947  0.84132274  1
  O2-  O266  1  0.24866769  0.37503758  0.34871992  1
  O2-  O267  1  0.25329833  0.37567170  0.84899572  1
  O2-  O268  1  0.24869838  0.62404993  0.35251107  1
  O2-  O269  1  0.25003845  0.62567296  0.84160567  1
  O2-  O270  1  0.25363049  0.87460415  0.35012401  1
  O2-  O271  1  0.25115637  0.87481955  0.84372699  1
  O2-  O272  1  0.49959945  0.12523989  0.34584847  1
  O2-  O273  1  0.49719051  0.12459018  0.84947189  1
  O2-  O274  1  0.50213611  0.37501303  0.34517541  1
  O2-  O275  1  0.49932989  0.37558402  0.85397631  1
  O2-  O276  1  0.50065889  0.62431925  0.34595948  1
  O2-  O277  1  0.49929086  0.62616776  0.84870859  1
  O2-  O278  1  0.49758458  0.87456788  0.34434208  1
  O2-  O279  1  0.49946610  0.87357727  0.85389519  1
  O2-  O280  1  0.75123489  0.12517627  0.34852140  1
  O2-  O281  1  0.75181745  0.12403506  0.85044449  1
  O2-  O282  1  0.75048291  0.37545885  0.34355460  1
  O2-  O283  1  0.74911145  0.37608619  0.84957968  1
  O2-  O284  1  0.75062334  0.62450676  0.34311092  1
  O2-  O285  1  0.75027358  0.62550677  0.84610872  1
  O2-  O286  1  0.75267399  0.87447095  0.34780840  1
  O2-  O287  1  0.74861095  0.87444880  0.85152084  1
