# generated using pymatgen
data_BaYFeCuO5
_symmetry_space_group_name_H-M   'P 1'
_cell_length_a   15.65950901
_cell_length_b   15.65861299
_cell_length_c   15.46416729
_cell_angle_alpha   90.00110482
_cell_angle_beta   90.00009950
_cell_angle_gamma   89.99751453
_symmetry_Int_Tables_number   1
_chemical_formula_structural   BaYFeCuO5
_chemical_formula_sum   'Ba32 Y32 Fe32 Cu32 O160'
_cell_volume   3791.90955725
_cell_formula_units_Z   32
loop_
 _symmetry_equiv_pos_site_id
 _symmetry_equiv_pos_as_xyz
  1  'x, y, z'
loop_
 _atom_type_symbol
 _atom_type_oxidation_number
  Ba2+  2.0
  Y3+  3.0
  Fe3+  3.0
  Cu2+  2.0
  O2-  -2.0
loop_
 _atom_site_type_symbol
 _atom_site_label
 _atom_site_symmetry_multiplicity
 _atom_site_fract_x
 _atom_site_fract_y
 _atom_site_fract_z
 _atom_site_occupancy
  Ba2+  Ba0  1  -0.00141474  0.00069911  0.01550873  1
  Ba2+  Ba1  1  0.00307188  -0.00219943  0.51942120  1
  Ba2+  Ba2  1  -0.00763885  0.25685520  0.00714456  1
  Ba2+  Ba3  1  0.00021157  0.25003551  0.51772717  1
  Ba2+  Ba4  1  -0.00882429  0.49624325  0.00298865  1
  Ba2+  Ba5  1  -0.00182173  0.50288405  0.51154383  1
  Ba2+  Ba6  1  -0.00299721  0.74637483  0.01197176  1
  Ba2+  Ba7  1  0.00151067  0.74953997  0.51640037  1
  Ba2+  Ba8  1  0.24550063  -0.00470303  0.01205854  1
  Ba2+  Ba9  1  0.24911332  -0.00041542  0.51608908  1
  Ba2+  Ba10  1  0.24474884  0.25538792  0.00281145  1
  Ba2+  Ba11  1  0.25251645  0.24772185  0.51201452  1
  Ba2+  Ba12  1  0.25195867  0.50277005  0.00278847  1
  Ba2+  Ba13  1  0.25181893  0.50251496  0.51149384  1
  Ba2+  Ba14  1  0.25214904  0.74657161  0.01195074  1
  Ba2+  Ba15  1  0.24860743  0.74978562  0.51630500  1
  Ba2+  Ba16  1  0.50468366  0.00371647  0.01222986  1
  Ba2+  Ba17  1  0.49546819  0.00913992  0.50961378  1
  Ba2+  Ba18  1  0.51033180  0.25230747  0.00693267  1
  Ba2+  Ba19  1  0.49961851  0.24703396  0.51572520  1
  Ba2+  Ba20  1  0.50386625  0.50456870  -0.00373362  1
  Ba2+  Ba21  1  0.49827391  0.50028992  0.52148448  1
  Ba2+  Ba22  1  0.49846375  0.73931545  0.00209251  1
  Ba2+  Ba23  1  0.49291304  0.74351216  0.51552725  1
  Ba2+  Ba24  1  0.75066799  0.00953599  0.01776764  1
  Ba2+  Ba25  1  0.75247895  0.00684219  0.51529386  1
  Ba2+  Ba26  1  0.75347841  0.25435165  0.01228959  1
  Ba2+  Ba27  1  0.74803785  0.24943800  0.51958489  1
  Ba2+  Ba28  1  0.75336452  0.49844465  -0.00385701  1
  Ba2+  Ba29  1  0.75176762  0.50076274  0.52091749  1
  Ba2+  Ba30  1  0.75192474  0.73843625  0.00169503  1
  Ba2+  Ba31  1  0.75699486  0.74351177  0.51548266  1
  Y3+  Y32  1  0.00138495  -0.00218553  0.25722050  1
  Y3+  Y33  1  0.00030126  -0.00085752  0.75348210  1
  Y3+  Y34  1  -0.00164908  0.25275551  0.25560755  1
  Y3+  Y35  1  -0.00159910  0.25224102  0.75806085  1
  Y3+  Y36  1  -0.00283099  0.50076649  0.25739066  1
  Y3+  Y37  1  -0.00337289  0.49963971  0.75876382  1
  Y3+  Y38  1  0.00003060  0.74896504  0.25866728  1
  Y3+  Y39  1  -0.00083449  0.74840116  0.75497374  1
  Y3+  Y40  1  0.24855498  -0.00167833  0.25965463  1
  Y3+  Y41  1  0.24979043  -0.00102465  0.75365684  1
  Y3+  Y42  1  0.25009110  0.25126633  0.25956694  1
  Y3+  Y43  1  0.25040980  0.25013516  0.75593808  1
  Y3+  Y44  1  0.25106148  0.50193668  0.25862420  1
  Y3+  Y45  1  0.25131459  0.50156698  0.75774606  1
  Y3+  Y46  1  0.24975486  0.74925931  0.25841280  1
  Y3+  Y47  1  0.25061690  0.74869275  0.75548791  1
  Y3+  Y48  1  0.50121262  0.00308932  0.26073068  1
  Y3+  Y49  1  0.49933426  0.00105455  0.75287939  1
  Y3+  Y50  1  0.50151987  0.24788757  0.26100480  1
  Y3+  Y51  1  0.50131882  0.25075992  0.75329135  1
  Y3+  Y52  1  0.49794954  0.50230488  0.25897233  1
  Y3+  Y53  1  0.50075960  0.50142625  0.75687412  1
  Y3+  Y54  1  0.49800942  0.74748012  0.25794091  1
  Y3+  Y55  1  0.49844064  0.74632294  0.75664307  1
  Y3+  Y56  1  0.74881857  0.00282579  0.25860104  1
  Y3+  Y57  1  0.75049343  0.00059827  0.75279586  1
  Y3+  Y58  1  0.75004643  0.24956965  0.25671404  1
  Y3+  Y59  1  0.74998759  0.25294309  0.75562723  1
  Y3+  Y60  1  0.75375275  0.50068219  0.25751361  1
  Y3+  Y61  1  0.75114513  0.49971946  0.75786796  1
  Y3+  Y62  1  0.75220843  0.74719909  0.25834168  1
  Y3+  Y63  1  0.75183333  0.74622886  0.75602546  1
  Fe3+  Fe64  1  0.62562218  0.87517072  0.87897371  1
  Fe3+  Fe65  1  0.12423211  0.87468856  0.87741460  1
  Fe3+  Fe66  1  0.62586513  0.12512825  0.87436488  1
  Fe3+  Fe67  1  0.12415921  0.12560369  0.37639045  1
  Fe3+  Fe68  1  0.37468418  0.87479943  0.37730865  1
  Fe3+  Fe69  1  0.37592901  0.37443322  0.87858724  1
  Fe3+  Fe70  1  0.12476266  0.62473592  0.37710309  1
  Fe3+  Fe71  1  0.87500637  0.37498049  0.37891717  1
  Fe3+  Fe72  1  0.37518765  0.12459594  0.87968038  1
  Fe3+  Fe73  1  0.12418137  0.62455727  0.87873262  1
  Fe3+  Fe74  1  0.87529511  0.87504413  0.37775349  1
  Fe3+  Fe75  1  0.12425135  0.12489897  0.87871479  1
  Fe3+  Fe76  1  0.62544664  0.37571738  0.37955612  1
  Fe3+  Fe77  1  0.87616943  0.12556382  0.37599771  1
  Fe3+  Fe78  1  0.37552331  0.87530092  0.87922966  1
  Fe3+  Fe79  1  0.87467177  0.12462275  0.87495388  1
  Fe3+  Fe80  1  0.62526176  0.87421105  0.38082300  1
  Fe3+  Fe81  1  0.62524411  0.62415856  0.38021967  1
  Fe3+  Fe82  1  0.87427026  0.87565141  0.87852527  1
  Fe3+  Fe83  1  0.37532817  0.37529888  0.37817699  1
  Fe3+  Fe84  1  0.62516537  0.87374081  0.13378127  1
  Fe3+  Fe85  1  0.37622491  0.37563481  0.13408826  1
  Fe3+  Fe86  1  0.12537667  0.37617176  0.63932270  1
  Fe3+  Fe87  1  0.62534329  0.37676367  0.13780618  1
  Fe3+  Fe88  1  0.37461706  0.12620975  0.13357621  1
  Fe3+  Fe89  1  0.12443162  0.12595665  0.13430159  1
  Fe3+  Fe90  1  0.12484483  0.37658769  0.13707009  1
  Fe3+  Fe91  1  0.62551140  0.62376176  0.13819668  1
  Fe3+  Fe92  1  0.87379600  0.87436269  0.13433029  1
  Fe3+  Fe93  1  0.62443985  0.87376559  0.63447085  1
  Fe3+  Fe94  1  0.12436608  0.62440338  0.13508851  1
  Fe3+  Fe95  1  0.37607005  0.87474778  0.13439161  1
  Cu2+  Cu96  1  0.12464660  0.87437118  0.37345073  1
  Cu2+  Cu97  1  0.87522095  0.62483430  0.37339778  1
  Cu2+  Cu98  1  0.87600313  0.62535045  0.87113508  1
  Cu2+  Cu99  1  0.37476251  0.62503294  0.37329943  1
  Cu2+  Cu100  1  0.62605522  0.12597683  0.37418426  1
  Cu2+  Cu101  1  0.12448723  0.37551611  0.36497110  1
  Cu2+  Cu102  1  0.62554545  0.62515410  0.86032522  1
  Cu2+  Cu103  1  0.37405418  0.62531940  0.87195062  1
  Cu2+  Cu104  1  0.87407235  0.37390883  0.87008347  1
  Cu2+  Cu105  1  0.37379130  0.12520142  0.37100121  1
  Cu2+  Cu106  1  0.62478629  0.37458997  0.86148717  1
  Cu2+  Cu107  1  0.12514643  0.37516788  0.86451553  1
  Cu2+  Cu108  1  0.87571688  0.12554886  0.65119387  1
  Cu2+  Cu109  1  0.87454570  0.87449508  0.64942795  1
  Cu2+  Cu110  1  0.37555296  0.87455398  0.65058833  1
  Cu2+  Cu111  1  0.87536888  0.37503102  0.64923724  1
  Cu2+  Cu112  1  0.12500235  0.87412743  0.14835099  1
  Cu2+  Cu113  1  0.62469807  0.12580506  0.15199375  1
  Cu2+  Cu114  1  0.12491744  0.12587511  0.65323480  1
  Cu2+  Cu115  1  0.87413523  0.37603247  0.14310709  1
  Cu2+  Cu116  1  0.87601094  0.62399708  0.64381377  1
  Cu2+  Cu117  1  0.12481409  0.62387647  0.65362368  1
  Cu2+  Cu118  1  0.62523171  0.62498877  0.65095730  1
  Cu2+  Cu119  1  0.87453639  0.62436293  0.14167768  1
  Cu2+  Cu120  1  0.62488689  0.12492426  0.64210460  1
  Cu2+  Cu121  1  0.37417628  0.12530814  0.64379182  1
  Cu2+  Cu122  1  0.37557335  0.62404907  0.14076739  1
  Cu2+  Cu123  1  0.37399954  0.62425702  0.64403669  1
  Cu2+  Cu124  1  0.62492405  0.37580466  0.64963291  1
  Cu2+  Cu125  1  0.87581575  0.12514846  0.15067682  1
  Cu2+  Cu126  1  0.37453775  0.37517090  0.65266758  1
  Cu2+  Cu127  1  0.12535967  0.87388895  0.64184846  1
  O2-  O128  1  0.12433173  0.12493858  0.00599936  1
  O2-  O129  1  0.12429973  0.12543658  0.49680997  1
  O2-  O130  1  0.12500079  0.37573884  0.01698260  1
  O2-  O131  1  0.12576281  0.37494057  0.51885221  1
  O2-  O132  1  0.12431682  0.62456276  0.00692159  1
  O2-  O133  1  0.12518894  0.62510839  0.49800326  1
  O2-  O134  1  0.12392699  0.87612716  -0.00266817  1
  O2-  O135  1  0.12513083  0.87485502  0.50686579  1
  O2-  O136  1  0.37609239  0.12556714  0.00622627  1
  O2-  O137  1  0.37282673  0.12529909  0.50686820  1
  O2-  O138  1  0.37658313  0.37435614  0.00698623  1
  O2-  O139  1  0.37522938  0.37444250  0.49872626  1
  O2-  O140  1  0.37475185  0.62483225  0.00650475  1
  O2-  O141  1  0.37387360  0.62437146  0.50820524  1
  O2-  O142  1  0.37626645  0.87533305  0.00625577  1
  O2-  O143  1  0.37516291  0.87567522  0.49781943  1
  O2-  O144  1  0.62544450  0.12430323  -0.00470913  1
  O2-  O145  1  0.62559788  0.12487155  0.50715046  1
  O2-  O146  1  0.62552354  0.37720830  0.01713226  1
  O2-  O147  1  0.62458111  0.37525778  0.50005108  1
  O2-  O148  1  0.62534044  0.62382542  0.01749193  1
  O2-  O149  1  0.62493147  0.62544733  0.50069045  1
  O2-  O150  1  0.62580901  0.87515894  0.00661065  1
  O2-  O151  1  0.62464999  0.87419518  0.50658436  1
  O2-  O152  1  0.87444689  0.12437163  -0.00473687  1
  O2-  O153  1  0.87762690  0.12504714  0.49617056  1
  O2-  O154  1  0.87303738  0.37465941  0.00611770  1
  O2-  O155  1  0.87506060  0.37366371  0.49953818  1
  O2-  O156  1  0.87538642  0.62532814  0.00629963  1
  O2-  O157  1  0.87620835  0.62468512  0.50820417  1
  O2-  O158  1  0.87298854  0.87591361  0.00579744  1
  O2-  O159  1  0.87506957  0.87614000  0.49791176  1
  O2-  O160  1  0.12537392  0.00129792  0.16079069  1
  O2-  O161  1  0.12542403  0.00156306  0.66538019  1
  O2-  O162  1  0.12588125  0.24941999  0.16350201  1
  O2-  O163  1  0.12526461  0.25067254  0.66851353  1
  O2-  O164  1  0.12553967  0.50104402  0.16643400  1
  O2-  O165  1  0.12545697  0.49964562  0.66965262  1
  O2-  O166  1  0.12522978  0.74872871  0.16127067  1
  O2-  O167  1  0.12506551  0.74766807  0.66666614  1
  O2-  O168  1  0.37530062  0.00077517  0.15817107  1
  O2-  O169  1  0.37483870  -0.00122684  0.66731184  1
  O2-  O170  1  0.37417828  0.24988183  0.16064545  1
  O2-  O171  1  0.37449551  0.25121162  0.66817741  1
  O2-  O172  1  0.37527087  0.49690043  0.16442872  1
  O2-  O173  1  0.37464980  0.49889703  0.66800901  1
  O2-  O174  1  0.37585289  0.75294350  0.16218323  1
  O2-  O175  1  0.37498697  0.75046203  0.66672942  1
  O2-  O176  1  0.62447394  -0.00119359  0.16214698  1
  O2-  O177  1  0.62471195  -0.00342594  0.66381686  1
  O2-  O178  1  0.62448266  0.25037287  0.16402337  1
  O2-  O179  1  0.62468388  0.25136653  0.66488673  1
  O2-  O180  1  0.62432532  0.50019666  0.17045918  1
  O2-  O181  1  0.62456803  0.50025740  0.66549799  1
  O2-  O182  1  0.62485431  0.75135043  0.16512097  1
  O2-  O183  1  0.62485552  0.75145275  0.66563528  1
  O2-  O184  1  0.87475039  -0.00159807  0.16053542  1
  O2-  O185  1  0.87517300  0.00008059  0.66397414  1
  O2-  O186  1  0.87516158  0.24882501  0.16265290  1
  O2-  O187  1  0.87551591  0.25010317  0.66470078  1
  O2-  O188  1  0.87505062  0.50038718  0.16677128  1
  O2-  O189  1  0.87530600  0.49857684  0.66653861  1
  O2-  O190  1  0.87411772  0.75289492  0.16277188  1
  O2-  O191  1  0.87508992  0.75039065  0.66663316  1
  O2-  O192  1  0.00212282  0.12466703  0.15936325  1
  O2-  O193  1  0.00000439  0.12488070  0.66558476  1
  O2-  O194  1  0.00140175  0.37510174  0.16526397  1
  O2-  O195  1  0.00046831  0.37462553  0.66698560  1
  O2-  O196  1  0.00223389  0.62551676  0.16256949  1
  O2-  O197  1  0.00113535  0.62461520  0.66733438  1
  O2-  O198  1  -0.00214748  0.87514815  0.16024324  1
  O2-  O199  1  -0.00145434  0.87467128  0.66589231  1
  O2-  O200  1  0.25002782  0.12465117  0.15881334  1
  O2-  O201  1  0.24869636  0.12517087  0.66975608  1
  O2-  O202  1  0.25141670  0.37466587  0.16356478  1
  O2-  O203  1  0.24960257  0.37486790  0.67011941  1
  O2-  O204  1  0.24743285  0.62517038  0.16187589  1
  O2-  O205  1  0.24874968  0.62471196  0.66822231  1
  O2-  O206  1  0.25240795  0.87563815  0.16053294  1
  O2-  O207  1  0.25165353  0.87464758  0.66737203  1
  O2-  O208  1  0.49727220  0.12493490  0.16373677  1
  O2-  O209  1  0.49980769  0.12472422  0.66623930  1
  O2-  O210  1  0.49905419  0.37367008  0.16453308  1
  O2-  O211  1  0.49926144  0.37516265  0.66615968  1
  O2-  O212  1  0.50189148  0.62575585  0.16746950  1
  O2-  O213  1  0.50064482  0.62505454  0.66616234  1
  O2-  O214  1  0.50073869  0.87637608  0.16192319  1
  O2-  O215  1  0.50158719  0.87436097  0.66624579  1
  O2-  O216  1  0.75031433  0.12428699  0.16296941  1
  O2-  O217  1  0.75155359  0.12423760  0.66263509  1
  O2-  O218  1  0.74815325  0.37456136  0.16707031  1
  O2-  O219  1  0.75051078  0.37514084  0.66335673  1
  O2-  O220  1  0.74839257  0.62596021  0.16758382  1
  O2-  O221  1  0.74950259  0.62514119  0.66540865  1
  O2-  O222  1  0.74895684  0.87620127  0.16273888  1
  O2-  O223  1  0.74832252  0.87454827  0.66346028  1
  O2-  O224  1  0.12468401  0.00165809  0.34418622  1
  O2-  O225  1  0.12561978  0.00077098  0.84845414  1
  O2-  O226  1  0.12470862  0.25036970  0.34560198  1
  O2-  O227  1  0.12589149  0.24785872  0.85229778  1
  O2-  O228  1  0.12544369  0.50020227  0.34822314  1
  O2-  O229  1  0.12574284  0.50100252  0.85344051  1
  O2-  O230  1  0.12491295  0.74789751  0.34460653  1
  O2-  O231  1  0.12482231  0.75006465  0.84975360  1
  O2-  O232  1  0.37526064  -0.00201661  0.34239393  1
  O2-  O233  1  0.37512355  0.00025399  0.85173770  1
  O2-  O234  1  0.37459875  0.25227723  0.34400030  1
  O2-  O235  1  0.37478322  0.24868279  0.85274852  1
  O2-  O236  1  0.37451074  0.49843466  0.34670551  1
  O2-  O237  1  0.37509974  0.49717004  0.85230616  1
  O2-  O238  1  0.37552061  0.75165802  0.34511625  1
  O2-  O239  1  0.37531004  0.75345169  0.85056159  1
  O2-  O240  1  0.62525850  -0.00330929  0.34783377  1
  O2-  O241  1  0.62444184  -0.00105206  0.84672171  1
  O2-  O242  1  0.62522274  0.25253422  0.34626675  1
  O2-  O243  1  0.62401294  0.24850259  0.84773567  1
  O2-  O244  1  0.62474149  0.49999533  0.34824853  1
  O2-  O245  1  0.62451938  0.49997205  0.85059889  1
  O2-  O246  1  0.62495610  0.75097316  0.34744054  1
  O2-  O247  1  0.62489412  0.75230059  0.85097559  1
  O2-  O248  1  0.87485704  0.00004901  0.34263959  1
  O2-  O249  1  0.87456697  -0.00107748  0.84649538  1
  O2-  O250  1  0.87572334  0.25034296  0.34424819  1
  O2-  O251  1  0.87502440  0.24751874  0.84721462  1
  O2-  O252  1  0.87530762  0.49832452  0.34872151  1
  O2-  O253  1  0.87478874  0.49966695  0.85012748  1
  O2-  O254  1  0.87455735  0.75149300  0.34574082  1
  O2-  O255  1  0.87477741  0.75352496  0.85044860  1
  O2-  O256  1  -0.00011519  0.12500063  0.34065532  1
  O2-  O257  1  0.00111018  0.12399986  0.84912304  1
  O2-  O258  1  -0.00075368  0.37514530  0.34750902  1
  O2-  O259  1  0.00131088  0.37430799  0.84998724  1
  O2-  O260  1  0.00128798  0.62480531  0.34546566  1
  O2-  O261  1  0.00277564  0.62537539  0.85035767  1
  O2-  O262  1  -0.00210440  0.87498316  0.34405515  1
  O2-  O263  1  -0.00109377  0.87609955  0.84941193  1
  O2-  O264  1  0.24750054  0.12537767  0.34230004  1
  O2-  O265  1  0.25051061  0.12441095  0.85464870  1
  O2-  O266  1  0.25012738  0.37499458  0.34651044  1
  O2-  O267  1  0.25214388  0.37379586  0.85376939  1
  O2-  O268  1  0.24856740  0.62504538  0.34505273  1
  O2-  O269  1  0.24683944  0.62561178  0.85158585  1
  O2-  O270  1  0.25141234  0.87491991  0.34451639  1
  O2-  O271  1  0.25086802  0.87595839  0.85113692  1
  O2-  O272  1  0.50000077  0.12452310  0.34882881  1
  O2-  O273  1  0.49855833  0.12399902  0.84912192  1
  O2-  O274  1  0.50042142  0.37512184  0.34509765  1
  O2-  O275  1  0.49857489  0.37387715  0.85118743  1
  O2-  O276  1  0.50178269  0.62582115  0.34823722  1
  O2-  O277  1  0.50091514  0.62569016  0.85016710  1
  O2-  O278  1  0.50174162  0.87520904  0.34602796  1
  O2-  O279  1  0.50034198  0.87586101  0.85225527  1
  O2-  O280  1  0.75279104  0.12460752  0.34625903  1
  O2-  O281  1  0.74974366  0.12375815  0.84377438  1
  O2-  O282  1  0.75039686  0.37497006  0.34687442  1
  O2-  O283  1  0.74799840  0.37437797  0.84738679  1
  O2-  O284  1  0.74830646  0.62588887  0.34829028  1
  O2-  O285  1  0.74943873  0.62594158  0.84931072  1
  O2-  O286  1  0.74884314  0.87492629  0.34655596  1
  O2-  O287  1  0.74962653  0.87546691  0.84934259  1
