# generated using pymatgen
data_BaYFeCuO5
_symmetry_space_group_name_H-M   'P 1'
_cell_length_a   15.67608482
_cell_length_b   15.67005158
_cell_length_c   15.48935393
_cell_angle_alpha   89.99442193
_cell_angle_beta   90.00368962
_cell_angle_gamma   89.99983298
_symmetry_Int_Tables_number   1
_chemical_formula_structural   BaYFeCuO5
_chemical_formula_sum   'Ba32 Y32 Fe32 Cu32 O160'
_cell_volume   3804.88321471
_cell_formula_units_Z   32
loop_
 _symmetry_equiv_pos_site_id
 _symmetry_equiv_pos_as_xyz
  1  'x, y, z'
loop_
 _atom_type_symbol
 _atom_type_oxidation_number
  Ba2+  2.0
  Y3+  3.0
  Fe3+  3.0
  Cu2+  2.0
  O2-  -2.0
loop_
 _atom_site_type_symbol
 _atom_site_label
 _atom_site_symmetry_multiplicity
 _atom_site_fract_x
 _atom_site_fract_y
 _atom_site_fract_z
 _atom_site_occupancy
  Ba2+  Ba0  1  -0.00515605  0.00283196  0.00529891  1
  Ba2+  Ba1  1  -0.00113739  -0.00144410  0.52211556  1
  Ba2+  Ba2  1  0.00205288  0.25213941  0.01950360  1
  Ba2+  Ba3  1  0.00002833  0.25300796  0.51436211  1
  Ba2+  Ba4  1  -0.00223178  0.50084725  0.02380428  1
  Ba2+  Ba5  1  -0.00392658  0.49250813  0.50927189  1
  Ba2+  Ba6  1  -0.00881650  0.74506044  0.01046667  1
  Ba2+  Ba7  1  -0.00665360  0.75629371  0.51625652  1
  Ba2+  Ba8  1  0.24721723  0.01088023  0.00627561  1
  Ba2+  Ba9  1  0.25080695  -0.00233480  0.51271031  1
  Ba2+  Ba10  1  0.24737289  0.25284021  0.01922456  1
  Ba2+  Ba11  1  0.24582350  0.25118629  0.51091598  1
  Ba2+  Ba12  1  0.24411436  0.49314310  0.02438697  1
  Ba2+  Ba13  1  0.25053535  0.49414123  0.50721865  1
  Ba2+  Ba14  1  0.24336397  0.74340074  0.01153500  1
  Ba2+  Ba15  1  0.25619846  0.75631490  0.50676059  1
  Ba2+  Ba16  1  0.49597183  0.00608337  0.00162650  1
  Ba2+  Ba17  1  0.49408466  -0.00772365  0.50760659  1
  Ba2+  Ba18  1  0.49500051  0.25715237  0.01258866  1
  Ba2+  Ba19  1  0.49650432  0.25453340  0.51333102  1
  Ba2+  Ba20  1  0.50722708  0.49654098  0.01699756  1
  Ba2+  Ba21  1  0.50159413  0.50206389  0.50630415  1
  Ba2+  Ba22  1  0.50723793  0.74169817  0.00677595  1
  Ba2+  Ba23  1  0.49967532  0.75138018  0.49910556  1
  Ba2+  Ba24  1  0.76068051  -0.00185853  0.00159898  1
  Ba2+  Ba25  1  0.75583221  -0.00679619  0.51760843  1
  Ba2+  Ba26  1  0.75544036  0.25719645  0.01254366  1
  Ba2+  Ba27  1  0.75634240  0.25537454  0.51538113  1
  Ba2+  Ba28  1  0.75201985  0.50392081  0.01588566  1
  Ba2+  Ba29  1  0.75251997  0.49922204  0.51213794  1
  Ba2+  Ba30  1  0.75642018  0.74199994  0.00657974  1
  Ba2+  Ba31  1  0.75149372  0.75252108  0.51424883  1
  Y3+  Y32  1  -0.00200870  -0.00166854  0.25570486  1
  Y3+  Y33  1  -0.00212502  -0.00035319  0.75734565  1
  Y3+  Y34  1  0.00043466  0.25268733  0.26161917  1
  Y3+  Y35  1  -0.00048235  0.25000469  0.75098359  1
  Y3+  Y36  1  -0.00123759  0.49860872  0.26074906  1
  Y3+  Y37  1  -0.00257683  0.49982809  0.75169447  1
  Y3+  Y38  1  -0.00356158  0.75022345  0.25455166  1
  Y3+  Y39  1  -0.00426020  0.75052017  0.75872508  1
  Y3+  Y40  1  0.25114449  0.00058687  0.25952679  1
  Y3+  Y41  1  0.24921966  -0.00002731  0.75555061  1
  Y3+  Y42  1  0.24799805  0.25069845  0.26057590  1
  Y3+  Y43  1  0.24847129  0.25059592  0.75273642  1
  Y3+  Y44  1  0.24782545  0.49920544  0.26125396  1
  Y3+  Y45  1  0.24916620  0.49782292  0.75177631  1
  Y3+  Y46  1  0.25065537  0.74948559  0.25884691  1
  Y3+  Y47  1  0.24951378  0.75113869  0.75591574  1
  Y3+  Y48  1  0.49850388  -0.00035120  0.25948823  1
  Y3+  Y49  1  0.49920417  -0.00092459  0.75717975  1
  Y3+  Y50  1  0.49969652  0.25076912  0.25811772  1
  Y3+  Y51  1  0.49926306  0.25144489  0.75677001  1
  Y3+  Y52  1  0.50249514  0.50159372  0.25716004  1
  Y3+  Y53  1  0.50188841  0.49918329  0.75714103  1
  Y3+  Y54  1  0.50114581  0.74786382  0.25738342  1
  Y3+  Y55  1  0.50159028  0.74990832  0.75856579  1
  Y3+  Y56  1  0.75238788  -0.00243309  0.25666327  1
  Y3+  Y57  1  0.75391504  -0.00161105  0.75840122  1
  Y3+  Y58  1  0.75142159  0.25243715  0.25885240  1
  Y3+  Y59  1  0.75268450  0.25123777  0.75456972  1
  Y3+  Y60  1  0.75072919  0.50122111  0.25653944  1
  Y3+  Y61  1  0.75165672  0.50167684  0.75722261  1
  Y3+  Y62  1  0.75166108  0.74873932  0.25424215  1
  Y3+  Y63  1  0.75309042  0.74862444  0.76183869  1
  Fe3+  Fe64  1  0.62639664  0.37536551  0.87587409  1
  Fe3+  Fe65  1  0.62599657  0.12698641  0.87952693  1
  Fe3+  Fe66  1  0.12329973  0.87508126  0.37564341  1
  Fe3+  Fe67  1  0.87429946  0.62608249  0.37772919  1
  Fe3+  Fe68  1  0.12422539  0.12767025  0.87453809  1
  Fe3+  Fe69  1  0.12376352  0.37561160  0.87367165  1
  Fe3+  Fe70  1  0.12419794  0.62215482  0.87574073  1
  Fe3+  Fe71  1  0.62545967  0.12447348  0.38138202  1
  Fe3+  Fe72  1  0.12390026  0.62629563  0.37994725  1
  Fe3+  Fe73  1  0.37378617  0.87435365  0.88151030  1
  Fe3+  Fe74  1  0.12426598  0.87453617  0.87936424  1
  Fe3+  Fe75  1  0.37556324  0.37503040  0.37576988  1
  Fe3+  Fe76  1  0.12405343  0.12363198  0.37776983  1
  Fe3+  Fe77  1  0.62583483  0.87460801  0.88026577  1
  Fe3+  Fe78  1  0.62678939  0.87455359  0.37526126  1
  Fe3+  Fe79  1  0.37378233  0.62212738  0.88087108  1
  Fe3+  Fe80  1  0.87488830  0.12392974  0.37886420  1
  Fe3+  Fe81  1  0.87733111  0.37544927  0.87544537  1
  Fe3+  Fe82  1  0.62599806  0.37552661  0.37718825  1
  Fe3+  Fe83  1  0.37288156  0.37532724  0.87578846  1
  Fe3+  Fe84  1  0.62542464  0.12406842  0.63527275  1
  Fe3+  Fe85  1  0.12391919  0.62642302  0.63281449  1
  Fe3+  Fe86  1  0.87548158  0.12575748  0.13842833  1
  Fe3+  Fe87  1  0.37498367  0.87470343  0.13371847  1
  Fe3+  Fe88  1  0.62548150  0.62617564  0.63884077  1
  Fe3+  Fe89  1  0.37513624  0.12479433  0.63787727  1
  Fe3+  Fe90  1  0.37455099  0.62342493  0.13608202  1
  Fe3+  Fe91  1  0.37464283  0.12597826  0.13975408  1
  Fe3+  Fe92  1  0.37575173  0.62545495  0.63755955  1
  Fe3+  Fe93  1  0.12468961  0.87554256  0.13337467  1
  Fe3+  Fe94  1  0.62533966  0.87573311  0.13311408  1
  Fe3+  Fe95  1  0.62577580  0.12547313  0.13430219  1
  Cu2+  Cu96  1  0.87406625  0.37509955  0.37204749  1
  Cu2+  Cu97  1  0.37481983  0.87472841  0.36988880  1
  Cu2+  Cu98  1  0.87569605  0.12741379  0.86189249  1
  Cu2+  Cu99  1  0.87649261  0.62206800  0.87077070  1
  Cu2+  Cu100  1  0.37422228  0.12653750  0.86252336  1
  Cu2+  Cu101  1  0.62623265  0.62537019  0.36368017  1
  Cu2+  Cu102  1  0.62558025  0.62306080  0.87344860  1
  Cu2+  Cu103  1  0.87501179  0.87485319  0.37071774  1
  Cu2+  Cu104  1  0.12436000  0.37495139  0.37358211  1
  Cu2+  Cu105  1  0.37492515  0.62453525  0.36390815  1
  Cu2+  Cu106  1  0.87624735  0.87450981  0.87341996  1
  Cu2+  Cu107  1  0.37536865  0.12539690  0.36708872  1
  Cu2+  Cu108  1  0.87440718  0.87435049  0.64655762  1
  Cu2+  Cu109  1  0.37580086  0.37572019  0.64849539  1
  Cu2+  Cu110  1  0.62507172  0.87462440  0.65546958  1
  Cu2+  Cu111  1  0.12477527  0.12394309  0.64775958  1
  Cu2+  Cu112  1  0.87440509  0.37580500  0.64208948  1
  Cu2+  Cu113  1  0.12412203  0.37480227  0.15829047  1
  Cu2+  Cu114  1  0.62590858  0.62508181  0.14226434  1
  Cu2+  Cu115  1  0.87525263  0.62428999  0.14541587  1
  Cu2+  Cu116  1  0.12481322  0.87400561  0.65337998  1
  Cu2+  Cu117  1  0.87456907  0.87517323  0.13954028  1
  Cu2+  Cu118  1  0.62524438  0.37536594  0.64854149  1
  Cu2+  Cu119  1  0.12470613  0.62550053  0.15398248  1
  Cu2+  Cu120  1  0.37483184  0.37541490  0.15508546  1
  Cu2+  Cu121  1  0.12469143  0.12457248  0.15339299  1
  Cu2+  Cu122  1  0.62581356  0.37406024  0.15210369  1
  Cu2+  Cu123  1  0.37587939  0.87375135  0.64496722  1
  Cu2+  Cu124  1  0.87462583  0.62565358  0.64775500  1
  Cu2+  Cu125  1  0.87514532  0.37489124  0.15429829  1
  Cu2+  Cu126  1  0.12476981  0.37559497  0.63881134  1
  Cu2+  Cu127  1  0.87469508  0.12458955  0.64901196  1
  O2-  O128  1  0.12521833  0.12956981  -0.00506411  1
  O2-  O129  1  0.12437431  0.12167413  0.49798002  1
  O2-  O130  1  0.12424131  0.37505026  -0.00635767  1
  O2-  O131  1  0.12616248  0.37487008  0.50590561  1
  O2-  O132  1  0.12548121  0.62035245  -0.00399408  1
  O2-  O133  1  0.12487092  0.62797306  0.50600484  1
  O2-  O134  1  0.12541042  0.87499093  0.00593339  1
  O2-  O135  1  0.12454390  0.87549278  0.49595341  1
  O2-  O136  1  0.37455172  0.12692319  0.01906006  1
  O2-  O137  1  0.37690873  0.12344363  0.51737902  1
  O2-  O138  1  0.37187841  0.37562295  -0.00420963  1
  O2-  O139  1  0.37684338  0.37548032  0.49661655  1
  O2-  O140  1  0.37247115  0.62098553  0.00763501  1
  O2-  O141  1  0.37715376  0.62762879  0.51733273  1
  O2-  O142  1  0.37396335  0.87537512  0.00787029  1
  O2-  O143  1  0.37575238  0.87399360  0.50808232  1
  O2-  O144  1  0.62536719  0.12753884  0.00742945  1
  O2-  O145  1  0.62491590  0.12330031  0.50718353  1
  O2-  O146  1  0.62542336  0.37323115  -0.00391319  1
  O2-  O147  1  0.62452840  0.37470845  0.49733879  1
  O2-  O148  1  0.62484733  0.62264234  0.00829878  1
  O2-  O149  1  0.62377756  0.62778318  0.51852745  1
  O2-  O150  1  0.62483562  0.87612291  0.00676027  1
  O2-  O151  1  0.62566146  0.87565319  0.49561729  1
  O2-  O152  1  0.87496831  0.12800287  0.01768159  1
  O2-  O153  1  0.87448557  0.12290774  0.49921507  1
  O2-  O154  1  0.87819399  0.37508071  -0.00407834  1
  O2-  O155  1  0.87344943  0.37505855  0.50646111  1
  O2-  O156  1  0.87668861  0.62141947  0.00664610  1
  O2-  O157  1  0.87381896  0.62735861  0.49819086  1
  O2-  O158  1  0.87644789  0.87569706  0.00640385  1
  O2-  O159  1  0.87458623  0.87516212  0.50734721  1
  O2-  O160  1  0.12693921  -0.00214106  0.16030706  1
  O2-  O161  1  0.12532380  -0.00147296  0.66766293  1
  O2-  O162  1  0.12502954  0.25010294  0.16597735  1
  O2-  O163  1  0.12529883  0.24886943  0.66023494  1
  O2-  O164  1  0.12523302  0.50002895  0.16777492  1
  O2-  O165  1  0.12531099  0.50402355  0.65843779  1
  O2-  O166  1  0.12659827  0.75222120  0.16124236  1
  O2-  O167  1  0.12527979  0.74824393  0.66699111  1
  O2-  O168  1  0.37512498  -0.00118688  0.16440744  1
  O2-  O169  1  0.37569419  0.00160808  0.67037038  1
  O2-  O170  1  0.37520023  0.25029721  0.16635755  1
  O2-  O171  1  0.37606465  0.24987579  0.66328077  1
  O2-  O172  1  0.37434038  0.50064092  0.16352947  1
  O2-  O173  1  0.37558973  0.50099115  0.66328545  1
  O2-  O174  1  0.37458797  0.74996359  0.15941593  1
  O2-  O175  1  0.37538633  0.74742379  0.67361373  1
  O2-  O176  1  0.62332064  0.00097142  0.16170702  1
  O2-  O177  1  0.62446015  0.00104050  0.66739130  1
  O2-  O178  1  0.62466139  0.24790541  0.16429322  1
  O2-  O179  1  0.62452521  0.24822965  0.66075360  1
  O2-  O180  1  0.62502333  0.49811533  0.16545890  1
  O2-  O181  1  0.62494214  0.50084956  0.66378714  1
  O2-  O182  1  0.62379641  0.75347890  0.16234580  1
  O2-  O183  1  0.62490862  0.74998964  0.67121839  1
  O2-  O184  1  0.87450927  0.00224301  0.16493792  1
  O2-  O185  1  0.87458215  0.00033943  0.66798671  1
  O2-  O186  1  0.87514418  0.24969553  0.16768337  1
  O2-  O187  1  0.87426267  0.24876443  0.66188611  1
  O2-  O188  1  0.87553637  0.49828201  0.16697895  1
  O2-  O189  1  0.87411206  0.50167845  0.66154891  1
  O2-  O190  1  0.87474866  0.74980116  0.16299598  1
  O2-  O191  1  0.87440164  0.74936380  0.66838434  1
  O2-  O192  1  0.00033602  0.12463758  0.16435726  1
  O2-  O193  1  0.00014669  0.12356888  0.66228655  1
  O2-  O194  1  0.00008932  0.37488890  0.16683199  1
  O2-  O195  1  -0.00050952  0.37528437  0.66073548  1
  O2-  O196  1  0.00125862  0.62536053  0.16646940  1
  O2-  O197  1  0.00054323  0.62655920  0.65961102  1
  O2-  O198  1  0.00270836  0.87528158  0.16129549  1
  O2-  O199  1  0.00055889  0.87465735  0.66583437  1
  O2-  O200  1  0.25015744  0.12519318  0.16663461  1
  O2-  O201  1  0.25036982  0.12394409  0.66387567  1
  O2-  O202  1  0.24894717  0.37494831  0.16613551  1
  O2-  O203  1  0.25137071  0.37545622  0.66143404  1
  O2-  O204  1  0.25152214  0.62504959  0.16531171  1
  O2-  O205  1  0.24905984  0.62604703  0.66400795  1
  O2-  O206  1  0.25113055  0.87439385  0.16145191  1
  O2-  O207  1  0.24911945  0.87433021  0.66702091  1
  O2-  O208  1  0.50102640  0.12531331  0.16597240  1
  O2-  O209  1  0.50152838  0.12471754  0.66810477  1
  O2-  O210  1  0.50043217  0.37437139  0.16322925  1
  O2-  O211  1  0.50036929  0.37495265  0.66658500  1
  O2-  O212  1  0.49678041  0.62479140  0.16322188  1
  O2-  O213  1  0.50050920  0.62510138  0.67217891  1
  O2-  O214  1  0.49890378  0.87557049  0.16122160  1
  O2-  O215  1  0.50145755  0.87526199  0.67148393  1
  O2-  O216  1  0.74850959  0.12536621  0.16557847  1
  O2-  O217  1  0.74796717  0.12408604  0.66489908  1
  O2-  O218  1  0.75042723  0.37361074  0.16352030  1
  O2-  O219  1  0.74906130  0.37454452  0.66535097  1
  O2-  O220  1  0.75065664  0.62468493  0.16439846  1
  O2-  O221  1  0.74983107  0.62617528  0.66712573  1
  O2-  O222  1  0.74691381  0.87672177  0.16213425  1
  O2-  O223  1  0.74899694  0.87550019  0.66822966  1
  O2-  O224  1  0.12515529  -0.00021251  0.34196150  1
  O2-  O225  1  0.12595727  -0.00090910  0.85188035  1
  O2-  O226  1  0.12517453  0.24763417  0.34908166  1
  O2-  O227  1  0.12513721  0.25093811  0.84086084  1
  O2-  O228  1  0.12503467  0.50337289  0.35228056  1
  O2-  O229  1  0.12594785  0.49916322  0.83862591  1
  O2-  O230  1  0.12542978  0.74911553  0.34487784  1
  O2-  O231  1  0.12649578  0.75071544  0.85119294  1
  O2-  O232  1  0.37585576  0.00125875  0.34701998  1
  O2-  O233  1  0.37512853  -0.00167128  0.85453221  1
  O2-  O234  1  0.37605419  0.25070238  0.34795548  1
  O2-  O235  1  0.37500112  0.25128494  0.84512785  1
  O2-  O236  1  0.37551216  0.49958769  0.34704662  1
  O2-  O237  1  0.37412970  0.50009814  0.84404787  1
  O2-  O238  1  0.37536230  0.74829789  0.34420571  1
  O2-  O239  1  0.37400111  0.74990708  0.85701112  1
  O2-  O240  1  0.62461610  0.00154502  0.34523469  1
  O2-  O241  1  0.62366631  0.00048172  0.85362767  1
  O2-  O242  1  0.62465807  0.24824532  0.34830974  1
  O2-  O243  1  0.62511081  0.24953118  0.84461795  1
  O2-  O244  1  0.62440293  0.50040752  0.34917342  1
  O2-  O245  1  0.62459268  0.49752577  0.84498375  1
  O2-  O246  1  0.62430082  0.74984207  0.34573825  1
  O2-  O247  1  0.62403501  0.75230990  0.85427650  1
  O2-  O248  1  0.87413683  0.00128577  0.34492251  1
  O2-  O249  1  0.87521569  0.00238067  0.85194102  1
  O2-  O250  1  0.87383345  0.24782501  0.34880676  1
  O2-  O251  1  0.87509392  0.25135782  0.84401327  1
  O2-  O252  1  0.87488086  0.50211430  0.34922264  1
  O2-  O253  1  0.87576754  0.49729575  0.84264817  1
  O2-  O254  1  0.87485611  0.74871071  0.34489858  1
  O2-  O255  1  0.87577085  0.74882883  0.85186230  1
  O2-  O256  1  -0.00060169  0.12408921  0.34533221  1
  O2-  O257  1  0.00089007  0.12486537  0.84530436  1
  O2-  O258  1  -0.00053441  0.37509040  0.35056904  1
  O2-  O259  1  0.00066634  0.37472656  0.84046708  1
  O2-  O260  1  0.00066362  0.62615233  0.34886902  1
  O2-  O261  1  0.00274814  0.62474402  0.84228798  1
  O2-  O262  1  0.00135153  0.87469951  0.34345510  1
  O2-  O263  1  0.00322170  0.87514889  0.84939360  1
  O2-  O264  1  0.24963712  0.12404981  0.34919978  1
  O2-  O265  1  0.24919862  0.12459553  0.84585604  1
  O2-  O266  1  0.25154665  0.37533163  0.34914431  1
  O2-  O267  1  0.24917299  0.37492649  0.84192408  1
  O2-  O268  1  0.24780336  0.62598909  0.35035954  1
  O2-  O269  1  0.25110607  0.62542216  0.84641490  1
  O2-  O270  1  0.24797437  0.87451260  0.34480149  1
  O2-  O271  1  0.25011558  0.87490671  0.85097383  1
  O2-  O272  1  0.50235796  0.12441806  0.34990642  1
  O2-  O273  1  0.50157297  0.12531897  0.85247794  1
  O2-  O274  1  0.50106522  0.37508215  0.34523357  1
  O2-  O275  1  0.49956528  0.37433114  0.84833710  1
  O2-  O276  1  0.50060990  0.62558198  0.34784650  1
  O2-  O277  1  0.49597805  0.62484258  0.85393829  1
  O2-  O278  1  0.50232586  0.87483856  0.34444778  1
  O2-  O279  1  0.49916466  0.87533478  0.85450260  1
  O2-  O280  1  0.74834791  0.12443693  0.34799784  1
  O2-  O281  1  0.74827311  0.12497515  0.85038735  1
  O2-  O282  1  0.74775388  0.37489785  0.34590089  1
  O2-  O283  1  0.75088985  0.37399537  0.84667377  1
  O2-  O284  1  0.75071041  0.62556245  0.34643694  1
  O2-  O285  1  0.75034165  0.62423510  0.85022302  1
  O2-  O286  1  0.74853952  0.87509698  0.34377788  1
  O2-  O287  1  0.74770084  0.87622508  0.85197053  1
