# generated using pymatgen
data_BaYFeCuO5
_symmetry_space_group_name_H-M   'P 1'
_cell_length_a   15.66375253
_cell_length_b   15.66455278
_cell_length_c   15.47045090
_cell_angle_alpha   89.99423699
_cell_angle_beta   90.00946671
_cell_angle_gamma   90.00704145
_symmetry_Int_Tables_number   1
_chemical_formula_structural   BaYFeCuO5
_chemical_formula_sum   'Ba32 Y32 Fe32 Cu32 O160'
_cell_volume   3795.91757725
_cell_formula_units_Z   32
loop_
 _symmetry_equiv_pos_site_id
 _symmetry_equiv_pos_as_xyz
  1  'x, y, z'
loop_
 _atom_type_symbol
 _atom_type_oxidation_number
  Ba2+  2.0
  Y3+  3.0
  Fe3+  3.0
  Cu2+  2.0
  O2-  -2.0
loop_
 _atom_site_type_symbol
 _atom_site_label
 _atom_site_symmetry_multiplicity
 _atom_site_fract_x
 _atom_site_fract_y
 _atom_site_fract_z
 _atom_site_occupancy
  Ba2+  Ba0  1  -0.00170422  0.00033508  0.00612847  1
  Ba2+  Ba1  1  -0.00272061  0.00325421  0.52016531  1
  Ba2+  Ba2  1  -0.00672314  0.25402847  0.01195253  1
  Ba2+  Ba3  1  -0.00442245  0.24979593  0.51491672  1
  Ba2+  Ba4  1  -0.00222212  0.49963144  0.00694386  1
  Ba2+  Ba5  1  0.00410619  0.49517383  0.51126910  1
  Ba2+  Ba6  1  0.00262263  0.74561827  0.00157480  1
  Ba2+  Ba7  1  0.00579225  0.75156049  0.51678955  1
  Ba2+  Ba8  1  0.25285196  -0.00989623  0.00180913  1
  Ba2+  Ba9  1  0.24559727  0.00417341  0.51323521  1
  Ba2+  Ba10  1  0.24510736  0.25319234  0.01045229  1
  Ba2+  Ba11  1  0.24935040  0.25176674  0.51878152  1
  Ba2+  Ba12  1  0.23992477  0.50138985  0.01661290  1
  Ba2+  Ba13  1  0.24899599  0.50069762  0.52108012  1
  Ba2+  Ba14  1  0.24832668  0.75572857  0.00517198  1
  Ba2+  Ba15  1  0.24572343  0.74270747  0.51576122  1
  Ba2+  Ba16  1  0.50312428  -0.00500629  0.01834187  1
  Ba2+  Ba17  1  0.50824066  0.00388861  0.50171443  1
  Ba2+  Ba18  1  0.51250644  0.25099869  0.01204150  1
  Ba2+  Ba19  1  0.50286626  0.24805073  0.51143425  1
  Ba2+  Ba20  1  0.50814754  0.49458789  0.00702453  1
  Ba2+  Ba21  1  0.50029532  0.50098849  0.52278881  1
  Ba2+  Ba22  1  0.49852965  0.75980738  0.01214231  1
  Ba2+  Ba23  1  0.50720032  0.74616099  0.51086352  1
  Ba2+  Ba24  1  0.74584094  0.00510713  0.02437181  1
  Ba2+  Ba25  1  0.74775495  0.00373980  0.51038805  1
  Ba2+  Ba26  1  0.74853166  0.25185946  0.01429897  1
  Ba2+  Ba27  1  0.75282353  0.24688706  0.51044222  1
  Ba2+  Ba28  1  0.75409199  0.49336125  -0.00554664  1
  Ba2+  Ba29  1  0.74600126  0.49521015  0.51159082  1
  Ba2+  Ba30  1  0.75117303  0.74982988  0.00634704  1
  Ba2+  Ba31  1  0.74189039  0.75399801  0.51072148  1
  Y3+  Y32  1  -0.00292902  0.00216487  0.25802974  1
  Y3+  Y33  1  -0.00054934  -0.00078172  0.75485131  1
  Y3+  Y34  1  -0.00370702  0.25072497  0.26034614  1
  Y3+  Y35  1  -0.00281545  0.25018827  0.75309019  1
  Y3+  Y36  1  0.00085175  0.50030209  0.26113223  1
  Y3+  Y37  1  -0.00211674  0.49900587  0.75430630  1
  Y3+  Y38  1  0.00155348  0.74727699  0.25990604  1
  Y3+  Y39  1  0.00041274  0.75081364  0.75581275  1
  Y3+  Y40  1  0.25277838  -0.00062301  0.25588176  1
  Y3+  Y41  1  0.24974210  -0.00327880  0.75912789  1
  Y3+  Y42  1  0.25023586  0.24999779  0.25570135  1
  Y3+  Y43  1  0.24978901  0.25066388  0.75710955  1
  Y3+  Y44  1  0.24667702  0.50182958  0.25695081  1
  Y3+  Y45  1  0.24995078  0.50068422  0.75481493  1
  Y3+  Y46  1  0.24968647  0.74941211  0.25640185  1
  Y3+  Y47  1  0.24967130  0.75077794  0.75696736  1
  Y3+  Y48  1  0.50219370  -0.00014460  0.25974297  1
  Y3+  Y49  1  0.50145591  -0.00149013  0.75494105  1
  Y3+  Y50  1  0.50278656  0.24847688  0.25736485  1
  Y3+  Y51  1  0.50356670  0.25130236  0.75666458  1
  Y3+  Y52  1  0.50257075  0.50037603  0.25614349  1
  Y3+  Y53  1  0.50258333  0.49905789  0.75747244  1
  Y3+  Y54  1  0.50135776  0.75272577  0.25910517  1
  Y3+  Y55  1  0.50089290  0.75037113  0.75530957  1
  Y3+  Y56  1  0.74770810  0.00293287  0.26337199  1
  Y3+  Y57  1  0.74973498  0.00087083  0.74955121  1
  Y3+  Y58  1  0.75061206  0.24858660  0.26178150  1
  Y3+  Y59  1  0.74985609  0.25124806  0.75317498  1
  Y3+  Y60  1  0.74967920  0.49886688  0.26157440  1
  Y3+  Y61  1  0.74987419  0.49697529  0.75513346  1
  Y3+  Y62  1  0.74691637  0.75006842  0.26201728  1
  Y3+  Y63  1  0.74945082  0.75048987  0.75330675  1
  Fe3+  Fe64  1  0.12441100  0.62448956  0.87435423  1
  Fe3+  Fe65  1  0.37440933  0.87524116  0.38050112  1
  Fe3+  Fe66  1  0.12517055  0.87568023  0.37773820  1
  Fe3+  Fe67  1  0.12533890  0.12543978  0.37547267  1
  Fe3+  Fe68  1  0.37539846  0.62497745  0.87964846  1
  Fe3+  Fe69  1  0.62612512  0.62559398  0.87869187  1
  Fe3+  Fe70  1  0.37660677  0.12464612  0.88068242  1
  Fe3+  Fe71  1  0.87565198  0.87515173  0.37903528  1
  Fe3+  Fe72  1  0.12605730  0.37442865  0.37631001  1
  Fe3+  Fe73  1  0.87369893  0.87591341  0.87841596  1
  Fe3+  Fe74  1  0.87323578  0.12509166  0.87611813  1
  Fe3+  Fe75  1  0.12425052  0.12474395  0.87879028  1
  Fe3+  Fe76  1  0.37502090  0.37498805  0.87977650  1
  Fe3+  Fe77  1  0.62630108  0.87652748  0.87547735  1
  Fe3+  Fe78  1  0.37477943  0.37528873  0.37590867  1
  Fe3+  Fe79  1  0.12346162  0.37471908  0.87515399  1
  Fe3+  Fe80  1  0.37523025  0.62377262  0.37629427  1
  Fe3+  Fe81  1  0.87483785  0.62495290  0.38232579  1
  Fe3+  Fe82  1  0.62634825  0.12414217  0.87540170  1
  Fe3+  Fe83  1  0.62378245  0.37515413  0.37766474  1
  Fe3+  Fe84  1  0.37562955  0.12459269  0.63877538  1
  Fe3+  Fe85  1  0.37494736  0.62570901  0.13269305  1
  Fe3+  Fe86  1  0.12370165  0.87512777  0.13714457  1
  Fe3+  Fe87  1  0.62662592  0.62483752  0.13442846  1
  Fe3+  Fe88  1  0.37546920  0.87472426  0.63423894  1
  Fe3+  Fe89  1  0.87455833  0.87465264  0.13596730  1
  Fe3+  Fe90  1  0.12389242  0.12480350  0.13347156  1
  Fe3+  Fe91  1  0.37512866  0.37563665  0.13318373  1
  Fe3+  Fe92  1  0.87410457  0.37604980  0.14186038  1
  Fe3+  Fe93  1  0.87437039  0.62511293  0.63583350  1
  Fe3+  Fe94  1  0.37569295  0.12466538  0.13374735  1
  Fe3+  Fe95  1  0.87474936  0.62494704  0.13870738  1
  Cu2+  Cu96  1  0.87468206  0.62506377  0.86125470  1
  Cu2+  Cu97  1  0.12375958  0.87491378  0.86253977  1
  Cu2+  Cu98  1  0.87542184  0.37373655  0.85906590  1
  Cu2+  Cu99  1  0.62621993  0.37355273  0.87149678  1
  Cu2+  Cu100  1  0.87584262  0.12495356  0.37346764  1
  Cu2+  Cu101  1  0.37414763  0.12574402  0.36332607  1
  Cu2+  Cu102  1  0.87515782  0.37516177  0.37535915  1
  Cu2+  Cu103  1  0.62485273  0.87537611  0.37256085  1
  Cu2+  Cu104  1  0.62372865  0.62388065  0.37325835  1
  Cu2+  Cu105  1  0.62483878  0.12659985  0.37205354  1
  Cu2+  Cu106  1  0.37706813  0.87449768  0.87118633  1
  Cu2+  Cu107  1  0.12595766  0.62501366  0.37431255  1
  Cu2+  Cu108  1  0.62479493  0.37455367  0.64961960  1
  Cu2+  Cu109  1  0.37563284  0.62527294  0.65340927  1
  Cu2+  Cu110  1  0.37490286  0.87471076  0.14316862  1
  Cu2+  Cu111  1  0.12373173  0.62573153  0.15063255  1
  Cu2+  Cu112  1  0.62642583  0.87426818  0.15440808  1
  Cu2+  Cu113  1  0.12353972  0.37455658  0.15106607  1
  Cu2+  Cu114  1  0.62699990  0.37623990  0.14334638  1
  Cu2+  Cu115  1  0.62422595  0.12538160  0.64185487  1
  Cu2+  Cu116  1  0.87450416  0.12504967  0.15159070  1
  Cu2+  Cu117  1  0.37570040  0.37462311  0.65317828  1
  Cu2+  Cu118  1  0.12505652  0.37433704  0.65223756  1
  Cu2+  Cu119  1  0.62568790  0.62461943  0.64384556  1
  Cu2+  Cu120  1  0.87438791  0.37517799  0.64042208  1
  Cu2+  Cu121  1  0.12587745  0.12509193  0.65511197  1
  Cu2+  Cu122  1  0.12418243  0.62433454  0.64325733  1
  Cu2+  Cu123  1  0.62506301  0.12548492  0.15468462  1
  Cu2+  Cu124  1  0.62414262  0.87560106  0.64123032  1
  Cu2+  Cu125  1  0.12584702  0.87525363  0.65158634  1
  Cu2+  Cu126  1  0.87478734  0.87440067  0.64688116  1
  Cu2+  Cu127  1  0.87458008  0.12488814  0.64215551  1
  O2-  O128  1  0.12364578  0.12463927  0.00594236  1
  O2-  O129  1  0.12666593  0.12620837  0.49573326  1
  O2-  O130  1  0.12277164  0.37496944  -0.00438270  1
  O2-  O131  1  0.12872590  0.37359296  0.49653696  1
  O2-  O132  1  0.12333783  0.62453101  -0.00471401  1
  O2-  O133  1  0.12588906  0.62403001  0.50763588  1
  O2-  O134  1  0.12267428  0.87464065  0.01651309  1
  O2-  O135  1  0.12617322  0.87637672  0.49804632  1
  O2-  O136  1  0.37664405  0.12423323  0.00707465  1
  O2-  O137  1  0.37307180  0.12553858  0.51841661  1
  O2-  O138  1  0.37444293  0.37522083  0.00601251  1
  O2-  O139  1  0.37376651  0.37570197  0.49577061  1
  O2-  O140  1  0.37416347  0.62571250  0.00576079  1
  O2-  O141  1  0.37490966  0.62278314  0.49640143  1
  O2-  O142  1  0.37562321  0.87483604  0.00718992  1
  O2-  O143  1  0.37374633  0.87525758  0.50700280  1
  O2-  O144  1  0.62650287  0.12312613  -0.00403620  1
  O2-  O145  1  0.62390522  0.12701791  0.50682304  1
  O2-  O146  1  0.62750086  0.37540727  0.00712010  1
  O2-  O147  1  0.62047746  0.37550241  0.49824765  1
  O2-  O148  1  0.62785806  0.62585886  0.00658877  1
  O2-  O149  1  0.62375325  0.62326599  0.50766922  1
  O2-  O150  1  0.62739607  0.87626208  -0.00407213  1
  O2-  O151  1  0.62331418  0.87517770  0.50639097  1
  O2-  O152  1  0.87296241  0.12496227  -0.00346142  1
  O2-  O153  1  0.87680121  0.12423824  0.50728545  1
  O2-  O154  1  0.87459105  0.37584010  0.02066687  1
  O2-  O155  1  0.87576499  0.37560127  0.50808460  1
  O2-  O156  1  0.87468241  0.62428754  0.01848996  1
  O2-  O157  1  0.87509309  0.62623769  0.50882190  1
  O2-  O158  1  0.87384024  0.87559949  0.00699124  1
  O2-  O159  1  0.87744361  0.87448053  0.49932837  1
  O2-  O160  1  0.12537861  0.00156666  0.16355935  1
  O2-  O161  1  0.12613307  0.00005916  0.66659737  1
  O2-  O162  1  0.12513345  0.24769178  0.15948626  1
  O2-  O163  1  0.12663413  0.24991513  0.66592936  1
  O2-  O164  1  0.12485208  0.49998780  0.16260389  1
  O2-  O165  1  0.12530996  0.49816947  0.66484532  1
  O2-  O166  1  0.12356562  0.75135332  0.16680404  1
  O2-  O167  1  0.12530710  0.75096959  0.66558585  1
  O2-  O168  1  0.37524707  0.00323328  0.16522574  1
  O2-  O169  1  0.37391214  -0.00182838  0.66636125  1
  O2-  O170  1  0.37480503  0.24994545  0.15911748  1
  O2-  O171  1  0.37447130  0.24958245  0.66923176  1
  O2-  O172  1  0.37329536  0.50098807  0.15813525  1
  O2-  O173  1  0.37556121  0.49979542  0.66701382  1
  O2-  O174  1  0.37586233  0.74646951  0.16500624  1
  O2-  O175  1  0.37471516  0.75152152  0.66345815  1
  O2-  O176  1  0.62557858  -0.00034265  0.16597302  1
  O2-  O177  1  0.62393538  -0.00003283  0.66289314  1
  O2-  O178  1  0.62453842  0.24972209  0.16327715  1
  O2-  O179  1  0.62381979  0.25119610  0.66523841  1
  O2-  O180  1  0.62595536  0.50365756  0.16406729  1
  O2-  O181  1  0.62457932  0.49853582  0.66727386  1
  O2-  O182  1  0.62449735  0.74777398  0.16432744  1
  O2-  O183  1  0.62458580  0.75012132  0.66604413  1
  O2-  O184  1  0.87415535  -0.00109164  0.16266264  1
  O2-  O185  1  0.87599121  -0.00145744  0.66488043  1
  O2-  O186  1  0.87520220  0.24989728  0.16655165  1
  O2-  O187  1  0.87512681  0.24985886  0.66399831  1
  O2-  O188  1  0.87519272  0.50109510  0.17169521  1
  O2-  O189  1  0.87468949  0.50242089  0.66432437  1
  O2-  O190  1  0.87606402  0.75096749  0.16568852  1
  O2-  O191  1  0.87530859  0.74871278  0.66570109  1
  O2-  O192  1  0.00132200  0.12429356  0.16129582  1
  O2-  O193  1  0.00198474  0.12441484  0.66631301  1
  O2-  O194  1  -0.00102366  0.37521793  0.16801040  1
  O2-  O195  1  0.00148007  0.37455975  0.66383833  1
  O2-  O196  1  -0.00063657  0.62494947  0.16841186  1
  O2-  O197  1  -0.00279892  0.62556556  0.66412388  1
  O2-  O198  1  -0.00159757  0.87655296  0.16457921  1
  O2-  O199  1  0.00092432  0.87495693  0.66583919  1
  O2-  O200  1  0.25024813  0.12543081  0.15821335  1
  O2-  O201  1  0.25120416  0.12470893  0.67115100  1
  O2-  O202  1  0.25127085  0.37449751  0.15855743  1
  O2-  O203  1  0.25017853  0.37483212  0.66678940  1
  O2-  O204  1  0.25022444  0.62607851  0.15918708  1
  O2-  O205  1  0.25116686  0.62459080  0.66631042  1
  O2-  O206  1  0.24758802  0.87491754  0.16542690  1
  O2-  O207  1  0.25215767  0.87478741  0.66461809  1
  O2-  O208  1  0.49893387  0.12510417  0.16190908  1
  O2-  O209  1  0.49799564  0.12514185  0.66869431  1
  O2-  O210  1  0.49703814  0.37644797  0.15993992  1
  O2-  O211  1  0.50015926  0.37540062  0.66771303  1
  O2-  O212  1  0.50041956  0.62397080  0.15669458  1
  O2-  O213  1  0.49926245  0.62450774  0.66937156  1
  O2-  O214  1  0.50196867  0.87518286  0.16506737  1
  O2-  O215  1  0.49663859  0.87439951  0.66418101  1
  O2-  O216  1  0.74919421  0.12527237  0.16678522  1
  O2-  O217  1  0.74937291  0.12481078  0.66173667  1
  O2-  O218  1  0.75192425  0.37510038  0.17146705  1
  O2-  O219  1  0.74822806  0.37535711  0.66364976  1
  O2-  O220  1  0.74948337  0.62672003  0.16859859  1
  O2-  O221  1  0.75242687  0.62529144  0.66572733  1
  O2-  O222  1  0.75185044  0.87344361  0.16408118  1
  O2-  O223  1  0.75032410  0.87436597  0.66358359  1
  O2-  O224  1  0.12570228  -0.00034434  0.34383937  1
  O2-  O225  1  0.12536287  0.00158487  0.85155437  1
  O2-  O226  1  0.12628397  0.25014941  0.34170169  1
  O2-  O227  1  0.12554012  0.24860600  0.84903513  1
  O2-  O228  1  0.12568862  0.49822776  0.34641234  1
  O2-  O229  1  0.12468136  0.49965385  0.84568622  1
  O2-  O230  1  0.12630370  0.75247235  0.34825149  1
  O2-  O231  1  0.12471686  0.74912253  0.84823332  1
  O2-  O232  1  0.37417446  -0.00110885  0.35055186  1
  O2-  O233  1  0.37472744  0.00293803  0.84959832  1
  O2-  O234  1  0.37413490  0.25085219  0.34297417  1
  O2-  O235  1  0.37379787  0.24977035  0.85324879  1
  O2-  O236  1  0.37492395  0.49931032  0.34006357  1
  O2-  O237  1  0.37515071  0.50008763  0.85189915  1
  O2-  O238  1  0.37443010  0.75163710  0.34864527  1
  O2-  O239  1  0.37551205  0.74644508  0.84859549  1
  O2-  O240  1  0.62407869  0.00083171  0.35052496  1
  O2-  O241  1  0.62514989  0.00021645  0.84282505  1
  O2-  O242  1  0.62389161  0.25225220  0.34626300  1
  O2-  O243  1  0.62508512  0.24773131  0.84747272  1
  O2-  O244  1  0.62370990  0.49796659  0.34511001  1
  O2-  O245  1  0.62565506  0.50241402  0.85161060  1
  O2-  O246  1  0.62417147  0.75000614  0.34886921  1
  O2-  O247  1  0.62587287  0.74922147  0.84883897  1
  O2-  O248  1  0.87587560  -0.00169341  0.34627224  1
  O2-  O249  1  0.87541565  -0.00086520  0.84764954  1
  O2-  O250  1  0.87537162  0.25023230  0.35012363  1
  O2-  O251  1  0.87583897  0.24878447  0.84673464  1
  O2-  O252  1  0.87561536  0.50281466  0.35264782  1
  O2-  O253  1  0.87522016  0.49898674  0.84927408  1
  O2-  O254  1  0.87480410  0.74916915  0.34807100  1
  O2-  O255  1  0.87474401  0.75242531  0.85140429  1
  O2-  O256  1  0.00245195  0.12510305  0.34433046  1
  O2-  O257  1  0.00058291  0.12407338  0.84986241  1
  O2-  O258  1  0.00207671  0.37466443  0.34939815  1
  O2-  O259  1  0.00031650  0.37456492  0.84686773  1
  O2-  O260  1  -0.00252867  0.62603909  0.35154082  1
  O2-  O261  1  -0.00029614  0.62525007  0.84690316  1
  O2-  O262  1  0.00054687  0.87471636  0.34452060  1
  O2-  O263  1  -0.00245513  0.87516018  0.85127818  1
  O2-  O264  1  0.24899025  0.12468110  0.34113131  1
  O2-  O265  1  0.24986168  0.12482791  0.85543814  1
  O2-  O266  1  0.25035690  0.37488823  0.33988130  1
  O2-  O267  1  0.25074006  0.37472826  0.84992046  1
  O2-  O268  1  0.25256623  0.62523546  0.34216566  1
  O2-  O269  1  0.25098701  0.62477440  0.84928143  1
  O2-  O270  1  0.25133734  0.87594246  0.34658116  1
  O2-  O271  1  0.24901219  0.87429290  0.84934493  1
  O2-  O272  1  0.49824450  0.12554448  0.34691483  1
  O2-  O273  1  0.49946820  0.12525896  0.84967866  1
  O2-  O274  1  0.49902749  0.37465891  0.34129343  1
  O2-  O275  1  0.49699786  0.37478913  0.85172010  1
  O2-  O276  1  0.49716567  0.62543924  0.34030622  1
  O2-  O277  1  0.50074696  0.62458523  0.85383773  1
  O2-  O278  1  0.49643814  0.87545991  0.34941355  1
  O2-  O279  1  0.50332836  0.87436302  0.84556956  1
  O2-  O280  1  0.75015492  0.12507023  0.35134439  1
  O2-  O281  1  0.75021632  0.12450747  0.84242996  1
  O2-  O282  1  0.74821885  0.37589316  0.35218493  1
  O2-  O283  1  0.75206053  0.37476056  0.84739148  1
  O2-  O284  1  0.75257905  0.62528903  0.35160800  1
  O2-  O285  1  0.74909201  0.62536706  0.85054755  1
  O2-  O286  1  0.75192979  0.87480426  0.34804680  1
  O2-  O287  1  0.75086671  0.87453144  0.84590489  1
