# generated using pymatgen
data_BaYFeCuO5
_symmetry_space_group_name_H-M   'P 1'
_cell_length_a   15.68258573
_cell_length_b   15.68009649
_cell_length_c   15.52758970
_cell_angle_alpha   89.99887759
_cell_angle_beta   90.00062647
_cell_angle_gamma   90.00084716
_symmetry_Int_Tables_number   1
_chemical_formula_structural   BaYFeCuO5
_chemical_formula_sum   'Ba32 Y32 Fe32 Cu32 O160'
_cell_volume   3818.30351692
_cell_formula_units_Z   32
loop_
 _symmetry_equiv_pos_site_id
 _symmetry_equiv_pos_as_xyz
  1  'x, y, z'
loop_
 _atom_type_symbol
 _atom_type_oxidation_number
  Ba2+  2.0
  Y3+  3.0
  Fe3+  3.0
  Cu2+  2.0
  O2-  -2.0
loop_
 _atom_site_type_symbol
 _atom_site_label
 _atom_site_symmetry_multiplicity
 _atom_site_fract_x
 _atom_site_fract_y
 _atom_site_fract_z
 _atom_site_occupancy
  Ba2+  Ba0  1  0.00449240  -0.00421351  0.01471121  1
  Ba2+  Ba1  1  0.00191675  0.00967542  0.51005003  1
  Ba2+  Ba2  1  0.00468226  0.25363667  0.01251036  1
  Ba2+  Ba3  1  -0.00049629  0.24785136  0.51604119  1
  Ba2+  Ba4  1  -0.00459725  0.49564784  0.02082383  1
  Ba2+  Ba5  1  0.00017569  0.49767487  0.51738835  1
  Ba2+  Ba6  1  -0.00486148  0.75439137  0.02255975  1
  Ba2+  Ba7  1  0.00393292  0.74502968  0.51145461  1
  Ba2+  Ba8  1  0.25094640  0.00123799  0.00572978  1
  Ba2+  Ba9  1  0.23989458  0.00289071  0.51133786  1
  Ba2+  Ba10  1  0.25379079  0.25181198  0.01328782  1
  Ba2+  Ba11  1  0.24543161  0.25575818  0.51185125  1
  Ba2+  Ba12  1  0.25682281  0.49377116  0.00656123  1
  Ba2+  Ba13  1  0.25131800  0.49743185  0.52273073  1
  Ba2+  Ba14  1  0.25537789  0.75474532  0.00024456  1
  Ba2+  Ba15  1  0.24647726  0.74359603  0.52262536  1
  Ba2+  Ba16  1  0.49917410  0.00032509  0.00522573  1
  Ba2+  Ba17  1  0.50873934  0.00055929  0.50682262  1
  Ba2+  Ba18  1  0.49671885  0.25300478  0.01220931  1
  Ba2+  Ba19  1  0.50210958  0.25766374  0.51730929  1
  Ba2+  Ba20  1  0.50087952  0.49990087  0.00634170  1
  Ba2+  Ba21  1  0.49707832  0.49689552  0.51317296  1
  Ba2+  Ba22  1  0.50345031  0.74733670  0.00152545  1
  Ba2+  Ba23  1  0.50341173  0.74365740  0.50088700  1
  Ba2+  Ba24  1  0.74634203  -0.00524997  0.01475710  1
  Ba2+  Ba25  1  0.75048774  0.00821821  0.50765070  1
  Ba2+  Ba26  1  0.74557973  0.25430844  0.01138520  1
  Ba2+  Ba27  1  0.75212194  0.25103662  0.52222086  1
  Ba2+  Ba28  1  0.74668312  0.50212042  0.02024792  1
  Ba2+  Ba29  1  0.74927144  0.49895423  0.50533235  1
  Ba2+  Ba30  1  0.74700883  0.74758096  0.02149811  1
  Ba2+  Ba31  1  0.74604083  0.74469267  0.49054800  1
  Y3+  Y32  1  -0.00011869  0.00198448  0.26143912  1
  Y3+  Y33  1  0.00119207  0.00297116  0.75325681  1
  Y3+  Y34  1  0.00065536  0.24931769  0.25927017  1
  Y3+  Y35  1  0.00072625  0.24804194  0.75412425  1
  Y3+  Y36  1  -0.00210297  0.49917154  0.25527710  1
  Y3+  Y37  1  0.00085874  0.49849474  0.75561722  1
  Y3+  Y38  1  -0.00190202  0.75003488  0.25703551  1
  Y3+  Y39  1  0.00164107  0.75019072  0.75492324  1
  Y3+  Y40  1  0.24880018  0.00205792  0.25978517  1
  Y3+  Y41  1  0.24737055  0.00115274  0.75548374  1
  Y3+  Y42  1  0.25162046  0.25200207  0.25854411  1
  Y3+  Y43  1  0.24947265  0.25136647  0.75632356  1
  Y3+  Y44  1  0.25241785  0.49580057  0.25516783  1
  Y3+  Y45  1  0.25332992  0.49858644  0.75835263  1
  Y3+  Y46  1  0.24958454  0.75048755  0.25610194  1
  Y3+  Y47  1  0.25119700  0.74872100  0.75774087  1
  Y3+  Y48  1  0.50064657  -0.00023986  0.25942667  1
  Y3+  Y49  1  0.50130286  0.00121214  0.75654956  1
  Y3+  Y50  1  0.49640691  0.25342844  0.25671074  1
  Y3+  Y51  1  0.50046924  0.25214877  0.75770488  1
  Y3+  Y52  1  0.49995298  0.49829054  0.25546921  1
  Y3+  Y53  1  0.49751825  0.49940570  0.75983956  1
  Y3+  Y54  1  0.50344320  0.74888396  0.25740221  1
  Y3+  Y55  1  0.49882006  0.74679313  0.76041579  1
  Y3+  Y56  1  0.75028701  -0.00101532  0.26049925  1
  Y3+  Y57  1  0.75024900  0.00328343  0.75570792  1
  Y3+  Y58  1  0.75088794  0.25110020  0.25620713  1
  Y3+  Y59  1  0.74977903  0.24868775  0.75626759  1
  Y3+  Y60  1  0.74894206  0.50168770  0.25479765  1
  Y3+  Y61  1  0.74848568  0.49927024  0.75814412  1
  Y3+  Y62  1  0.74853721  0.74825706  0.25588966  1
  Y3+  Y63  1  0.74852135  0.74830241  0.76036170  1
  Fe3+  Fe64  1  0.62571853  0.87542026  0.87619928  1
  Fe3+  Fe65  1  0.87527061  0.87503955  0.87574288  1
  Fe3+  Fe66  1  0.87546905  0.62503966  0.87885286  1
  Fe3+  Fe67  1  0.12499129  0.37605137  0.37569351  1
  Fe3+  Fe68  1  0.37485027  0.12631597  0.38150599  1
  Fe3+  Fe69  1  0.87533256  0.87470068  0.37952008  1
  Fe3+  Fe70  1  0.12399503  0.87541785  0.87457305  1
  Fe3+  Fe71  1  0.62529780  0.12799068  0.37659411  1
  Fe3+  Fe72  1  0.62472670  0.37517761  0.37544990  1
  Fe3+  Fe73  1  0.12566484  0.62290634  0.37413996  1
  Fe3+  Fe74  1  0.12485501  0.37434722  0.87618053  1
  Fe3+  Fe75  1  0.12398680  0.62440619  0.87989956  1
  Fe3+  Fe76  1  0.37451932  0.87424467  0.38221755  1
  Fe3+  Fe77  1  0.37352161  0.62335204  0.37743735  1
  Fe3+  Fe78  1  0.87565680  0.12448014  0.88064702  1
  Fe3+  Fe79  1  0.37466101  0.12561455  0.87434098  1
  Fe3+  Fe80  1  0.87525024  0.37493115  0.87633159  1
  Fe3+  Fe81  1  0.87495337  0.37505373  0.37556078  1
  Fe3+  Fe82  1  0.12522859  0.87388685  0.37781752  1
  Fe3+  Fe83  1  0.62517502  0.37491973  0.87620981  1
  Fe3+  Fe84  1  0.37541352  0.62583509  0.13678044  1
  Fe3+  Fe85  1  0.62482913  0.62449267  0.63913724  1
  Fe3+  Fe86  1  0.87441040  0.87429004  0.63267800  1
  Fe3+  Fe87  1  0.62601194  0.87303058  0.63645188  1
  Fe3+  Fe88  1  0.37590579  0.87476894  0.63474817  1
  Fe3+  Fe89  1  0.62352021  0.12506668  0.13758501  1
  Fe3+  Fe90  1  0.87487304  0.12486228  0.13510378  1
  Fe3+  Fe91  1  0.87347792  0.62528392  0.63680726  1
  Fe3+  Fe92  1  0.12636243  0.12513054  0.13896000  1
  Fe3+  Fe93  1  0.12630161  0.62505062  0.13271357  1
  Fe3+  Fe94  1  0.37558396  0.87561942  0.13995502  1
  Fe3+  Fe95  1  0.37547847  0.12528673  0.63414698  1
  Cu2+  Cu96  1  0.12500802  0.12678465  0.37252967  1
  Cu2+  Cu97  1  0.62404975  0.62304563  0.36026944  1
  Cu2+  Cu98  1  0.37434794  0.62461585  0.86573728  1
  Cu2+  Cu99  1  0.37501213  0.37374599  0.87111938  1
  Cu2+  Cu100  1  0.12433843  0.12536499  0.86333832  1
  Cu2+  Cu101  1  0.87569987  0.62404882  0.36193505  1
  Cu2+  Cu102  1  0.37504923  0.87623513  0.85854342  1
  Cu2+  Cu103  1  0.87445976  0.12707823  0.37276232  1
  Cu2+  Cu104  1  0.62558152  0.12525966  0.86470867  1
  Cu2+  Cu105  1  0.37481826  0.37568501  0.37391143  1
  Cu2+  Cu106  1  0.62504597  0.87494684  0.36479485  1
  Cu2+  Cu107  1  0.62605469  0.62395654  0.87424267  1
  Cu2+  Cu108  1  0.37597536  0.62504381  0.65302537  1
  Cu2+  Cu109  1  0.12599972  0.12613295  0.64222895  1
  Cu2+  Cu110  1  0.37548855  0.37509875  0.14115494  1
  Cu2+  Cu111  1  0.62437511  0.37435793  0.15071885  1
  Cu2+  Cu112  1  0.87466473  0.37573366  0.65190201  1
  Cu2+  Cu113  1  0.12571021  0.87545372  0.15342820  1
  Cu2+  Cu114  1  0.62544029  0.37613833  0.65327804  1
  Cu2+  Cu115  1  0.37509314  0.12428281  0.15534264  1
  Cu2+  Cu116  1  0.62316713  0.62483941  0.14224732  1
  Cu2+  Cu117  1  0.87449406  0.87671881  0.15589444  1
  Cu2+  Cu118  1  0.87476194  0.12503856  0.64251076  1
  Cu2+  Cu119  1  0.12509318  0.62391799  0.65549908  1
  Cu2+  Cu120  1  0.87448397  0.37342203  0.15032116  1
  Cu2+  Cu121  1  0.62411359  0.87591270  0.15510654  1
  Cu2+  Cu122  1  0.12548273  0.37497920  0.15047018  1
  Cu2+  Cu123  1  0.12473930  0.87476286  0.64867752  1
  Cu2+  Cu124  1  0.87515965  0.62511664  0.15166397  1
  Cu2+  Cu125  1  0.12479007  0.37519658  0.65266987  1
  Cu2+  Cu126  1  0.37534766  0.37466160  0.64287192  1
  Cu2+  Cu127  1  0.62416191  0.12533362  0.65148164  1
  O2-  O128  1  0.12552651  0.12339802  0.01892860  1
  O2-  O129  1  0.12526876  0.12677781  0.50767641  1
  O2-  O130  1  0.12440484  0.37487603  -0.00383596  1
  O2-  O131  1  0.12351237  0.37814444  0.49575135  1
  O2-  O132  1  0.12434506  0.62624298  0.00554596  1
  O2-  O133  1  0.12547739  0.62249018  0.49411657  1
  O2-  O134  1  0.12389833  0.87466462  -0.00546442  1
  O2-  O135  1  0.12567349  0.87128402  0.49748503  1
  O2-  O136  1  0.37469366  0.12369313  -0.00538275  1
  O2-  O137  1  0.37561642  0.12593712  0.50750596  1
  O2-  O138  1  0.37549472  0.37365508  0.00679080  1
  O2-  O139  1  0.37479311  0.37586627  0.50821270  1
  O2-  O140  1  0.37512799  0.62783085  0.01674638  1
  O2-  O141  1  0.37251741  0.62356313  0.49760927  1
  O2-  O142  1  0.37576165  0.87667696  0.02000046  1
  O2-  O143  1  0.37457374  0.87316306  0.50825728  1
  O2-  O144  1  0.62453838  0.12258985  0.01757741  1
  O2-  O145  1  0.62589223  0.12871561  0.49685641  1
  O2-  O146  1  0.62558643  0.37476529  -0.00350919  1
  O2-  O147  1  0.62639179  0.37520862  0.49541850  1
  O2-  O148  1  0.62540993  0.62533763  0.00848717  1
  O2-  O149  1  0.62580409  0.62487546  0.51914803  1
  O2-  O150  1  0.62545628  0.87605539  -0.00371107  1
  O2-  O151  1  0.62521056  0.87149947  0.51688577  1
  O2-  O152  1  0.87583988  0.12306950  0.00720179  1
  O2-  O153  1  0.87397681  0.12614666  0.50730237  1
  O2-  O154  1  0.87515783  0.37442194  -0.00414847  1
  O2-  O155  1  0.87502460  0.37521378  0.49543044  1
  O2-  O156  1  0.87631693  0.62620691  -0.00137361  1
  O2-  O157  1  0.87358742  0.62543552  0.51703629  1
  O2-  O158  1  0.87563976  0.87563172  -0.00491187  1
  O2-  O159  1  0.87469232  0.87383547  0.50621956  1
  O2-  O160  1  0.12537738  0.00067949  0.16940544  1
  O2-  O161  1  0.12491866  -0.00106300  0.66395583  1
  O2-  O162  1  0.12482850  0.24952490  0.16541742  1
  O2-  O163  1  0.12513672  0.25187993  0.66480543  1
  O2-  O164  1  0.12575670  0.50142853  0.15819194  1
  O2-  O165  1  0.12509362  0.49968053  0.66640443  1
  O2-  O166  1  0.12390374  0.74904413  0.16215861  1
  O2-  O167  1  0.12545154  0.74916239  0.66465498  1
  O2-  O168  1  0.37452663  -0.00072704  0.17271302  1
  O2-  O169  1  0.37551522  -0.00053578  0.65935667  1
  O2-  O170  1  0.37528353  0.24856798  0.16481820  1
  O2-  O171  1  0.37589508  0.24724540  0.66273419  1
  O2-  O172  1  0.37392600  0.50194735  0.16366887  1
  O2-  O173  1  0.37477696  0.50113636  0.66669884  1
  O2-  O174  1  0.37496998  0.75065165  0.17075798  1
  O2-  O175  1  0.37486497  0.75147708  0.66468190  1
  O2-  O176  1  0.62527006  0.00109389  0.16955213  1
  O2-  O177  1  0.62561326  -0.00142296  0.66352523  1
  O2-  O178  1  0.62388788  0.24932612  0.16293483  1
  O2-  O179  1  0.62500904  0.25092134  0.66429041  1
  O2-  O180  1  0.62536684  0.49789542  0.16312663  1
  O2-  O181  1  0.62543963  0.50074516  0.66636341  1
  O2-  O182  1  0.62473588  0.75202131  0.16647305  1
  O2-  O183  1  0.62442243  0.74938520  0.67102612  1
  O2-  O184  1  0.87440447  0.00231842  0.16680767  1
  O2-  O185  1  0.87463979  -0.00335786  0.66332241  1
  O2-  O186  1  0.87568434  0.24747107  0.16038639  1
  O2-  O187  1  0.87486170  0.25169715  0.66626699  1
  O2-  O188  1  0.87448948  0.49870665  0.16198154  1
  O2-  O189  1  0.87513222  0.50084257  0.66511101  1
  O2-  O190  1  0.87551824  0.75183017  0.16594239  1
  O2-  O191  1  0.87597597  0.75066087  0.66526449  1
  O2-  O192  1  -0.00093032  0.12389237  0.16548094  1
  O2-  O193  1  0.00028258  0.12522550  0.66509586  1
  O2-  O194  1  -0.00014438  0.37513566  0.16205770  1
  O2-  O195  1  -0.00016360  0.37560443  0.66287058  1
  O2-  O196  1  0.00178138  0.62506026  0.16126367  1
  O2-  O197  1  -0.00067213  0.62486632  0.66444796  1
  O2-  O198  1  0.00026703  0.87647067  0.16484881  1
  O2-  O199  1  -0.00155087  0.87388241  0.65951494  1
  O2-  O200  1  0.25041216  0.12489464  0.16846335  1
  O2-  O201  1  0.25337507  0.12426610  0.66335055  1
  O2-  O202  1  0.24920120  0.37376247  0.16508484  1
  O2-  O203  1  0.24888915  0.37522732  0.66540070  1
  O2-  O204  1  0.24886113  0.62690408  0.16295751  1
  O2-  O205  1  0.24995136  0.62526266  0.66626616  1
  O2-  O206  1  0.25062010  0.87510894  0.16828367  1
  O2-  O207  1  0.25192319  0.87472803  0.66288722  1
  O2-  O208  1  0.49955378  0.12373417  0.16833766  1
  O2-  O209  1  0.49873055  0.12403883  0.66215497  1
  O2-  O210  1  0.50084993  0.37492579  0.16610436  1
  O2-  O211  1  0.50157310  0.37561122  0.66570182  1
  O2-  O212  1  0.49773023  0.62545842  0.16856681  1
  O2-  O213  1  0.50078305  0.62485070  0.66803355  1
  O2-  O214  1  0.49930901  0.87612961  0.17151208  1
  O2-  O215  1  0.49937784  0.87514312  0.66468705  1
  O2-  O216  1  0.75093102  0.12524215  0.16316771  1
  O2-  O217  1  0.74815021  0.12521155  0.66637912  1
  O2-  O218  1  0.74971096  0.37330105  0.16258353  1
  O2-  O219  1  0.74997286  0.37490768  0.66456006  1
  O2-  O220  1  0.75111714  0.62600976  0.16499362  1
  O2-  O221  1  0.74980116  0.62535013  0.66970265  1
  O2-  O222  1  0.74924041  0.87577857  0.16561412  1
  O2-  O223  1  0.75107278  0.87409373  0.66490880  1
  O2-  O224  1  0.12428515  -0.00185259  0.35087097  1
  O2-  O225  1  0.12448922  -0.00023213  0.84643792  1
  O2-  O226  1  0.12537890  0.25243108  0.34658737  1
  O2-  O227  1  0.12445309  0.25010848  0.84732637  1
  O2-  O228  1  0.12451009  0.49970612  0.33914126  1
  O2-  O229  1  0.12454903  0.50120570  0.84915798  1
  O2-  O230  1  0.12506214  0.74973538  0.34364796  1
  O2-  O231  1  0.12543579  0.74875204  0.84736433  1
  O2-  O232  1  0.37574336  -0.00052538  0.35589304  1
  O2-  O233  1  0.37483841  0.00129744  0.84217080  1
  O2-  O234  1  0.37464544  0.24782974  0.34917437  1
  O2-  O235  1  0.37456847  0.24815567  0.84434010  1
  O2-  O236  1  0.37514697  0.50158118  0.34444073  1
  O2-  O237  1  0.37452008  0.50023377  0.85050623  1
  O2-  O238  1  0.37416664  0.75092288  0.35088761  1
  O2-  O239  1  0.37418289  0.75087089  0.84947068  1
  O2-  O240  1  0.62450971  0.00132445  0.35145381  1
  O2-  O241  1  0.62525722  -0.00038935  0.84563080  1
  O2-  O242  1  0.62486999  0.25090053  0.34203793  1
  O2-  O243  1  0.62593440  0.25029509  0.84750123  1
  O2-  O244  1  0.62475370  0.49926522  0.34544716  1
  O2-  O245  1  0.62507542  0.49808653  0.84725470  1
  O2-  O246  1  0.62535310  0.74872253  0.35069152  1
  O2-  O247  1  0.62482496  0.75164862  0.84923874  1
  O2-  O248  1  0.87529677  -0.00280377  0.35126834  1
  O2-  O249  1  0.87556448  0.00118357  0.84647878  1
  O2-  O250  1  0.87457675  0.25276654  0.34216101  1
  O2-  O251  1  0.87528017  0.24822661  0.84961507  1
  O2-  O252  1  0.87524290  0.49964178  0.34518282  1
  O2-  O253  1  0.87622849  0.49998418  0.84574684  1
  O2-  O254  1  0.87481368  0.75073231  0.35096812  1
  O2-  O255  1  0.87589005  0.75027808  0.84439572  1
  O2-  O256  1  0.00003093  0.12574594  0.34812653  1
  O2-  O257  1  -0.00158412  0.12448389  0.84882586  1
  O2-  O258  1  -0.00015419  0.37556031  0.34361919  1
  O2-  O259  1  -0.00008208  0.37429588  0.84404371  1
  O2-  O260  1  0.00148404  0.62548128  0.34391625  1
  O2-  O261  1  0.00130545  0.62560084  0.84603663  1
  O2-  O262  1  -0.00105113  0.87383681  0.34848148  1
  O2-  O263  1  -0.00015499  0.87534522  0.84094843  1
  O2-  O264  1  0.25286882  0.12394448  0.35140890  1
  O2-  O265  1  0.24931269  0.12402075  0.84602433  1
  O2-  O266  1  0.24878871  0.37563497  0.34713147  1
  O2-  O267  1  0.24831566  0.37491167  0.84745747  1
  O2-  O268  1  0.24972401  0.62496804  0.34154041  1
  O2-  O269  1  0.24798525  0.62551192  0.85157252  1
  O2-  O270  1  0.25118662  0.87552116  0.34921695  1
  O2-  O271  1  0.24932916  0.87544709  0.84696474  1
  O2-  O272  1  0.49894671  0.12483511  0.35045478  1
  O2-  O273  1  0.49995534  0.12432314  0.84561096  1
  O2-  O274  1  0.50112767  0.37496659  0.34814607  1
  O2-  O275  1  0.50122793  0.37403942  0.84790854  1
  O2-  O276  1  0.49895632  0.62599835  0.35008823  1
  O2-  O277  1  0.49828649  0.62535855  0.85123997  1
  O2-  O278  1  0.49808723  0.87432876  0.35445532  1
  O2-  O279  1  0.50030185  0.87593548  0.84714406  1
  O2-  O280  1  0.74785851  0.12471789  0.34456847  1
  O2-  O281  1  0.75248739  0.12425170  0.85031784  1
  O2-  O282  1  0.74984030  0.37623207  0.34402273  1
  O2-  O283  1  0.75105067  0.37413002  0.84525179  1
  O2-  O284  1  0.74927720  0.62448250  0.34953850  1
  O2-  O285  1  0.75273020  0.62507995  0.84781145  1
  O2-  O286  1  0.75167091  0.87462691  0.35060426  1
  O2-  O287  1  0.75085385  0.87597150  0.84385111  1
