# generated using pymatgen
data_BaYFeCuO5
_symmetry_space_group_name_H-M   'P 1'
_cell_length_a   15.65419844
_cell_length_b   15.65414154
_cell_length_c   15.45142120
_cell_angle_alpha   89.99337117
_cell_angle_beta   89.99926375
_cell_angle_gamma   89.99743049
_symmetry_Int_Tables_number   1
_chemical_formula_structural   BaYFeCuO5
_chemical_formula_sum   'Ba32 Y32 Fe32 Cu32 O160'
_cell_volume   3786.41767804
_cell_formula_units_Z   32
loop_
 _symmetry_equiv_pos_site_id
 _symmetry_equiv_pos_as_xyz
  1  'x, y, z'
loop_
 _atom_type_symbol
 _atom_type_oxidation_number
  Ba2+  2.0
  Y3+  3.0
  Fe3+  3.0
  Cu2+  2.0
  O2-  -2.0
loop_
 _atom_site_type_symbol
 _atom_site_label
 _atom_site_symmetry_multiplicity
 _atom_site_fract_x
 _atom_site_fract_y
 _atom_site_fract_z
 _atom_site_occupancy
  Ba2+  Ba0  1  -0.00711324  -0.00457698  0.00614366  1
  Ba2+  Ba1  1  0.00226371  -0.00343808  0.51875685  1
  Ba2+  Ba2  1  -0.00845632  0.25074006  0.00602045  1
  Ba2+  Ba3  1  0.00340994  0.25335518  0.50556909  1
  Ba2+  Ba4  1  -0.00632448  0.49693479  0.01358220  1
  Ba2+  Ba5  1  -0.00135102  0.48968893  0.50252494  1
  Ba2+  Ba6  1  -0.00609955  0.75753371  0.01157510  1
  Ba2+  Ba7  1  -0.00183855  0.76128209  0.51127682  1
  Ba2+  Ba8  1  0.24930657  0.00207091  0.00601197  1
  Ba2+  Ba9  1  0.24579863  0.00551600  0.52452094  1
  Ba2+  Ba10  1  0.25643111  0.25095129  0.01589453  1
  Ba2+  Ba11  1  0.25261453  0.25139041  0.51099650  1
  Ba2+  Ba12  1  0.25003513  0.49088258  0.01857484  1
  Ba2+  Ba13  1  0.25794097  0.49464883  0.50176181  1
  Ba2+  Ba14  1  0.24259694  0.75557108  0.00693146  1
  Ba2+  Ba15  1  0.25304223  0.74782354  0.51128271  1
  Ba2+  Ba16  1  0.50349369  0.00790787  0.01401505  1
  Ba2+  Ba17  1  0.50432113  0.00448779  0.52233754  1
  Ba2+  Ba18  1  0.50242842  0.25081681  0.01662835  1
  Ba2+  Ba19  1  0.49295140  0.24743958  0.51675541  1
  Ba2+  Ba20  1  0.50825541  0.49262403  0.00677538  1
  Ba2+  Ba21  1  0.49150657  0.50284429  0.51126416  1
  Ba2+  Ba22  1  0.51124075  0.74848384  0.00634683  1
  Ba2+  Ba23  1  0.50208072  0.74474594  0.51654670  1
  Ba2+  Ba24  1  0.75344063  0.00122184  0.01590758  1
  Ba2+  Ba25  1  0.74809201  -0.00523966  0.51650289  1
  Ba2+  Ba26  1  0.74859681  0.24973206  0.00705638  1
  Ba2+  Ba27  1  0.75165241  0.25046462  0.51136347  1
  Ba2+  Ba28  1  0.74731914  0.49696006  -0.00116239  1
  Ba2+  Ba29  1  0.75113151  0.49803995  0.51123874  1
  Ba2+  Ba30  1  0.75389125  0.75200361  0.01326509  1
  Ba2+  Ba31  1  0.74738433  0.75690874  0.51628134  1
  Y3+  Y32  1  -0.00280814  -0.00181032  0.25329802  1
  Y3+  Y33  1  -0.00118859  -0.00195816  0.76138098  1
  Y3+  Y34  1  -0.00082126  0.25090431  0.25778730  1
  Y3+  Y35  1  -0.00284481  0.24937688  0.75729958  1
  Y3+  Y36  1  -0.00028586  0.49743738  0.26046888  1
  Y3+  Y37  1  -0.00216078  0.49857923  0.75624992  1
  Y3+  Y38  1  -0.00211611  0.75325764  0.25576112  1
  Y3+  Y39  1  -0.00058788  0.75448484  0.75897607  1
  Y3+  Y40  1  0.24965717  0.00065782  0.25025810  1
  Y3+  Y41  1  0.24827990  0.00129157  0.76203922  1
  Y3+  Y42  1  0.25181167  0.25221381  0.25650402  1
  Y3+  Y43  1  0.25211613  0.24820046  0.75696973  1
  Y3+  Y44  1  0.25186022  0.49690341  0.26130150  1
  Y3+  Y45  1  0.25249854  0.50026540  0.75443180  1
  Y3+  Y46  1  0.24984619  0.74970218  0.25655189  1
  Y3+  Y47  1  0.24905863  0.75061128  0.75792313  1
  Y3+  Y48  1  0.50115235  0.00158290  0.25182939  1
  Y3+  Y49  1  0.50006723  0.00270671  0.75850732  1
  Y3+  Y50  1  0.49935012  0.25104506  0.25445281  1
  Y3+  Y51  1  0.49903427  0.25008715  0.75813342  1
  Y3+  Y52  1  0.49847693  0.49767221  0.25929968  1
  Y3+  Y53  1  0.50089838  0.50026819  0.75568202  1
  Y3+  Y54  1  0.49997759  0.74926211  0.25784375  1
  Y3+  Y55  1  0.50173259  0.74724489  0.75550670  1
  Y3+  Y56  1  0.75219185  -0.00103606  0.25489743  1
  Y3+  Y57  1  0.75238809  -0.00043092  0.75781983  1
  Y3+  Y58  1  0.74993346  0.24905382  0.25663457  1
  Y3+  Y59  1  0.75127770  0.25137544  0.75829963  1
  Y3+  Y60  1  0.75047073  0.49831423  0.25958469  1
  Y3+  Y61  1  0.74845518  0.49843669  0.75634951  1
  Y3+  Y62  1  0.75252753  0.75318608  0.25770630  1
  Y3+  Y63  1  0.74973261  0.75099688  0.75630672  1
  Fe3+  Fe64  1  0.37550817  0.37482766  0.87649025  1
  Fe3+  Fe65  1  0.62504171  0.62533979  0.37879480  1
  Fe3+  Fe66  1  0.12598619  0.87706395  0.37552402  1
  Fe3+  Fe67  1  0.12499168  0.62532592  0.37955663  1
  Fe3+  Fe68  1  0.87517565  0.62644833  0.38056648  1
  Fe3+  Fe69  1  0.37521625  0.87693249  0.37939013  1
  Fe3+  Fe70  1  0.87538037  0.12330358  0.37961536  1
  Fe3+  Fe71  1  0.12392424  0.12659225  0.87933563  1
  Fe3+  Fe72  1  0.62405896  0.87612761  0.37600932  1
  Fe3+  Fe73  1  0.87463503  0.62528223  0.87597404  1
  Fe3+  Fe74  1  0.62598736  0.87546886  0.87620906  1
  Fe3+  Fe75  1  0.37485348  0.12301279  0.37483283  1
  Fe3+  Fe76  1  0.12400125  0.62378521  0.88038527  1
  Fe3+  Fe77  1  0.37657514  0.87479367  0.87885982  1
  Fe3+  Fe78  1  0.62570382  0.12588249  0.87506149  1
  Fe3+  Fe79  1  0.12495563  0.37535683  0.87815139  1
  Fe3+  Fe80  1  0.12562051  0.12386239  0.37504917  1
  Fe3+  Fe81  1  0.62371898  0.37374579  0.38055206  1
  Fe3+  Fe82  1  0.62454112  0.12426843  0.37646748  1
  Fe3+  Fe83  1  0.37526727  0.62431087  0.88083150  1
  Fe3+  Fe84  1  0.37500017  0.87547157  0.63638896  1
  Fe3+  Fe85  1  0.62394748  0.37439159  0.63561021  1
  Fe3+  Fe86  1  0.12561400  0.37467079  0.63823068  1
  Fe3+  Fe87  1  0.12327110  0.12612167  0.13377736  1
  Fe3+  Fe88  1  0.87330026  0.37524377  0.14058449  1
  Fe3+  Fe89  1  0.87575278  0.62550458  0.63467024  1
  Fe3+  Fe90  1  0.62702023  0.62369364  0.13894480  1
  Fe3+  Fe91  1  0.12439644  0.62477166  0.63414965  1
  Fe3+  Fe92  1  0.37622868  0.87395930  0.13292076  1
  Fe3+  Fe93  1  0.87560610  0.12504236  0.63587401  1
  Fe3+  Fe94  1  0.12353764  0.62432137  0.13609452  1
  Fe3+  Fe95  1  0.37570267  0.62426754  0.13418243  1
  Cu2+  Cu96  1  0.12448389  0.87470100  0.87386257  1
  Cu2+  Cu97  1  0.62456058  0.37411161  0.86972700  1
  Cu2+  Cu98  1  0.87360940  0.37326276  0.37459475  1
  Cu2+  Cu99  1  0.87408228  0.12481369  0.87271258  1
  Cu2+  Cu100  1  0.12583057  0.37360182  0.36359882  1
  Cu2+  Cu101  1  0.87479635  0.37558818  0.86201826  1
  Cu2+  Cu102  1  0.37520535  0.62634375  0.37219715  1
  Cu2+  Cu103  1  0.37565979  0.12576955  0.87412050  1
  Cu2+  Cu104  1  0.87319410  0.87454270  0.87047948  1
  Cu2+  Cu105  1  0.87509513  0.87635202  0.37357000  1
  Cu2+  Cu106  1  0.37672465  0.37263863  0.37195361  1
  Cu2+  Cu107  1  0.62553475  0.62479958  0.86188364  1
  Cu2+  Cu108  1  0.62395373  0.87550023  0.65299103  1
  Cu2+  Cu109  1  0.37443364  0.12423549  0.65428932  1
  Cu2+  Cu110  1  0.12597957  0.87512424  0.65407317  1
  Cu2+  Cu111  1  0.37384338  0.62525448  0.64341088  1
  Cu2+  Cu112  1  0.37589942  0.37614700  0.15174630  1
  Cu2+  Cu113  1  0.62580618  0.62422475  0.64858861  1
  Cu2+  Cu114  1  0.87533759  0.12601364  0.14216241  1
  Cu2+  Cu115  1  0.87503301  0.87541485  0.64355813  1
  Cu2+  Cu116  1  0.12408106  0.37488932  0.15086995  1
  Cu2+  Cu117  1  0.37444231  0.37496135  0.64295220  1
  Cu2+  Cu118  1  0.62623690  0.12551968  0.15086171  1
  Cu2+  Cu119  1  0.87480850  0.62419983  0.15363399  1
  Cu2+  Cu120  1  0.87531650  0.37475958  0.64175820  1
  Cu2+  Cu121  1  0.62648168  0.37572349  0.14359368  1
  Cu2+  Cu122  1  0.37492714  0.12560813  0.13927416  1
  Cu2+  Cu123  1  0.12392733  0.12550848  0.65494021  1
  Cu2+  Cu124  1  0.12485731  0.87503314  0.13986941  1
  Cu2+  Cu125  1  0.87424208  0.87517065  0.14304812  1
  Cu2+  Cu126  1  0.62489778  0.87446584  0.14806037  1
  Cu2+  Cu127  1  0.62612846  0.12602035  0.65138989  1
  O2-  O128  1  0.12320450  0.12785650  0.00623995  1
  O2-  O129  1  0.12602818  0.12309294  0.49515745  1
  O2-  O130  1  0.12429668  0.37656079  -0.00144988  1
  O2-  O131  1  0.12664753  0.37478643  0.51724629  1
  O2-  O132  1  0.12324566  0.62327554  0.00722352  1
  O2-  O133  1  0.12520261  0.62526420  0.50694960  1
  O2-  O134  1  0.12525281  0.87431095  0.00654465  1
  O2-  O135  1  0.12792187  0.87782143  0.49614370  1
  O2-  O136  1  0.37549531  0.12585986  0.00628022  1
  O2-  O137  1  0.37384677  0.12110717  0.49532373  1
  O2-  O138  1  0.37572229  0.37624198  -0.00250960  1
  O2-  O139  1  0.37533983  0.37301380  0.50740869  1
  O2-  O140  1  0.37551670  0.62414806  0.00728397  1
  O2-  O141  1  0.37367858  0.62714725  0.50689087  1
  O2-  O142  1  0.37715280  0.87265907  0.00565794  1
  O2-  O143  1  0.37451804  0.87754999  0.50639004  1
  O2-  O144  1  0.62610316  0.12605150  -0.00414205  1
  O2-  O145  1  0.62392807  0.12382936  0.49629583  1
  O2-  O146  1  0.62651131  0.37450552  0.00768865  1
  O2-  O147  1  0.62268590  0.37397566  0.50740347  1
  O2-  O148  1  0.62720857  0.62296189  0.01802400  1
  O2-  O149  1  0.62443956  0.62606175  0.49909272  1
  O2-  O150  1  0.62569064  0.87517467  -0.00315051  1
  O2-  O151  1  0.62175135  0.87618696  0.49648902  1
  O2-  O152  1  0.87451042  0.12615444  0.00664755  1
  O2-  O153  1  0.87643139  0.12345796  0.50704021  1
  O2-  O154  1  0.87282551  0.37648868  0.01917790  1
  O2-  O155  1  0.87493328  0.37357189  0.50803986  1
  O2-  O156  1  0.87489588  0.62456062  -0.00351240  1
  O2-  O157  1  0.87642783  0.62688391  0.50724956  1
  O2-  O158  1  0.87256671  0.87446803  0.00712444  1
  O2-  O159  1  0.87541279  0.87655588  0.50793760  1
  O2-  O160  1  0.12560849  0.00262864  0.15874423  1
  O2-  O161  1  0.12549845  0.00037712  0.66710233  1
  O2-  O162  1  0.12472154  0.24923971  0.16363686  1
  O2-  O163  1  0.12484333  0.25023595  0.66562366  1
  O2-  O164  1  0.12533123  0.50192231  0.16727588  1
  O2-  O165  1  0.12470840  0.50149743  0.66570167  1
  O2-  O166  1  0.12514845  0.74660826  0.16470260  1
  O2-  O167  1  0.12511778  0.74857325  0.66313867  1
  O2-  O168  1  0.37553999  -0.00304758  0.15911013  1
  O2-  O169  1  0.37451436  -0.00133503  0.66599151  1
  O2-  O170  1  0.37536135  0.25224767  0.16388412  1
  O2-  O171  1  0.37414951  0.24764789  0.66361253  1
  O2-  O172  1  0.37440169  0.50226743  0.16639341  1
  O2-  O173  1  0.37432666  0.50074119  0.66575746  1
  O2-  O174  1  0.37513368  0.74860095  0.16360466  1
  O2-  O175  1  0.37463113  0.75304463  0.66510225  1
  O2-  O176  1  0.62492855  0.00063712  0.16016545  1
  O2-  O177  1  0.62450571  0.00104998  0.66378847  1
  O2-  O178  1  0.62534551  0.24854125  0.16573665  1
  O2-  O179  1  0.62484735  0.25136365  0.66200961  1
  O2-  O180  1  0.62510353  0.50216632  0.17197545  1
  O2-  O181  1  0.62501304  0.49800619  0.66332551  1
  O2-  O182  1  0.62468349  0.74850777  0.16567746  1
  O2-  O183  1  0.62401262  0.74992152  0.66385185  1
  O2-  O184  1  0.87453111  0.00039690  0.16359604  1
  O2-  O185  1  0.87539906  0.00228179  0.66451090  1
  O2-  O186  1  0.87525427  0.25187131  0.16853074  1
  O2-  O187  1  0.87554071  0.24739149  0.66404549  1
  O2-  O188  1  0.87561321  0.49923593  0.17132613  1
  O2-  O189  1  0.87546843  0.50301794  0.66286336  1
  O2-  O190  1  0.87526956  0.74870158  0.16577307  1
  O2-  O191  1  0.87582098  0.74798378  0.66329862  1
  O2-  O192  1  0.00236331  0.12548717  0.16574664  1
  O2-  O193  1  -0.00148116  0.12451725  0.66473903  1
  O2-  O194  1  -0.00110250  0.37609653  0.16785916  1
  O2-  O195  1  0.00205268  0.37551579  0.66708471  1
  O2-  O196  1  0.00067978  0.62407626  0.16507184  1
  O2-  O197  1  0.00057385  0.62539935  0.66321821  1
  O2-  O198  1  -0.00041500  0.87448147  0.16516892  1
  O2-  O199  1  0.00208046  0.87525113  0.66630871  1
  O2-  O200  1  0.24709869  0.12568138  0.16005949  1
  O2-  O201  1  0.24900254  0.12392474  0.66731420  1
  O2-  O202  1  0.25014686  0.37622189  0.16315560  1
  O2-  O203  1  0.24845140  0.37528014  0.66791126  1
  O2-  O204  1  0.25056527  0.62520507  0.16037113  1
  O2-  O205  1  0.24611244  0.62627096  0.66767796  1
  O2-  O206  1  0.25379621  0.87311909  0.16169941  1
  O2-  O207  1  0.25153743  0.87503201  0.66607175  1
  O2-  O208  1  0.50217056  0.12524592  0.16143632  1
  O2-  O209  1  0.50019904  0.12468153  0.66323853  1
  O2-  O210  1  0.49960888  0.37601678  0.16432196  1
  O2-  O211  1  0.50169429  0.37502914  0.66342893  1
  O2-  O212  1  0.49873464  0.62511927  0.16320990  1
  O2-  O213  1  0.50097189  0.62507269  0.66627675  1
  O2-  O214  1  0.49838510  0.87347571  0.16225768  1
  O2-  O215  1  0.49828129  0.87528392  0.66327296  1
  O2-  O216  1  0.74892318  0.12532259  0.16702425  1
  O2-  O217  1  0.75210919  0.12520467  0.66064952  1
  O2-  O218  1  0.75140453  0.37526126  0.17232654  1
  O2-  O219  1  0.74727337  0.37489267  0.66192942  1
  O2-  O220  1  0.75058265  0.62519997  0.17016179  1
  O2-  O221  1  0.75205571  0.62532671  0.66030278  1
  O2-  O222  1  0.74851110  0.87440502  0.16611569  1
  O2-  O223  1  0.74784396  0.87466724  0.66238996  1
  O2-  O224  1  0.12560797  -0.00000524  0.33920462  1
  O2-  O225  1  0.12498822  0.00298536  0.85195959  1
  O2-  O226  1  0.12538977  0.24863666  0.34725900  1
  O2-  O227  1  0.12467672  0.25041773  0.84808116  1
  O2-  O228  1  0.12513829  0.50083476  0.35319341  1
  O2-  O229  1  0.12508407  0.50124376  0.84748183  1
  O2-  O230  1  0.12581352  0.74973174  0.34851621  1
  O2-  O231  1  0.12563731  0.74585493  0.84863207  1
  O2-  O232  1  0.37463930  -0.00162203  0.34122967  1
  O2-  O233  1  0.37521749  -0.00306269  0.85092070  1
  O2-  O234  1  0.37516590  0.24671047  0.34680578  1
  O2-  O235  1  0.37435598  0.25229803  0.84634695  1
  O2-  O236  1  0.37504582  0.49945721  0.35104949  1
  O2-  O237  1  0.37494127  0.50188844  0.84804079  1
  O2-  O238  1  0.37392636  0.75443410  0.34796827  1
  O2-  O239  1  0.37494687  0.74876334  0.85037358  1
  O2-  O240  1  0.62433537  -0.00002406  0.34206906  1
  O2-  O241  1  0.62438912  -0.00012791  0.84537509  1
  O2-  O242  1  0.62492780  0.24980703  0.34883068  1
  O2-  O243  1  0.62537743  0.24923865  0.84455401  1
  O2-  O244  1  0.62481723  0.49899568  0.35309860  1
  O2-  O245  1  0.62505093  0.50076260  0.84787899  1
  O2-  O246  1  0.62463318  0.75057468  0.34618320  1
  O2-  O247  1  0.62432165  0.75022672  0.84761116  1
  O2-  O248  1  0.87560231  0.00275135  0.34660264  1
  O2-  O249  1  0.87488023  -0.00070785  0.84808162  1
  O2-  O250  1  0.87484167  0.24588778  0.35127869  1
  O2-  O251  1  0.87503086  0.25231108  0.84842257  1
  O2-  O252  1  0.87554960  0.50285533  0.35441512  1
  O2-  O253  1  0.87494090  0.50064686  0.84616923  1
  O2-  O254  1  0.87597895  0.74788350  0.34970383  1
  O2-  O255  1  0.87484627  0.74824081  0.84560308  1
  O2-  O256  1  -0.00044788  0.12500855  0.34873451  1
  O2-  O257  1  0.00192257  0.12608065  0.84938319  1
  O2-  O258  1  0.00071700  0.37426424  0.35114643  1
  O2-  O259  1  0.00052385  0.37596407  0.84900315  1
  O2-  O260  1  0.00077940  0.62495328  0.35099572  1
  O2-  O261  1  0.00104301  0.62432039  0.84700493  1
  O2-  O262  1  0.00226019  0.87486051  0.34773996  1
  O2-  O263  1  -0.00084039  0.87429459  0.85025017  1
  O2-  O264  1  0.25024093  0.12392752  0.34107432  1
  O2-  O265  1  0.24706838  0.12507305  0.85169936  1
  O2-  O266  1  0.24998967  0.37438289  0.34825666  1
  O2-  O267  1  0.24996346  0.37655875  0.84750353  1
  O2-  O268  1  0.24656977  0.62535184  0.34633646  1
  O2-  O269  1  0.25034020  0.62526986  0.85268978  1
  O2-  O270  1  0.25112886  0.87510555  0.34424782  1
  O2-  O271  1  0.25320568  0.87349175  0.85103459  1
  O2-  O272  1  0.49992358  0.12371912  0.34292477  1
  O2-  O273  1  0.50183030  0.12515164  0.84616306  1
  O2-  O274  1  0.50317220  0.37430143  0.34772103  1
  O2-  O275  1  0.49814942  0.37619482  0.84575952  1
  O2-  O276  1  0.50231356  0.62576108  0.34522025  1
  O2-  O277  1  0.49845851  0.62522891  0.85167891  1
  O2-  O278  1  0.49852849  0.87515863  0.34538730  1
  O2-  O279  1  0.49939553  0.87365127  0.84674586  1
  O2-  O280  1  0.75056945  0.12422453  0.35038471  1
  O2-  O281  1  0.74853525  0.12535460  0.84378874  1
  O2-  O282  1  0.74622985  0.37465045  0.35397464  1
  O2-  O283  1  0.75109947  0.37598795  0.84654971  1
  O2-  O284  1  0.75079614  0.62508389  0.35188886  1
  O2-  O285  1  0.75033854  0.62407636  0.84456388  1
  O2-  O286  1  0.74817405  0.87541073  0.34925965  1
  O2-  O287  1  0.74798991  0.87438432  0.84462700  1
